data_str_m3_o10_o18_pcu_sym.104
_audit_creation_date              2020-01-03
_audit_creation_method            'Materials Studio'
_symmetry_space_group_name_H-M    'P1'
_symmetry_Int_Tables_number       1
_symmetry_cell_setting            triclinic
loop_
_symmetry_equiv_pos_as_xyz
  x,y,z
_cell_length_a                    23.5205
_cell_length_b                    25.6802
_cell_length_c                    27.0827
_cell_angle_alpha                 93.3977
_cell_angle_beta                  92.3849
_cell_angle_gamma                 94.3636
loop_
_atom_site_label
_atom_site_type_symbol
_atom_site_fract_x
_atom_site_fract_y
_atom_site_fract_z
_atom_site_U_iso_or_equiv
_atom_site_adp_type
_atom_site_occupancy
Br1    Br    0.25479   0.25415   0.10929   0.00000  Uiso   1.00
Br2    Br    0.07855   0.07918   0.39071   0.00000  Uiso   1.00
Br3    Br    0.05564   0.07717   0.10139   0.00000  Uiso   1.00
Br4    Br    0.27770   0.25616   0.39861   0.00000  Uiso   1.00
C5     C     0.01510   0.26492   0.24878   0.00000  Uiso   1.00
C6     C     0.31260   0.16180   0.15852   0.00000  Uiso   1.00
C7     C     0.03021   0.17842   0.39498   0.00000  Uiso   1.00
C8     C     0.30312   0.15492   0.10502   0.00000  Uiso   1.00
C9     C     0.02217   0.22697   0.47342   0.00000  Uiso   1.00
C10    C     0.31117   0.10637   0.02658   0.00000  Uiso   1.00
C11    C     0.00394   0.21652   0.42396   0.00000  Uiso   1.00
C12    C     0.32939   0.11681   0.07604   0.00000  Uiso   1.00
C13    C     0.07256   0.15069   0.41626   0.00000  Uiso   1.00
C14    C     0.26078   0.18265   0.08374   0.00000  Uiso   1.00
C15    C     0.10010   0.17071   0.46105   0.00000  Uiso   1.00
C16    C     0.31823   0.06841   0.25122   0.00000  Uiso   1.00
C17    C     0.23323   0.16262   0.03895   0.00000  Uiso   1.00
C18    C     0.07097   0.20533   0.49182   0.00000  Uiso   1.00
C19    C     0.26237   0.12800   0.00818   0.00000  Uiso   1.00
C20    C     0.15580   0.15869   0.47573   0.00000  Uiso   1.00
C21    C     0.17753   0.17465   0.02427   0.00000  Uiso   1.00
C22    C     0.14155   0.19907   0.05746   0.00000  Uiso   1.00
C23    C     0.19179   0.13427   0.44253   0.00000  Uiso   1.00
C24    C     0.09057   0.21711   0.04066   0.00000  Uiso   1.00
C25    C     0.24276   0.11623   0.45933   0.00000  Uiso   1.00
C26    C     0.02294   0.31953   0.24807   0.00000  Uiso   1.00
C27    C     0.31039   0.01380   0.25193   0.00000  Uiso   1.00
C28    C     0.02073   0.17153   0.34148   0.00000  Uiso   1.00
H29    H     0.06603   0.23951   0.06610   0.00000  Uiso   1.00
H30    H     0.17100   0.20887   0.28650   0.00000  Uiso   1.00
H31    H     0.26731   0.09383   0.43390   0.00000  Uiso   1.00
H32    H     0.00043   0.25434   0.49649   0.00000  Uiso   1.00
H33    H     0.33290   0.07899   0.00351   0.00000  Uiso   1.00
H34    H     0.15220   0.20461   0.09664   0.00000  Uiso   1.00
H35    H     0.18114   0.12873   0.40336   0.00000  Uiso   1.00
H36    H     0.06611   0.00348   0.24440   0.00000  Uiso   1.00
H37    H     0.26722   0.32985   0.25560   0.00000  Uiso   1.00
H38    H     0.16233   0.12447   0.21350   0.00000  Uiso   1.00
N39    N     0.14695   0.15216   0.23739   0.00000  Uiso   1.00
N40    N     0.18638   0.18117   0.26260   0.00000  Uiso   1.00
O41    O     0.29719   0.24631   0.25309   0.00000  Uiso   1.00
O42    O     0.03614   0.08702   0.24690   0.00000  Uiso   1.00
O43    O     0.05822   0.23702   0.24501   0.00000  Uiso   1.00
O44    O     0.27512   0.09632   0.25498   0.00000  Uiso   1.00
O45    O     0.30328   0.17397   0.32247   0.00000  Uiso   1.00
O46    O     0.03005   0.15937   0.17753   0.00000  Uiso   1.00
O47    O     0.06431   0.16467   0.31439   0.00000  Uiso   1.00
O48    O     0.26902   0.16866   0.18561   0.00000  Uiso   1.00
Zn49   Zn    0.27033   0.17287   0.25539   0.00000  Uiso   1.00
Zn50   Zn    0.06300   0.16046   0.24460   0.00000  Uiso   1.00
Br51   Br    0.58812   0.25415   0.10929   0.00000  Uiso   1.00
Br52   Br    0.41188   0.07918   0.39071   0.00000  Uiso   1.00
Br53   Br    0.38897   0.07717   0.10139   0.00000  Uiso   1.00
Br54   Br    0.61103   0.25616   0.39861   0.00000  Uiso   1.00
C55    C     0.34844   0.26492   0.24878   0.00000  Uiso   1.00
C56    C     0.64594   0.16180   0.15852   0.00000  Uiso   1.00
C57    C     0.36355   0.17842   0.39498   0.00000  Uiso   1.00
C58    C     0.63645   0.15492   0.10502   0.00000  Uiso   1.00
C59    C     0.35550   0.22697   0.47342   0.00000  Uiso   1.00
C60    C     0.64450   0.10637   0.02658   0.00000  Uiso   1.00
C61    C     0.33727   0.21652   0.42396   0.00000  Uiso   1.00
C62    C     0.66273   0.11681   0.07604   0.00000  Uiso   1.00
C63    C     0.40589   0.15069   0.41626   0.00000  Uiso   1.00
C64    C     0.59411   0.18265   0.08374   0.00000  Uiso   1.00
C65    C     0.43344   0.17071   0.46105   0.00000  Uiso   1.00
C66    C     0.65156   0.06841   0.25122   0.00000  Uiso   1.00
C67    C     0.56657   0.16262   0.03895   0.00000  Uiso   1.00
C68    C     0.40430   0.20533   0.49182   0.00000  Uiso   1.00
C69    C     0.59570   0.12800   0.00818   0.00000  Uiso   1.00
C70    C     0.48914   0.15869   0.47573   0.00000  Uiso   1.00
C71    C     0.51087   0.17465   0.02427   0.00000  Uiso   1.00
C72    C     0.47488   0.19907   0.05746   0.00000  Uiso   1.00
C73    C     0.52512   0.13427   0.44253   0.00000  Uiso   1.00
C74    C     0.42391   0.21711   0.04066   0.00000  Uiso   1.00
C75    C     0.57610   0.11623   0.45933   0.00000  Uiso   1.00
C76    C     0.35627   0.31953   0.24807   0.00000  Uiso   1.00
C77    C     0.64373   0.01380   0.25193   0.00000  Uiso   1.00
C78    C     0.35406   0.17153   0.34148   0.00000  Uiso   1.00
H79    H     0.39936   0.23951   0.06610   0.00000  Uiso   1.00
H80    H     0.50434   0.20887   0.28650   0.00000  Uiso   1.00
H81    H     0.60064   0.09383   0.43390   0.00000  Uiso   1.00
H82    H     0.33377   0.25434   0.49649   0.00000  Uiso   1.00
H83    H     0.66623   0.07899   0.00351   0.00000  Uiso   1.00
H84    H     0.48553   0.20461   0.09664   0.00000  Uiso   1.00
H85    H     0.51447   0.12873   0.40336   0.00000  Uiso   1.00
H86    H     0.39945   0.00348   0.24440   0.00000  Uiso   1.00
H87    H     0.60055   0.32985   0.25560   0.00000  Uiso   1.00
H88    H     0.49566   0.12447   0.21350   0.00000  Uiso   1.00
N89    N     0.48029   0.15216   0.23739   0.00000  Uiso   1.00
N90    N     0.51971   0.18117   0.26260   0.00000  Uiso   1.00
O91    O     0.63052   0.24631   0.25309   0.00000  Uiso   1.00
O92    O     0.36948   0.08702   0.24690   0.00000  Uiso   1.00
O93    O     0.39155   0.23702   0.24501   0.00000  Uiso   1.00
O94    O     0.60845   0.09632   0.25498   0.00000  Uiso   1.00
O95    O     0.63662   0.17397   0.32247   0.00000  Uiso   1.00
O96    O     0.36338   0.15937   0.17753   0.00000  Uiso   1.00
O97    O     0.39764   0.16467   0.31439   0.00000  Uiso   1.00
O98    O     0.60236   0.16866   0.18561   0.00000  Uiso   1.00
Zn99   Zn    0.60366   0.17287   0.25539   0.00000  Uiso   1.00
Zn100  Zn    0.39634   0.16046   0.24460   0.00000  Uiso   1.00
Br101  Br    0.92146   0.25415   0.10929   0.00000  Uiso   1.00
Br102  Br    0.74521   0.07918   0.39071   0.00000  Uiso   1.00
Br103  Br    0.72230   0.07717   0.10139   0.00000  Uiso   1.00
Br104  Br    0.94436   0.25616   0.39861   0.00000  Uiso   1.00
C105   C     0.68177   0.26492   0.24878   0.00000  Uiso   1.00
C106   C     0.97927   0.16180   0.15852   0.00000  Uiso   1.00
C107   C     0.69688   0.17842   0.39498   0.00000  Uiso   1.00
C108   C     0.96979   0.15492   0.10502   0.00000  Uiso   1.00
C109   C     0.68883   0.22697   0.47342   0.00000  Uiso   1.00
C110   C     0.97783   0.10637   0.02658   0.00000  Uiso   1.00
C111   C     0.67061   0.21652   0.42396   0.00000  Uiso   1.00
C112   C     0.99606   0.11681   0.07604   0.00000  Uiso   1.00
C113   C     0.73922   0.15069   0.41626   0.00000  Uiso   1.00
C114   C     0.92745   0.18265   0.08374   0.00000  Uiso   1.00
C115   C     0.76677   0.17071   0.46105   0.00000  Uiso   1.00
C116   C     0.98490   0.06841   0.25122   0.00000  Uiso   1.00
C117   C     0.89990   0.16262   0.03895   0.00000  Uiso   1.00
C118   C     0.73763   0.20533   0.49182   0.00000  Uiso   1.00
C119   C     0.92904   0.12800   0.00818   0.00000  Uiso   1.00
C120   C     0.82247   0.15869   0.47573   0.00000  Uiso   1.00
C121   C     0.84420   0.17465   0.02427   0.00000  Uiso   1.00
C122   C     0.80821   0.19907   0.05746   0.00000  Uiso   1.00
C123   C     0.85846   0.13427   0.44253   0.00000  Uiso   1.00
C124   C     0.75724   0.21711   0.04066   0.00000  Uiso   1.00
C125   C     0.90943   0.11623   0.45933   0.00000  Uiso   1.00
C126   C     0.68961   0.31953   0.24807   0.00000  Uiso   1.00
C127   C     0.97706   0.01380   0.25193   0.00000  Uiso   1.00
C128   C     0.68740   0.17153   0.34148   0.00000  Uiso   1.00
H129   H     0.73270   0.23951   0.06610   0.00000  Uiso   1.00
H130   H     0.83767   0.20887   0.28650   0.00000  Uiso   1.00
H131   H     0.93397   0.09383   0.43390   0.00000  Uiso   1.00
H132   H     0.66710   0.25434   0.49649   0.00000  Uiso   1.00
H133   H     0.99957   0.07899   0.00351   0.00000  Uiso   1.00
H134   H     0.81886   0.20461   0.09664   0.00000  Uiso   1.00
H135   H     0.84780   0.12873   0.40336   0.00000  Uiso   1.00
H136   H     0.73278   0.00348   0.24440   0.00000  Uiso   1.00
H137   H     0.93389   0.32985   0.25560   0.00000  Uiso   1.00
H138   H     0.82900   0.12447   0.21350   0.00000  Uiso   1.00
N139   N     0.81362   0.15216   0.23739   0.00000  Uiso   1.00
N140   N     0.85305   0.18117   0.26260   0.00000  Uiso   1.00
O141   O     0.96386   0.24631   0.25309   0.00000  Uiso   1.00
O142   O     0.70281   0.08702   0.24690   0.00000  Uiso   1.00
O143   O     0.72488   0.23702   0.24501   0.00000  Uiso   1.00
O144   O     0.94178   0.09632   0.25498   0.00000  Uiso   1.00
O145   O     0.96995   0.17397   0.32247   0.00000  Uiso   1.00
O146   O     0.69672   0.15937   0.17753   0.00000  Uiso   1.00
O147   O     0.73098   0.16467   0.31439   0.00000  Uiso   1.00
O148   O     0.93569   0.16866   0.18561   0.00000  Uiso   1.00
Zn149  Zn    0.93700   0.17287   0.25539   0.00000  Uiso   1.00
Zn150  Zn    0.72967   0.16046   0.24460   0.00000  Uiso   1.00
Br151  Br    0.25479   0.58749   0.10929   0.00000  Uiso   1.00
Br152  Br    0.07855   0.41252   0.39071   0.00000  Uiso   1.00
Br153  Br    0.05564   0.41051   0.10139   0.00000  Uiso   1.00
Br154  Br    0.27770   0.58949   0.39861   0.00000  Uiso   1.00
C155   C     0.01510   0.59826   0.24878   0.00000  Uiso   1.00
C156   C     0.31260   0.49513   0.15852   0.00000  Uiso   1.00
C157   C     0.03021   0.51175   0.39498   0.00000  Uiso   1.00
C158   C     0.30312   0.48825   0.10502   0.00000  Uiso   1.00
C159   C     0.02217   0.56030   0.47342   0.00000  Uiso   1.00
C160   C     0.31117   0.43970   0.02658   0.00000  Uiso   1.00
C161   C     0.00394   0.54985   0.42396   0.00000  Uiso   1.00
C162   C     0.32939   0.45015   0.07604   0.00000  Uiso   1.00
C163   C     0.07256   0.48402   0.41626   0.00000  Uiso   1.00
C164   C     0.26078   0.51598   0.08374   0.00000  Uiso   1.00
C165   C     0.10010   0.50405   0.46105   0.00000  Uiso   1.00
C166   C     0.31823   0.40174   0.25122   0.00000  Uiso   1.00
C167   C     0.23323   0.49596   0.03895   0.00000  Uiso   1.00
C168   C     0.07097   0.53867   0.49182   0.00000  Uiso   1.00
C169   C     0.26237   0.46134   0.00818   0.00000  Uiso   1.00
C170   C     0.15580   0.49202   0.47573   0.00000  Uiso   1.00
C171   C     0.17753   0.50798   0.02427   0.00000  Uiso   1.00
C172   C     0.14155   0.53241   0.05746   0.00000  Uiso   1.00
C173   C     0.19179   0.46760   0.44253   0.00000  Uiso   1.00
C174   C     0.09057   0.55045   0.04066   0.00000  Uiso   1.00
C175   C     0.24276   0.44956   0.45933   0.00000  Uiso   1.00
C176   C     0.02294   0.65286   0.24807   0.00000  Uiso   1.00
C177   C     0.31039   0.34714   0.25193   0.00000  Uiso   1.00
C178   C     0.02073   0.50487   0.34148   0.00000  Uiso   1.00
H179   H     0.06603   0.57284   0.06610   0.00000  Uiso   1.00
H180   H     0.17100   0.54220   0.28650   0.00000  Uiso   1.00
H181   H     0.26731   0.42716   0.43390   0.00000  Uiso   1.00
H182   H     0.00043   0.58768   0.49649   0.00000  Uiso   1.00
H183   H     0.33290   0.41233   0.00351   0.00000  Uiso   1.00
H184   H     0.15220   0.53795   0.09664   0.00000  Uiso   1.00
H185   H     0.18114   0.46206   0.40336   0.00000  Uiso   1.00
H186   H     0.06611   0.33681   0.24440   0.00000  Uiso   1.00
H187   H     0.26722   0.66319   0.25560   0.00000  Uiso   1.00
H188   H     0.16233   0.45780   0.21350   0.00000  Uiso   1.00
N189   N     0.14695   0.48550   0.23739   0.00000  Uiso   1.00
N190   N     0.18638   0.51450   0.26260   0.00000  Uiso   1.00
O191   O     0.29719   0.57964   0.25309   0.00000  Uiso   1.00
O192   O     0.03614   0.42036   0.24690   0.00000  Uiso   1.00
O193   O     0.05822   0.57035   0.24501   0.00000  Uiso   1.00
O194   O     0.27512   0.42965   0.25498   0.00000  Uiso   1.00
O195   O     0.30328   0.50730   0.32247   0.00000  Uiso   1.00
O196   O     0.03005   0.49270   0.17753   0.00000  Uiso   1.00
O197   O     0.06431   0.49801   0.31439   0.00000  Uiso   1.00
O198   O     0.26902   0.50199   0.18561   0.00000  Uiso   1.00
Zn199  Zn    0.27033   0.50621   0.25539   0.00000  Uiso   1.00
Zn200  Zn    0.06300   0.49379   0.24460   0.00000  Uiso   1.00
Br201  Br    0.58812   0.58749   0.10929   0.00000  Uiso   1.00
Br202  Br    0.41188   0.41252   0.39071   0.00000  Uiso   1.00
Br203  Br    0.38897   0.41051   0.10139   0.00000  Uiso   1.00
Br204  Br    0.61103   0.58949   0.39861   0.00000  Uiso   1.00
C205   C     0.34844   0.59826   0.24878   0.00000  Uiso   1.00
C206   C     0.64594   0.49513   0.15852   0.00000  Uiso   1.00
C207   C     0.36355   0.51175   0.39498   0.00000  Uiso   1.00
C208   C     0.63645   0.48825   0.10502   0.00000  Uiso   1.00
C209   C     0.35550   0.56030   0.47342   0.00000  Uiso   1.00
C210   C     0.64450   0.43970   0.02658   0.00000  Uiso   1.00
C211   C     0.33727   0.54985   0.42396   0.00000  Uiso   1.00
C212   C     0.66273   0.45015   0.07604   0.00000  Uiso   1.00
C213   C     0.40589   0.48402   0.41626   0.00000  Uiso   1.00
C214   C     0.59411   0.51598   0.08374   0.00000  Uiso   1.00
C215   C     0.43344   0.50405   0.46105   0.00000  Uiso   1.00
C216   C     0.65156   0.40174   0.25122   0.00000  Uiso   1.00
C217   C     0.56657   0.49596   0.03895   0.00000  Uiso   1.00
C218   C     0.40430   0.53867   0.49182   0.00000  Uiso   1.00
C219   C     0.59570   0.46134   0.00818   0.00000  Uiso   1.00
C220   C     0.48914   0.49202   0.47573   0.00000  Uiso   1.00
C221   C     0.51087   0.50798   0.02427   0.00000  Uiso   1.00
C222   C     0.47488   0.53241   0.05746   0.00000  Uiso   1.00
C223   C     0.52512   0.46760   0.44253   0.00000  Uiso   1.00
C224   C     0.42391   0.55045   0.04066   0.00000  Uiso   1.00
C225   C     0.57610   0.44956   0.45933   0.00000  Uiso   1.00
C226   C     0.35627   0.65286   0.24807   0.00000  Uiso   1.00
C227   C     0.64373   0.34714   0.25193   0.00000  Uiso   1.00
C228   C     0.35406   0.50487   0.34148   0.00000  Uiso   1.00
H229   H     0.39936   0.57284   0.06610   0.00000  Uiso   1.00
H230   H     0.50434   0.54220   0.28650   0.00000  Uiso   1.00
H231   H     0.60064   0.42716   0.43390   0.00000  Uiso   1.00
H232   H     0.33377   0.58768   0.49649   0.00000  Uiso   1.00
H233   H     0.66623   0.41233   0.00351   0.00000  Uiso   1.00
H234   H     0.48553   0.53795   0.09664   0.00000  Uiso   1.00
H235   H     0.51447   0.46206   0.40336   0.00000  Uiso   1.00
H236   H     0.39945   0.33681   0.24440   0.00000  Uiso   1.00
H237   H     0.60055   0.66319   0.25560   0.00000  Uiso   1.00
H238   H     0.49566   0.45780   0.21350   0.00000  Uiso   1.00
N239   N     0.48029   0.48550   0.23739   0.00000  Uiso   1.00
N240   N     0.51971   0.51450   0.26260   0.00000  Uiso   1.00
O241   O     0.63052   0.57964   0.25309   0.00000  Uiso   1.00
O242   O     0.36948   0.42036   0.24690   0.00000  Uiso   1.00
O243   O     0.39155   0.57035   0.24501   0.00000  Uiso   1.00
O244   O     0.60845   0.42965   0.25498   0.00000  Uiso   1.00
O245   O     0.63662   0.50730   0.32247   0.00000  Uiso   1.00
O246   O     0.36338   0.49270   0.17753   0.00000  Uiso   1.00
O247   O     0.39764   0.49801   0.31439   0.00000  Uiso   1.00
O248   O     0.60236   0.50199   0.18561   0.00000  Uiso   1.00
Zn249  Zn    0.60366   0.50621   0.25539   0.00000  Uiso   1.00
Zn250  Zn    0.39634   0.49379   0.24460   0.00000  Uiso   1.00
Br251  Br    0.92146   0.58749   0.10929   0.00000  Uiso   1.00
Br252  Br    0.74521   0.41252   0.39071   0.00000  Uiso   1.00
Br253  Br    0.72230   0.41051   0.10139   0.00000  Uiso   1.00
Br254  Br    0.94436   0.58949   0.39861   0.00000  Uiso   1.00
C255   C     0.68177   0.59826   0.24878   0.00000  Uiso   1.00
C256   C     0.97927   0.49513   0.15852   0.00000  Uiso   1.00
C257   C     0.69688   0.51175   0.39498   0.00000  Uiso   1.00
C258   C     0.96979   0.48825   0.10502   0.00000  Uiso   1.00
C259   C     0.68883   0.56030   0.47342   0.00000  Uiso   1.00
C260   C     0.97783   0.43970   0.02658   0.00000  Uiso   1.00
C261   C     0.67061   0.54985   0.42396   0.00000  Uiso   1.00
C262   C     0.99606   0.45015   0.07604   0.00000  Uiso   1.00
C263   C     0.73922   0.48402   0.41626   0.00000  Uiso   1.00
C264   C     0.92745   0.51598   0.08374   0.00000  Uiso   1.00
C265   C     0.76677   0.50405   0.46105   0.00000  Uiso   1.00
C266   C     0.98490   0.40174   0.25122   0.00000  Uiso   1.00
C267   C     0.89990   0.49596   0.03895   0.00000  Uiso   1.00
C268   C     0.73763   0.53867   0.49182   0.00000  Uiso   1.00
C269   C     0.92904   0.46134   0.00818   0.00000  Uiso   1.00
C270   C     0.82247   0.49202   0.47573   0.00000  Uiso   1.00
C271   C     0.84420   0.50798   0.02427   0.00000  Uiso   1.00
C272   C     0.80821   0.53241   0.05746   0.00000  Uiso   1.00
C273   C     0.85846   0.46760   0.44253   0.00000  Uiso   1.00
C274   C     0.75724   0.55045   0.04066   0.00000  Uiso   1.00
C275   C     0.90943   0.44956   0.45933   0.00000  Uiso   1.00
C276   C     0.68961   0.65286   0.24807   0.00000  Uiso   1.00
C277   C     0.97706   0.34714   0.25193   0.00000  Uiso   1.00
C278   C     0.68740   0.50487   0.34148   0.00000  Uiso   1.00
H279   H     0.73270   0.57284   0.06610   0.00000  Uiso   1.00
H280   H     0.83767   0.54220   0.28650   0.00000  Uiso   1.00
H281   H     0.93397   0.42716   0.43390   0.00000  Uiso   1.00
H282   H     0.66710   0.58768   0.49649   0.00000  Uiso   1.00
H283   H     0.99957   0.41233   0.00351   0.00000  Uiso   1.00
H284   H     0.81886   0.53795   0.09664   0.00000  Uiso   1.00
H285   H     0.84780   0.46206   0.40336   0.00000  Uiso   1.00
H286   H     0.73278   0.33681   0.24440   0.00000  Uiso   1.00
H287   H     0.93389   0.66319   0.25560   0.00000  Uiso   1.00
H288   H     0.82900   0.45780   0.21350   0.00000  Uiso   1.00
N289   N     0.81362   0.48550   0.23739   0.00000  Uiso   1.00
N290   N     0.85305   0.51450   0.26260   0.00000  Uiso   1.00
O291   O     0.96386   0.57964   0.25309   0.00000  Uiso   1.00
O292   O     0.70281   0.42036   0.24690   0.00000  Uiso   1.00
O293   O     0.72488   0.57035   0.24501   0.00000  Uiso   1.00
O294   O     0.94178   0.42965   0.25498   0.00000  Uiso   1.00
O295   O     0.96995   0.50730   0.32247   0.00000  Uiso   1.00
O296   O     0.69672   0.49270   0.17753   0.00000  Uiso   1.00
O297   O     0.73098   0.49801   0.31439   0.00000  Uiso   1.00
O298   O     0.93569   0.50199   0.18561   0.00000  Uiso   1.00
Zn299  Zn    0.93700   0.50621   0.25539   0.00000  Uiso   1.00
Zn300  Zn    0.72967   0.49379   0.24460   0.00000  Uiso   1.00
Br301  Br    0.25479   0.92082   0.10929   0.00000  Uiso   1.00
Br302  Br    0.07855   0.74585   0.39071   0.00000  Uiso   1.00
Br303  Br    0.05564   0.74384   0.10139   0.00000  Uiso   1.00
Br304  Br    0.27770   0.92282   0.39861   0.00000  Uiso   1.00
C305   C     0.01510   0.93159   0.24878   0.00000  Uiso   1.00
C306   C     0.31260   0.82847   0.15852   0.00000  Uiso   1.00
C307   C     0.03021   0.84508   0.39498   0.00000  Uiso   1.00
C308   C     0.30312   0.82158   0.10502   0.00000  Uiso   1.00
C309   C     0.02217   0.89364   0.47342   0.00000  Uiso   1.00
C310   C     0.31117   0.77303   0.02658   0.00000  Uiso   1.00
C311   C     0.00394   0.88319   0.42396   0.00000  Uiso   1.00
C312   C     0.32939   0.78348   0.07604   0.00000  Uiso   1.00
C313   C     0.07256   0.81736   0.41626   0.00000  Uiso   1.00
C314   C     0.26078   0.84931   0.08374   0.00000  Uiso   1.00
C315   C     0.10010   0.83738   0.46105   0.00000  Uiso   1.00
C316   C     0.31823   0.73508   0.25122   0.00000  Uiso   1.00
C317   C     0.23323   0.82929   0.03895   0.00000  Uiso   1.00
C318   C     0.07097   0.87200   0.49182   0.00000  Uiso   1.00
C319   C     0.26237   0.79467   0.00818   0.00000  Uiso   1.00
C320   C     0.15580   0.82536   0.47573   0.00000  Uiso   1.00
C321   C     0.17753   0.84131   0.02427   0.00000  Uiso   1.00
C322   C     0.14155   0.86574   0.05746   0.00000  Uiso   1.00
C323   C     0.19179   0.80093   0.44253   0.00000  Uiso   1.00
C324   C     0.09057   0.88378   0.04066   0.00000  Uiso   1.00
C325   C     0.24276   0.78289   0.45933   0.00000  Uiso   1.00
C326   C     0.02294   0.98620   0.24807   0.00000  Uiso   1.00
C327   C     0.31039   0.68047   0.25193   0.00000  Uiso   1.00
C328   C     0.02073   0.83820   0.34148   0.00000  Uiso   1.00
H329   H     0.06603   0.90618   0.06610   0.00000  Uiso   1.00
H330   H     0.17100   0.87553   0.28650   0.00000  Uiso   1.00
H331   H     0.26731   0.76050   0.43390   0.00000  Uiso   1.00
H332   H     0.00043   0.92101   0.49649   0.00000  Uiso   1.00
H333   H     0.33290   0.74566   0.00351   0.00000  Uiso   1.00
H334   H     0.15220   0.87128   0.09664   0.00000  Uiso   1.00
H335   H     0.18114   0.79539   0.40336   0.00000  Uiso   1.00
H336   H     0.06611   0.67015   0.24440   0.00000  Uiso   1.00
H337   H     0.26722   0.99652   0.25560   0.00000  Uiso   1.00
H338   H     0.16233   0.79113   0.21350   0.00000  Uiso   1.00
N339   N     0.14695   0.81883   0.23739   0.00000  Uiso   1.00
N340   N     0.18638   0.84784   0.26260   0.00000  Uiso   1.00
O341   O     0.29719   0.91298   0.25309   0.00000  Uiso   1.00
O342   O     0.03614   0.75369   0.24690   0.00000  Uiso   1.00
O343   O     0.05822   0.90368   0.24501   0.00000  Uiso   1.00
O344   O     0.27512   0.76298   0.25498   0.00000  Uiso   1.00
O345   O     0.30328   0.84063   0.32247   0.00000  Uiso   1.00
O346   O     0.03005   0.82603   0.17753   0.00000  Uiso   1.00
O347   O     0.06431   0.83134   0.31439   0.00000  Uiso   1.00
O348   O     0.26902   0.83533   0.18561   0.00000  Uiso   1.00
Zn349  Zn    0.27033   0.83954   0.25539   0.00000  Uiso   1.00
Zn350  Zn    0.06300   0.82713   0.24460   0.00000  Uiso   1.00
Br351  Br    0.58812   0.92082   0.10929   0.00000  Uiso   1.00
Br352  Br    0.41188   0.74585   0.39071   0.00000  Uiso   1.00
Br353  Br    0.38897   0.74384   0.10139   0.00000  Uiso   1.00
Br354  Br    0.61103   0.92282   0.39861   0.00000  Uiso   1.00
C355   C     0.34844   0.93159   0.24878   0.00000  Uiso   1.00
C356   C     0.64594   0.82847   0.15852   0.00000  Uiso   1.00
C357   C     0.36355   0.84508   0.39498   0.00000  Uiso   1.00
C358   C     0.63645   0.82158   0.10502   0.00000  Uiso   1.00
C359   C     0.35550   0.89364   0.47342   0.00000  Uiso   1.00
C360   C     0.64450   0.77303   0.02658   0.00000  Uiso   1.00
C361   C     0.33727   0.88319   0.42396   0.00000  Uiso   1.00
C362   C     0.66273   0.78348   0.07604   0.00000  Uiso   1.00
C363   C     0.40589   0.81736   0.41626   0.00000  Uiso   1.00
C364   C     0.59411   0.84931   0.08374   0.00000  Uiso   1.00
C365   C     0.43344   0.83738   0.46105   0.00000  Uiso   1.00
C366   C     0.65156   0.73508   0.25122   0.00000  Uiso   1.00
C367   C     0.56657   0.82929   0.03895   0.00000  Uiso   1.00
C368   C     0.40430   0.87200   0.49182   0.00000  Uiso   1.00
C369   C     0.59570   0.79467   0.00818   0.00000  Uiso   1.00
C370   C     0.48914   0.82536   0.47573   0.00000  Uiso   1.00
C371   C     0.51087   0.84131   0.02427   0.00000  Uiso   1.00
C372   C     0.47488   0.86574   0.05746   0.00000  Uiso   1.00
C373   C     0.52512   0.80093   0.44253   0.00000  Uiso   1.00
C374   C     0.42391   0.88378   0.04066   0.00000  Uiso   1.00
C375   C     0.57610   0.78289   0.45933   0.00000  Uiso   1.00
C376   C     0.35627   0.98620   0.24807   0.00000  Uiso   1.00
C377   C     0.64373   0.68047   0.25193   0.00000  Uiso   1.00
C378   C     0.35406   0.83820   0.34148   0.00000  Uiso   1.00
H379   H     0.39936   0.90618   0.06610   0.00000  Uiso   1.00
H380   H     0.50434   0.87553   0.28650   0.00000  Uiso   1.00
H381   H     0.60064   0.76050   0.43390   0.00000  Uiso   1.00
H382   H     0.33377   0.92101   0.49649   0.00000  Uiso   1.00
H383   H     0.66623   0.74566   0.00351   0.00000  Uiso   1.00
H384   H     0.48553   0.87128   0.09664   0.00000  Uiso   1.00
H385   H     0.51447   0.79539   0.40336   0.00000  Uiso   1.00
H386   H     0.39945   0.67015   0.24440   0.00000  Uiso   1.00
H387   H     0.60055   0.99652   0.25560   0.00000  Uiso   1.00
H388   H     0.49566   0.79113   0.21350   0.00000  Uiso   1.00
N389   N     0.48029   0.81883   0.23739   0.00000  Uiso   1.00
N390   N     0.51971   0.84784   0.26260   0.00000  Uiso   1.00
O391   O     0.63052   0.91298   0.25309   0.00000  Uiso   1.00
O392   O     0.36948   0.75369   0.24690   0.00000  Uiso   1.00
O393   O     0.39155   0.90368   0.24501   0.00000  Uiso   1.00
O394   O     0.60845   0.76298   0.25498   0.00000  Uiso   1.00
O395   O     0.63662   0.84063   0.32247   0.00000  Uiso   1.00
O396   O     0.36338   0.82603   0.17753   0.00000  Uiso   1.00
O397   O     0.39764   0.83134   0.31439   0.00000  Uiso   1.00
O398   O     0.60236   0.83533   0.18561   0.00000  Uiso   1.00
Zn399  Zn    0.60366   0.83954   0.25539   0.00000  Uiso   1.00
Zn400  Zn    0.39634   0.82713   0.24460   0.00000  Uiso   1.00
Br401  Br    0.92146   0.92082   0.10929   0.00000  Uiso   1.00
Br402  Br    0.74521   0.74585   0.39071   0.00000  Uiso   1.00
Br403  Br    0.72230   0.74384   0.10139   0.00000  Uiso   1.00
Br404  Br    0.94436   0.92282   0.39861   0.00000  Uiso   1.00
C405   C     0.68177   0.93159   0.24878   0.00000  Uiso   1.00
C406   C     0.97927   0.82847   0.15852   0.00000  Uiso   1.00
C407   C     0.69688   0.84508   0.39498   0.00000  Uiso   1.00
C408   C     0.96979   0.82158   0.10502   0.00000  Uiso   1.00
C409   C     0.68883   0.89364   0.47342   0.00000  Uiso   1.00
C410   C     0.97783   0.77303   0.02658   0.00000  Uiso   1.00
C411   C     0.67061   0.88319   0.42396   0.00000  Uiso   1.00
C412   C     0.99606   0.78348   0.07604   0.00000  Uiso   1.00
C413   C     0.73922   0.81736   0.41626   0.00000  Uiso   1.00
C414   C     0.92745   0.84931   0.08374   0.00000  Uiso   1.00
C415   C     0.76677   0.83738   0.46105   0.00000  Uiso   1.00
C416   C     0.98490   0.73508   0.25122   0.00000  Uiso   1.00
C417   C     0.89990   0.82929   0.03895   0.00000  Uiso   1.00
C418   C     0.73763   0.87200   0.49182   0.00000  Uiso   1.00
C419   C     0.92904   0.79467   0.00818   0.00000  Uiso   1.00
C420   C     0.82247   0.82536   0.47573   0.00000  Uiso   1.00
C421   C     0.84420   0.84131   0.02427   0.00000  Uiso   1.00
C422   C     0.80821   0.86574   0.05746   0.00000  Uiso   1.00
C423   C     0.85846   0.80093   0.44253   0.00000  Uiso   1.00
C424   C     0.75724   0.88378   0.04066   0.00000  Uiso   1.00
C425   C     0.90943   0.78289   0.45933   0.00000  Uiso   1.00
C426   C     0.68961   0.98620   0.24807   0.00000  Uiso   1.00
C427   C     0.97706   0.68047   0.25193   0.00000  Uiso   1.00
C428   C     0.68740   0.83820   0.34148   0.00000  Uiso   1.00
H429   H     0.73270   0.90618   0.06610   0.00000  Uiso   1.00
H430   H     0.83767   0.87553   0.28650   0.00000  Uiso   1.00
H431   H     0.93397   0.76050   0.43390   0.00000  Uiso   1.00
H432   H     0.66710   0.92101   0.49649   0.00000  Uiso   1.00
H433   H     0.99957   0.74566   0.00351   0.00000  Uiso   1.00
H434   H     0.81886   0.87128   0.09664   0.00000  Uiso   1.00
H435   H     0.84780   0.79539   0.40336   0.00000  Uiso   1.00
H436   H     0.73278   0.67015   0.24440   0.00000  Uiso   1.00
H437   H     0.93389   0.99652   0.25560   0.00000  Uiso   1.00
H438   H     0.82900   0.79113   0.21350   0.00000  Uiso   1.00
N439   N     0.81362   0.81883   0.23739   0.00000  Uiso   1.00
N440   N     0.85305   0.84784   0.26260   0.00000  Uiso   1.00
O441   O     0.96386   0.91298   0.25309   0.00000  Uiso   1.00
O442   O     0.70281   0.75369   0.24690   0.00000  Uiso   1.00
O443   O     0.72488   0.90368   0.24501   0.00000  Uiso   1.00
O444   O     0.94178   0.76298   0.25498   0.00000  Uiso   1.00
O445   O     0.96995   0.84063   0.32247   0.00000  Uiso   1.00
O446   O     0.69672   0.82603   0.17753   0.00000  Uiso   1.00
O447   O     0.73098   0.83134   0.31439   0.00000  Uiso   1.00
O448   O     0.93569   0.83533   0.18561   0.00000  Uiso   1.00
Zn449  Zn    0.93700   0.83954   0.25539   0.00000  Uiso   1.00
Zn450  Zn    0.72967   0.82713   0.24460   0.00000  Uiso   1.00
Br451  Br    0.25479   0.25415   0.60929   0.00000  Uiso   1.00
Br452  Br    0.07855   0.07918   0.89071   0.00000  Uiso   1.00
Br453  Br    0.05564   0.07717   0.60139   0.00000  Uiso   1.00
Br454  Br    0.27770   0.25616   0.89861   0.00000  Uiso   1.00
C455   C     0.01510   0.26492   0.74878   0.00000  Uiso   1.00
C456   C     0.31260   0.16180   0.65852   0.00000  Uiso   1.00
C457   C     0.03021   0.17842   0.89498   0.00000  Uiso   1.00
C458   C     0.30312   0.15492   0.60502   0.00000  Uiso   1.00
C459   C     0.02217   0.22697   0.97342   0.00000  Uiso   1.00
C460   C     0.31117   0.10637   0.52658   0.00000  Uiso   1.00
C461   C     0.00394   0.21652   0.92396   0.00000  Uiso   1.00
C462   C     0.32939   0.11681   0.57604   0.00000  Uiso   1.00
C463   C     0.07256   0.15069   0.91626   0.00000  Uiso   1.00
C464   C     0.26078   0.18265   0.58374   0.00000  Uiso   1.00
C465   C     0.10010   0.17071   0.96105   0.00000  Uiso   1.00
C466   C     0.31823   0.06841   0.75122   0.00000  Uiso   1.00
C467   C     0.23323   0.16262   0.53895   0.00000  Uiso   1.00
C468   C     0.07097   0.20533   0.99182   0.00000  Uiso   1.00
C469   C     0.26237   0.12800   0.50818   0.00000  Uiso   1.00
C470   C     0.15580   0.15869   0.97573   0.00000  Uiso   1.00
C471   C     0.17753   0.17465   0.52427   0.00000  Uiso   1.00
C472   C     0.14155   0.19907   0.55746   0.00000  Uiso   1.00
C473   C     0.19179   0.13427   0.94253   0.00000  Uiso   1.00
C474   C     0.09057   0.21711   0.54066   0.00000  Uiso   1.00
C475   C     0.24276   0.11623   0.95933   0.00000  Uiso   1.00
C476   C     0.02294   0.31953   0.74807   0.00000  Uiso   1.00
C477   C     0.31039   0.01380   0.75193   0.00000  Uiso   1.00
C478   C     0.02073   0.17153   0.84148   0.00000  Uiso   1.00
H479   H     0.06603   0.23951   0.56610   0.00000  Uiso   1.00
H480   H     0.17100   0.20887   0.78650   0.00000  Uiso   1.00
H481   H     0.26731   0.09383   0.93390   0.00000  Uiso   1.00
H482   H     0.00043   0.25434   0.99649   0.00000  Uiso   1.00
H483   H     0.33290   0.07899   0.50351   0.00000  Uiso   1.00
H484   H     0.15220   0.20461   0.59664   0.00000  Uiso   1.00
H485   H     0.18114   0.12873   0.90336   0.00000  Uiso   1.00
H486   H     0.06611   0.00348   0.74440   0.00000  Uiso   1.00
H487   H     0.26722   0.32985   0.75560   0.00000  Uiso   1.00
H488   H     0.16233   0.12447   0.71350   0.00000  Uiso   1.00
N489   N     0.14695   0.15216   0.73739   0.00000  Uiso   1.00
N490   N     0.18638   0.18117   0.76260   0.00000  Uiso   1.00
O491   O     0.29719   0.24631   0.75309   0.00000  Uiso   1.00
O492   O     0.03614   0.08702   0.74690   0.00000  Uiso   1.00
O493   O     0.05822   0.23702   0.74501   0.00000  Uiso   1.00
O494   O     0.27512   0.09632   0.75498   0.00000  Uiso   1.00
O495   O     0.30328   0.17397   0.82247   0.00000  Uiso   1.00
O496   O     0.03005   0.15937   0.67753   0.00000  Uiso   1.00
O497   O     0.06431   0.16467   0.81439   0.00000  Uiso   1.00
O498   O     0.26902   0.16866   0.68561   0.00000  Uiso   1.00
Zn499  Zn    0.27033   0.17287   0.75539   0.00000  Uiso   1.00
Zn500  Zn    0.06300   0.16046   0.74460   0.00000  Uiso   1.00
Br501  Br    0.58812   0.25415   0.60929   0.00000  Uiso   1.00
Br502  Br    0.41188   0.07918   0.89071   0.00000  Uiso   1.00
Br503  Br    0.38897   0.07717   0.60139   0.00000  Uiso   1.00
Br504  Br    0.61103   0.25616   0.89861   0.00000  Uiso   1.00
C505   C     0.34844   0.26492   0.74878   0.00000  Uiso   1.00
C506   C     0.64594   0.16180   0.65852   0.00000  Uiso   1.00
C507   C     0.36355   0.17842   0.89498   0.00000  Uiso   1.00
C508   C     0.63645   0.15492   0.60502   0.00000  Uiso   1.00
C509   C     0.35550   0.22697   0.97342   0.00000  Uiso   1.00
C510   C     0.64450   0.10637   0.52658   0.00000  Uiso   1.00
C511   C     0.33727   0.21652   0.92396   0.00000  Uiso   1.00
C512   C     0.66273   0.11681   0.57604   0.00000  Uiso   1.00
C513   C     0.40589   0.15069   0.91626   0.00000  Uiso   1.00
C514   C     0.59411   0.18265   0.58374   0.00000  Uiso   1.00
C515   C     0.43344   0.17071   0.96105   0.00000  Uiso   1.00
C516   C     0.65156   0.06841   0.75122   0.00000  Uiso   1.00
C517   C     0.56657   0.16262   0.53895   0.00000  Uiso   1.00
C518   C     0.40430   0.20533   0.99182   0.00000  Uiso   1.00
C519   C     0.59570   0.12800   0.50818   0.00000  Uiso   1.00
C520   C     0.48914   0.15869   0.97573   0.00000  Uiso   1.00
C521   C     0.51087   0.17465   0.52427   0.00000  Uiso   1.00
C522   C     0.47488   0.19907   0.55746   0.00000  Uiso   1.00
C523   C     0.52512   0.13427   0.94253   0.00000  Uiso   1.00
C524   C     0.42391   0.21711   0.54066   0.00000  Uiso   1.00
C525   C     0.57610   0.11623   0.95933   0.00000  Uiso   1.00
C526   C     0.35627   0.31953   0.74807   0.00000  Uiso   1.00
C527   C     0.64373   0.01380   0.75193   0.00000  Uiso   1.00
C528   C     0.35406   0.17153   0.84148   0.00000  Uiso   1.00
H529   H     0.39936   0.23951   0.56610   0.00000  Uiso   1.00
H530   H     0.50434   0.20887   0.78650   0.00000  Uiso   1.00
H531   H     0.60064   0.09383   0.93390   0.00000  Uiso   1.00
H532   H     0.33377   0.25434   0.99649   0.00000  Uiso   1.00
H533   H     0.66623   0.07899   0.50351   0.00000  Uiso   1.00
H534   H     0.48553   0.20461   0.59664   0.00000  Uiso   1.00
H535   H     0.51447   0.12873   0.90336   0.00000  Uiso   1.00
H536   H     0.39945   0.00348   0.74440   0.00000  Uiso   1.00
H537   H     0.60055   0.32985   0.75560   0.00000  Uiso   1.00
H538   H     0.49566   0.12447   0.71350   0.00000  Uiso   1.00
N539   N     0.48029   0.15216   0.73739   0.00000  Uiso   1.00
N540   N     0.51971   0.18117   0.76260   0.00000  Uiso   1.00
O541   O     0.63052   0.24631   0.75309   0.00000  Uiso   1.00
O542   O     0.36948   0.08702   0.74690   0.00000  Uiso   1.00
O543   O     0.39155   0.23702   0.74501   0.00000  Uiso   1.00
O544   O     0.60845   0.09632   0.75498   0.00000  Uiso   1.00
O545   O     0.63662   0.17397   0.82247   0.00000  Uiso   1.00
O546   O     0.36338   0.15937   0.67753   0.00000  Uiso   1.00
O547   O     0.39764   0.16467   0.81439   0.00000  Uiso   1.00
O548   O     0.60236   0.16866   0.68561   0.00000  Uiso   1.00
Zn549  Zn    0.60366   0.17287   0.75539   0.00000  Uiso   1.00
Zn550  Zn    0.39634   0.16046   0.74460   0.00000  Uiso   1.00
Br551  Br    0.92146   0.25415   0.60929   0.00000  Uiso   1.00
Br552  Br    0.74521   0.07918   0.89071   0.00000  Uiso   1.00
Br553  Br    0.72230   0.07717   0.60139   0.00000  Uiso   1.00
Br554  Br    0.94436   0.25616   0.89861   0.00000  Uiso   1.00
C555   C     0.68177   0.26492   0.74878   0.00000  Uiso   1.00
C556   C     0.97927   0.16180   0.65852   0.00000  Uiso   1.00
C557   C     0.69688   0.17842   0.89498   0.00000  Uiso   1.00
C558   C     0.96979   0.15492   0.60502   0.00000  Uiso   1.00
C559   C     0.68883   0.22697   0.97342   0.00000  Uiso   1.00
C560   C     0.97783   0.10637   0.52658   0.00000  Uiso   1.00
C561   C     0.67061   0.21652   0.92396   0.00000  Uiso   1.00
C562   C     0.99606   0.11681   0.57604   0.00000  Uiso   1.00
C563   C     0.73922   0.15069   0.91626   0.00000  Uiso   1.00
C564   C     0.92745   0.18265   0.58374   0.00000  Uiso   1.00
C565   C     0.76677   0.17071   0.96105   0.00000  Uiso   1.00
C566   C     0.98490   0.06841   0.75122   0.00000  Uiso   1.00
C567   C     0.89990   0.16262   0.53895   0.00000  Uiso   1.00
C568   C     0.73763   0.20533   0.99182   0.00000  Uiso   1.00
C569   C     0.92904   0.12800   0.50818   0.00000  Uiso   1.00
C570   C     0.82247   0.15869   0.97573   0.00000  Uiso   1.00
C571   C     0.84420   0.17465   0.52427   0.00000  Uiso   1.00
C572   C     0.80821   0.19907   0.55746   0.00000  Uiso   1.00
C573   C     0.85846   0.13427   0.94253   0.00000  Uiso   1.00
C574   C     0.75724   0.21711   0.54066   0.00000  Uiso   1.00
C575   C     0.90943   0.11623   0.95933   0.00000  Uiso   1.00
C576   C     0.68961   0.31953   0.74807   0.00000  Uiso   1.00
C577   C     0.97706   0.01380   0.75193   0.00000  Uiso   1.00
C578   C     0.68740   0.17153   0.84148   0.00000  Uiso   1.00
H579   H     0.73270   0.23951   0.56610   0.00000  Uiso   1.00
H580   H     0.83767   0.20887   0.78650   0.00000  Uiso   1.00
H581   H     0.93397   0.09383   0.93390   0.00000  Uiso   1.00
H582   H     0.66710   0.25434   0.99649   0.00000  Uiso   1.00
H583   H     0.99957   0.07899   0.50351   0.00000  Uiso   1.00
H584   H     0.81886   0.20461   0.59664   0.00000  Uiso   1.00
H585   H     0.84780   0.12873   0.90336   0.00000  Uiso   1.00
H586   H     0.73278   0.00348   0.74440   0.00000  Uiso   1.00
H587   H     0.93389   0.32985   0.75560   0.00000  Uiso   1.00
H588   H     0.82900   0.12447   0.71350   0.00000  Uiso   1.00
N589   N     0.81362   0.15216   0.73739   0.00000  Uiso   1.00
N590   N     0.85305   0.18117   0.76260   0.00000  Uiso   1.00
O591   O     0.96386   0.24631   0.75309   0.00000  Uiso   1.00
O592   O     0.70281   0.08702   0.74690   0.00000  Uiso   1.00
O593   O     0.72488   0.23702   0.74501   0.00000  Uiso   1.00
O594   O     0.94178   0.09632   0.75498   0.00000  Uiso   1.00
O595   O     0.96995   0.17397   0.82247   0.00000  Uiso   1.00
O596   O     0.69672   0.15937   0.67753   0.00000  Uiso   1.00
O597   O     0.73098   0.16467   0.81439   0.00000  Uiso   1.00
O598   O     0.93569   0.16866   0.68561   0.00000  Uiso   1.00
Zn599  Zn    0.93700   0.17287   0.75539   0.00000  Uiso   1.00
Zn600  Zn    0.72967   0.16046   0.74460   0.00000  Uiso   1.00
Br601  Br    0.25479   0.58749   0.60929   0.00000  Uiso   1.00
Br602  Br    0.07855   0.41252   0.89071   0.00000  Uiso   1.00
Br603  Br    0.05564   0.41051   0.60139   0.00000  Uiso   1.00
Br604  Br    0.27770   0.58949   0.89861   0.00000  Uiso   1.00
C605   C     0.01510   0.59826   0.74878   0.00000  Uiso   1.00
C606   C     0.31260   0.49513   0.65852   0.00000  Uiso   1.00
C607   C     0.03021   0.51175   0.89498   0.00000  Uiso   1.00
C608   C     0.30312   0.48825   0.60502   0.00000  Uiso   1.00
C609   C     0.02217   0.56030   0.97342   0.00000  Uiso   1.00
C610   C     0.31117   0.43970   0.52658   0.00000  Uiso   1.00
C611   C     0.00394   0.54985   0.92396   0.00000  Uiso   1.00
C612   C     0.32939   0.45015   0.57604   0.00000  Uiso   1.00
C613   C     0.07256   0.48402   0.91626   0.00000  Uiso   1.00
C614   C     0.26078   0.51598   0.58374   0.00000  Uiso   1.00
C615   C     0.10010   0.50405   0.96105   0.00000  Uiso   1.00
C616   C     0.31823   0.40174   0.75122   0.00000  Uiso   1.00
C617   C     0.23323   0.49596   0.53895   0.00000  Uiso   1.00
C618   C     0.07097   0.53867   0.99182   0.00000  Uiso   1.00
C619   C     0.26237   0.46134   0.50818   0.00000  Uiso   1.00
C620   C     0.15580   0.49202   0.97573   0.00000  Uiso   1.00
C621   C     0.17753   0.50798   0.52427   0.00000  Uiso   1.00
C622   C     0.14155   0.53241   0.55746   0.00000  Uiso   1.00
C623   C     0.19179   0.46760   0.94253   0.00000  Uiso   1.00
C624   C     0.09057   0.55045   0.54066   0.00000  Uiso   1.00
C625   C     0.24276   0.44956   0.95933   0.00000  Uiso   1.00
C626   C     0.02294   0.65286   0.74807   0.00000  Uiso   1.00
C627   C     0.31039   0.34714   0.75193   0.00000  Uiso   1.00
C628   C     0.02073   0.50487   0.84148   0.00000  Uiso   1.00
H629   H     0.06603   0.57284   0.56610   0.00000  Uiso   1.00
H630   H     0.17100   0.54220   0.78650   0.00000  Uiso   1.00
H631   H     0.26731   0.42716   0.93390   0.00000  Uiso   1.00
H632   H     0.00043   0.58768   0.99649   0.00000  Uiso   1.00
H633   H     0.33290   0.41233   0.50351   0.00000  Uiso   1.00
H634   H     0.15220   0.53795   0.59664   0.00000  Uiso   1.00
H635   H     0.18114   0.46206   0.90336   0.00000  Uiso   1.00
H636   H     0.06611   0.33681   0.74440   0.00000  Uiso   1.00
H637   H     0.26722   0.66319   0.75560   0.00000  Uiso   1.00
H638   H     0.16233   0.45780   0.71350   0.00000  Uiso   1.00
N639   N     0.14695   0.48550   0.73739   0.00000  Uiso   1.00
N640   N     0.18638   0.51450   0.76260   0.00000  Uiso   1.00
O641   O     0.29719   0.57964   0.75309   0.00000  Uiso   1.00
O642   O     0.03614   0.42036   0.74690   0.00000  Uiso   1.00
O643   O     0.05822   0.57035   0.74501   0.00000  Uiso   1.00
O644   O     0.27512   0.42965   0.75498   0.00000  Uiso   1.00
O645   O     0.30328   0.50730   0.82247   0.00000  Uiso   1.00
O646   O     0.03005   0.49270   0.67753   0.00000  Uiso   1.00
O647   O     0.06431   0.49801   0.81439   0.00000  Uiso   1.00
O648   O     0.26902   0.50199   0.68561   0.00000  Uiso   1.00
Zn649  Zn    0.27033   0.50621   0.75539   0.00000  Uiso   1.00
Zn650  Zn    0.06300   0.49379   0.74460   0.00000  Uiso   1.00
Br651  Br    0.58812   0.58749   0.60929   0.00000  Uiso   1.00
Br652  Br    0.41188   0.41252   0.89071   0.00000  Uiso   1.00
Br653  Br    0.38897   0.41051   0.60139   0.00000  Uiso   1.00
Br654  Br    0.61103   0.58949   0.89861   0.00000  Uiso   1.00
C655   C     0.34844   0.59826   0.74878   0.00000  Uiso   1.00
C656   C     0.64594   0.49513   0.65852   0.00000  Uiso   1.00
C657   C     0.36355   0.51175   0.89498   0.00000  Uiso   1.00
C658   C     0.63645   0.48825   0.60502   0.00000  Uiso   1.00
C659   C     0.35550   0.56030   0.97342   0.00000  Uiso   1.00
C660   C     0.64450   0.43970   0.52658   0.00000  Uiso   1.00
C661   C     0.33727   0.54985   0.92396   0.00000  Uiso   1.00
C662   C     0.66273   0.45015   0.57604   0.00000  Uiso   1.00
C663   C     0.40589   0.48402   0.91626   0.00000  Uiso   1.00
C664   C     0.59411   0.51598   0.58374   0.00000  Uiso   1.00
C665   C     0.43344   0.50405   0.96105   0.00000  Uiso   1.00
C666   C     0.65156   0.40174   0.75122   0.00000  Uiso   1.00
C667   C     0.56657   0.49596   0.53895   0.00000  Uiso   1.00
C668   C     0.40430   0.53867   0.99182   0.00000  Uiso   1.00
C669   C     0.59570   0.46134   0.50818   0.00000  Uiso   1.00
C670   C     0.48914   0.49202   0.97573   0.00000  Uiso   1.00
C671   C     0.51087   0.50798   0.52427   0.00000  Uiso   1.00
C672   C     0.47488   0.53241   0.55746   0.00000  Uiso   1.00
C673   C     0.52512   0.46760   0.94253   0.00000  Uiso   1.00
C674   C     0.42391   0.55045   0.54066   0.00000  Uiso   1.00
C675   C     0.57610   0.44956   0.95933   0.00000  Uiso   1.00
C676   C     0.35627   0.65286   0.74807   0.00000  Uiso   1.00
C677   C     0.64373   0.34714   0.75193   0.00000  Uiso   1.00
C678   C     0.35406   0.50487   0.84148   0.00000  Uiso   1.00
H679   H     0.39936   0.57284   0.56610   0.00000  Uiso   1.00
H680   H     0.50434   0.54220   0.78650   0.00000  Uiso   1.00
H681   H     0.60064   0.42716   0.93390   0.00000  Uiso   1.00
H682   H     0.33377   0.58768   0.99649   0.00000  Uiso   1.00
H683   H     0.66623   0.41233   0.50351   0.00000  Uiso   1.00
H684   H     0.48553   0.53795   0.59664   0.00000  Uiso   1.00
H685   H     0.51447   0.46206   0.90336   0.00000  Uiso   1.00
H686   H     0.39945   0.33681   0.74440   0.00000  Uiso   1.00
H687   H     0.60055   0.66319   0.75560   0.00000  Uiso   1.00
H688   H     0.49566   0.45780   0.71350   0.00000  Uiso   1.00
N689   N     0.48029   0.48550   0.73739   0.00000  Uiso   1.00
N690   N     0.51971   0.51450   0.76260   0.00000  Uiso   1.00
O691   O     0.63052   0.57964   0.75309   0.00000  Uiso   1.00
O692   O     0.36948   0.42036   0.74690   0.00000  Uiso   1.00
O693   O     0.39155   0.57035   0.74501   0.00000  Uiso   1.00
O694   O     0.60845   0.42965   0.75498   0.00000  Uiso   1.00
O695   O     0.63662   0.50730   0.82247   0.00000  Uiso   1.00
O696   O     0.36338   0.49270   0.67753   0.00000  Uiso   1.00
O697   O     0.39764   0.49801   0.81439   0.00000  Uiso   1.00
O698   O     0.60236   0.50199   0.68561   0.00000  Uiso   1.00
Zn699  Zn    0.60366   0.50621   0.75539   0.00000  Uiso   1.00
Zn700  Zn    0.39634   0.49379   0.74460   0.00000  Uiso   1.00
Br701  Br    0.92146   0.58749   0.60929   0.00000  Uiso   1.00
Br702  Br    0.74521   0.41252   0.89071   0.00000  Uiso   1.00
Br703  Br    0.72230   0.41051   0.60139   0.00000  Uiso   1.00
Br704  Br    0.94436   0.58949   0.89861   0.00000  Uiso   1.00
C705   C     0.68177   0.59826   0.74878   0.00000  Uiso   1.00
C706   C     0.97927   0.49513   0.65852   0.00000  Uiso   1.00
C707   C     0.69688   0.51175   0.89498   0.00000  Uiso   1.00
C708   C     0.96979   0.48825   0.60502   0.00000  Uiso   1.00
C709   C     0.68883   0.56030   0.97342   0.00000  Uiso   1.00
C710   C     0.97783   0.43970   0.52658   0.00000  Uiso   1.00
C711   C     0.67061   0.54985   0.92396   0.00000  Uiso   1.00
C712   C     0.99606   0.45015   0.57604   0.00000  Uiso   1.00
C713   C     0.73922   0.48402   0.91626   0.00000  Uiso   1.00
C714   C     0.92745   0.51598   0.58374   0.00000  Uiso   1.00
C715   C     0.76677   0.50405   0.96105   0.00000  Uiso   1.00
C716   C     0.98490   0.40174   0.75122   0.00000  Uiso   1.00
C717   C     0.89990   0.49596   0.53895   0.00000  Uiso   1.00
C718   C     0.73763   0.53867   0.99182   0.00000  Uiso   1.00
C719   C     0.92904   0.46134   0.50818   0.00000  Uiso   1.00
C720   C     0.82247   0.49202   0.97573   0.00000  Uiso   1.00
C721   C     0.84420   0.50798   0.52427   0.00000  Uiso   1.00
C722   C     0.80821   0.53241   0.55746   0.00000  Uiso   1.00
C723   C     0.85846   0.46760   0.94253   0.00000  Uiso   1.00
C724   C     0.75724   0.55045   0.54066   0.00000  Uiso   1.00
C725   C     0.90943   0.44956   0.95933   0.00000  Uiso   1.00
C726   C     0.68961   0.65286   0.74807   0.00000  Uiso   1.00
C727   C     0.97706   0.34714   0.75193   0.00000  Uiso   1.00
C728   C     0.68740   0.50487   0.84148   0.00000  Uiso   1.00
H729   H     0.73270   0.57284   0.56610   0.00000  Uiso   1.00
H730   H     0.83767   0.54220   0.78650   0.00000  Uiso   1.00
H731   H     0.93397   0.42716   0.93390   0.00000  Uiso   1.00
H732   H     0.66710   0.58768   0.99649   0.00000  Uiso   1.00
H733   H     0.99957   0.41233   0.50351   0.00000  Uiso   1.00
H734   H     0.81886   0.53795   0.59664   0.00000  Uiso   1.00
H735   H     0.84780   0.46206   0.90336   0.00000  Uiso   1.00
H736   H     0.73278   0.33681   0.74440   0.00000  Uiso   1.00
H737   H     0.93389   0.66319   0.75560   0.00000  Uiso   1.00
H738   H     0.82900   0.45780   0.71350   0.00000  Uiso   1.00
N739   N     0.81362   0.48550   0.73739   0.00000  Uiso   1.00
N740   N     0.85305   0.51450   0.76260   0.00000  Uiso   1.00
O741   O     0.96386   0.57964   0.75309   0.00000  Uiso   1.00
O742   O     0.70281   0.42036   0.74690   0.00000  Uiso   1.00
O743   O     0.72488   0.57035   0.74501   0.00000  Uiso   1.00
O744   O     0.94178   0.42965   0.75498   0.00000  Uiso   1.00
O745   O     0.96995   0.50730   0.82247   0.00000  Uiso   1.00
O746   O     0.69672   0.49270   0.67753   0.00000  Uiso   1.00
O747   O     0.73098   0.49801   0.81439   0.00000  Uiso   1.00
O748   O     0.93569   0.50199   0.68561   0.00000  Uiso   1.00
Zn749  Zn    0.93700   0.50621   0.75539   0.00000  Uiso   1.00
Zn750  Zn    0.72967   0.49379   0.74460   0.00000  Uiso   1.00
Br751  Br    0.25479   0.92082   0.60929   0.00000  Uiso   1.00
Br752  Br    0.07855   0.74585   0.89071   0.00000  Uiso   1.00
Br753  Br    0.05564   0.74384   0.60139   0.00000  Uiso   1.00
Br754  Br    0.27770   0.92282   0.89861   0.00000  Uiso   1.00
C755   C     0.01510   0.93159   0.74878   0.00000  Uiso   1.00
C756   C     0.31260   0.82847   0.65852   0.00000  Uiso   1.00
C757   C     0.03021   0.84508   0.89498   0.00000  Uiso   1.00
C758   C     0.30312   0.82158   0.60502   0.00000  Uiso   1.00
C759   C     0.02217   0.89364   0.97342   0.00000  Uiso   1.00
C760   C     0.31117   0.77303   0.52658   0.00000  Uiso   1.00
C761   C     0.00394   0.88319   0.92396   0.00000  Uiso   1.00
C762   C     0.32939   0.78348   0.57604   0.00000  Uiso   1.00
C763   C     0.07256   0.81736   0.91626   0.00000  Uiso   1.00
C764   C     0.26078   0.84931   0.58374   0.00000  Uiso   1.00
C765   C     0.10010   0.83738   0.96105   0.00000  Uiso   1.00
C766   C     0.31823   0.73508   0.75122   0.00000  Uiso   1.00
C767   C     0.23323   0.82929   0.53895   0.00000  Uiso   1.00
C768   C     0.07097   0.87200   0.99182   0.00000  Uiso   1.00
C769   C     0.26237   0.79467   0.50818   0.00000  Uiso   1.00
C770   C     0.15580   0.82536   0.97573   0.00000  Uiso   1.00
C771   C     0.17753   0.84131   0.52427   0.00000  Uiso   1.00
C772   C     0.14155   0.86574   0.55746   0.00000  Uiso   1.00
C773   C     0.19179   0.80093   0.94253   0.00000  Uiso   1.00
C774   C     0.09057   0.88378   0.54066   0.00000  Uiso   1.00
C775   C     0.24276   0.78289   0.95933   0.00000  Uiso   1.00
C776   C     0.02294   0.98620   0.74807   0.00000  Uiso   1.00
C777   C     0.31039   0.68047   0.75193   0.00000  Uiso   1.00
C778   C     0.02073   0.83820   0.84148   0.00000  Uiso   1.00
H779   H     0.06603   0.90618   0.56610   0.00000  Uiso   1.00
H780   H     0.17100   0.87553   0.78650   0.00000  Uiso   1.00
H781   H     0.26731   0.76050   0.93390   0.00000  Uiso   1.00
H782   H     0.00043   0.92101   0.99649   0.00000  Uiso   1.00
H783   H     0.33290   0.74566   0.50351   0.00000  Uiso   1.00
H784   H     0.15220   0.87128   0.59664   0.00000  Uiso   1.00
H785   H     0.18114   0.79539   0.90336   0.00000  Uiso   1.00
H786   H     0.06611   0.67015   0.74440   0.00000  Uiso   1.00
H787   H     0.26722   0.99652   0.75560   0.00000  Uiso   1.00
H788   H     0.16233   0.79113   0.71350   0.00000  Uiso   1.00
N789   N     0.14695   0.81883   0.73739   0.00000  Uiso   1.00
N790   N     0.18638   0.84784   0.76260   0.00000  Uiso   1.00
O791   O     0.29719   0.91298   0.75309   0.00000  Uiso   1.00
O792   O     0.03614   0.75369   0.74690   0.00000  Uiso   1.00
O793   O     0.05822   0.90368   0.74501   0.00000  Uiso   1.00
O794   O     0.27512   0.76298   0.75498   0.00000  Uiso   1.00
O795   O     0.30328   0.84063   0.82247   0.00000  Uiso   1.00
O796   O     0.03005   0.82603   0.67753   0.00000  Uiso   1.00
O797   O     0.06431   0.83134   0.81439   0.00000  Uiso   1.00
O798   O     0.26902   0.83533   0.68561   0.00000  Uiso   1.00
Zn799  Zn    0.27033   0.83954   0.75539   0.00000  Uiso   1.00
Zn800  Zn    0.06300   0.82713   0.74460   0.00000  Uiso   1.00
Br801  Br    0.58812   0.92082   0.60929   0.00000  Uiso   1.00
Br802  Br    0.41188   0.74585   0.89071   0.00000  Uiso   1.00
Br803  Br    0.38897   0.74384   0.60139   0.00000  Uiso   1.00
Br804  Br    0.61103   0.92282   0.89861   0.00000  Uiso   1.00
C805   C     0.34844   0.93159   0.74878   0.00000  Uiso   1.00
C806   C     0.64594   0.82847   0.65852   0.00000  Uiso   1.00
C807   C     0.36355   0.84508   0.89498   0.00000  Uiso   1.00
C808   C     0.63645   0.82158   0.60502   0.00000  Uiso   1.00
C809   C     0.35550   0.89364   0.97342   0.00000  Uiso   1.00
C810   C     0.64450   0.77303   0.52658   0.00000  Uiso   1.00
C811   C     0.33727   0.88319   0.92396   0.00000  Uiso   1.00
C812   C     0.66273   0.78348   0.57604   0.00000  Uiso   1.00
C813   C     0.40589   0.81736   0.91626   0.00000  Uiso   1.00
C814   C     0.59411   0.84931   0.58374   0.00000  Uiso   1.00
C815   C     0.43344   0.83738   0.96105   0.00000  Uiso   1.00
C816   C     0.65156   0.73508   0.75122   0.00000  Uiso   1.00
C817   C     0.56657   0.82929   0.53895   0.00000  Uiso   1.00
C818   C     0.40430   0.87200   0.99182   0.00000  Uiso   1.00
C819   C     0.59570   0.79467   0.50818   0.00000  Uiso   1.00
C820   C     0.48914   0.82536   0.97573   0.00000  Uiso   1.00
C821   C     0.51087   0.84131   0.52427   0.00000  Uiso   1.00
C822   C     0.47488   0.86574   0.55746   0.00000  Uiso   1.00
C823   C     0.52512   0.80093   0.94253   0.00000  Uiso   1.00
C824   C     0.42391   0.88378   0.54066   0.00000  Uiso   1.00
C825   C     0.57610   0.78289   0.95933   0.00000  Uiso   1.00
C826   C     0.35627   0.98620   0.74807   0.00000  Uiso   1.00
C827   C     0.64373   0.68047   0.75193   0.00000  Uiso   1.00
C828   C     0.35406   0.83820   0.84148   0.00000  Uiso   1.00
H829   H     0.39936   0.90618   0.56610   0.00000  Uiso   1.00
H830   H     0.50434   0.87553   0.78650   0.00000  Uiso   1.00
H831   H     0.60064   0.76050   0.93390   0.00000  Uiso   1.00
H832   H     0.33377   0.92101   0.99649   0.00000  Uiso   1.00
H833   H     0.66623   0.74566   0.50351   0.00000  Uiso   1.00
H834   H     0.48553   0.87128   0.59664   0.00000  Uiso   1.00
H835   H     0.51447   0.79539   0.90336   0.00000  Uiso   1.00
H836   H     0.39945   0.67015   0.74440   0.00000  Uiso   1.00
H837   H     0.60055   0.99652   0.75560   0.00000  Uiso   1.00
H838   H     0.49566   0.79113   0.71350   0.00000  Uiso   1.00
N839   N     0.48029   0.81883   0.73739   0.00000  Uiso   1.00
N840   N     0.51971   0.84784   0.76260   0.00000  Uiso   1.00
O841   O     0.63052   0.91298   0.75309   0.00000  Uiso   1.00
O842   O     0.36948   0.75369   0.74690   0.00000  Uiso   1.00
O843   O     0.39155   0.90368   0.74501   0.00000  Uiso   1.00
O844   O     0.60845   0.76298   0.75498   0.00000  Uiso   1.00
O845   O     0.63662   0.84063   0.82247   0.00000  Uiso   1.00
O846   O     0.36338   0.82603   0.67753   0.00000  Uiso   1.00
O847   O     0.39764   0.83134   0.81439   0.00000  Uiso   1.00
O848   O     0.60236   0.83533   0.68561   0.00000  Uiso   1.00
Zn849  Zn    0.60366   0.83954   0.75539   0.00000  Uiso   1.00
Zn850  Zn    0.39634   0.82713   0.74460   0.00000  Uiso   1.00
Br851  Br    0.92146   0.92082   0.60929   0.00000  Uiso   1.00
Br852  Br    0.74521   0.74585   0.89071   0.00000  Uiso   1.00
Br853  Br    0.72230   0.74384   0.60139   0.00000  Uiso   1.00
Br854  Br    0.94436   0.92282   0.89861   0.00000  Uiso   1.00
C855   C     0.68177   0.93159   0.74878   0.00000  Uiso   1.00
C856   C     0.97927   0.82847   0.65852   0.00000  Uiso   1.00
C857   C     0.69688   0.84508   0.89498   0.00000  Uiso   1.00
C858   C     0.96979   0.82158   0.60502   0.00000  Uiso   1.00
C859   C     0.68883   0.89364   0.97342   0.00000  Uiso   1.00
C860   C     0.97783   0.77303   0.52658   0.00000  Uiso   1.00
C861   C     0.67061   0.88319   0.92396   0.00000  Uiso   1.00
C862   C     0.99606   0.78348   0.57604   0.00000  Uiso   1.00
C863   C     0.73922   0.81736   0.91626   0.00000  Uiso   1.00
C864   C     0.92745   0.84931   0.58374   0.00000  Uiso   1.00
C865   C     0.76677   0.83738   0.96105   0.00000  Uiso   1.00
C866   C     0.98490   0.73508   0.75122   0.00000  Uiso   1.00
C867   C     0.89990   0.82929   0.53895   0.00000  Uiso   1.00
C868   C     0.73763   0.87200   0.99182   0.00000  Uiso   1.00
C869   C     0.92904   0.79467   0.50818   0.00000  Uiso   1.00
C870   C     0.82247   0.82536   0.97573   0.00000  Uiso   1.00
C871   C     0.84420   0.84131   0.52427   0.00000  Uiso   1.00
C872   C     0.80821   0.86574   0.55746   0.00000  Uiso   1.00
C873   C     0.85846   0.80093   0.94253   0.00000  Uiso   1.00
C874   C     0.75724   0.88378   0.54066   0.00000  Uiso   1.00
C875   C     0.90943   0.78289   0.95933   0.00000  Uiso   1.00
C876   C     0.68961   0.98620   0.74807   0.00000  Uiso   1.00
C877   C     0.97706   0.68047   0.75193   0.00000  Uiso   1.00
C878   C     0.68740   0.83820   0.84148   0.00000  Uiso   1.00
H879   H     0.73270   0.90618   0.56610   0.00000  Uiso   1.00
H880   H     0.83767   0.87553   0.78650   0.00000  Uiso   1.00
H881   H     0.93397   0.76050   0.93390   0.00000  Uiso   1.00
H882   H     0.66710   0.92101   0.99649   0.00000  Uiso   1.00
H883   H     0.99957   0.74566   0.50351   0.00000  Uiso   1.00
H884   H     0.81886   0.87128   0.59664   0.00000  Uiso   1.00
H885   H     0.84780   0.79539   0.90336   0.00000  Uiso   1.00
H886   H     0.73278   0.67015   0.74440   0.00000  Uiso   1.00
H887   H     0.93389   0.99652   0.75560   0.00000  Uiso   1.00
H888   H     0.82900   0.79113   0.71350   0.00000  Uiso   1.00
N889   N     0.81362   0.81883   0.73739   0.00000  Uiso   1.00
N890   N     0.85305   0.84784   0.76260   0.00000  Uiso   1.00
O891   O     0.96386   0.91298   0.75309   0.00000  Uiso   1.00
O892   O     0.70281   0.75369   0.74690   0.00000  Uiso   1.00
O893   O     0.72488   0.90368   0.74501   0.00000  Uiso   1.00
O894   O     0.94178   0.76298   0.75498   0.00000  Uiso   1.00
O895   O     0.96995   0.84063   0.82247   0.00000  Uiso   1.00
O896   O     0.69672   0.82603   0.67753   0.00000  Uiso   1.00
O897   O     0.73098   0.83134   0.81439   0.00000  Uiso   1.00
O898   O     0.93569   0.83533   0.68561   0.00000  Uiso   1.00
Zn899  Zn    0.93700   0.83954   0.75539   0.00000  Uiso   1.00
Zn900  Zn    0.72967   0.82713   0.74460   0.00000  Uiso   1.00
loop_
_geom_bond_atom_site_label_1
_geom_bond_atom_site_label_2
_geom_bond_distance
_geom_bond_site_symmetry_2
_ccdc_geom_bond_type
Br1    C14     1.941   .     S
Br2    C13     1.941   .     S
Br3    C112    1.921   1_455 S
Br4    C61     1.921   .     S
C5     O43     1.289   .     A
C5     C26     1.402   .     S
C5     O141    1.275   1_455 S
C6     C8      1.455   .     S
C6     O48     1.302   .     A
C6     O96     1.288   .     S
C7     C11     1.413   .     A
C7     C13     1.393   .     A
C7     C28     1.455   .     S
C8     C12     1.413   .     A
C8     C14     1.393   .     A
C9     C11     1.394   .     A
C9     C18     1.399   .     A
C9     H32     1.084   .     S
C10    H33     1.084   .     S
C10    C19     1.399   .     A
C10    C12     1.394   .     A
C11    Br104   1.921   1_455 S
C12    Br53    1.921   .     S
C13    C15     1.402   .     A
C14    C17     1.402   .     A
C15    C18     1.417   .     A
C15    C20     1.415   .     A
C16    O44     1.289   .     A
C16    C27     1.402   .     S
C16    O92     1.275   .     S
C17    C19     1.417   .     A
C17    C21     1.415   .     A
C18    C474    1.391   .     S
C19    C475    1.391   1_554 S
C20    C23     1.413   .     A
C20    C471    1.416   .     S
C21    C22     1.413   .     A
C21    C470    1.416   1_554 S
C22    H34     1.079   .     S
C22    C24     1.387   .     A
C23    H35     1.079   .     S
C23    C25     1.387   .     A
C24    H29     1.084   .     S
C24    C468    1.391   1_554 S
C25    H31     1.084   .     S
C25    C469    1.391   .     S
C26    C277    1.340   1_455 S
C26    H186    1.088   .     S
C27    C376    1.340   1_545 S
C27    H337    1.088   1_545 S
C28    O47     1.302   .     A
C28    O145    1.288   1_455 S
H30    N40     1.029   .     S
H36    C326    1.088   1_545 S
H37    C177    1.088   .     S
H38    N39     1.029   .     S
N39    Zn50    2.018   .     S
N39    N40     1.290   .     D
N40    Zn49    2.018   .     S
O41    Zn49    1.948   .     S
O41    C55     1.275   .     S
O42    Zn50    1.948   .     S
O42    C116    1.275   1_455 S
O43    Zn50    1.977   .     S
O44    Zn49    1.977   .     S
O45    Zn49    1.943   .     S
O45    C78     1.288   .     S
O46    Zn50    1.943   .     S
O46    C106    1.288   1_455 S
O47    Zn50    1.885   .     S
O48    Zn49    1.885   .     S
Br51   C64     1.941   .     S
Br52   C63     1.941   .     S
Br54   C111    1.921   .     S
C55    O93     1.289   .     A
C55    C76     1.402   .     S
C56    C58     1.455   .     S
C56    O98     1.302   .     A
C56    O146    1.288   .     S
C57    C61     1.413   .     A
C57    C63     1.393   .     A
C57    C78     1.455   .     S
C58    C62     1.413   .     A
C58    C64     1.393   .     A
C59    C61     1.394   .     A
C59    C68     1.399   .     A
C59    H82     1.084   .     S
C60    H83     1.084   .     S
C60    C69     1.399   .     A
C60    C62     1.394   .     A
C62    Br103   1.921   .     S
C63    C65     1.402   .     A
C64    C67     1.402   .     A
C65    C68     1.417   .     A
C65    C70     1.415   .     A
C66    O94     1.289   .     A
C66    C77     1.402   .     S
C66    O142    1.275   .     S
C67    C69     1.417   .     A
C67    C71     1.415   .     A
C68    C524    1.391   .     S
C69    C525    1.391   1_554 S
C70    C73     1.413   .     A
C70    C521    1.416   .     S
C71    C72     1.413   .     A
C71    C520    1.416   1_554 S
C72    H84     1.079   .     S
C72    C74     1.387   .     A
C73    H85     1.079   .     S
C73    C75     1.387   .     A
C74    H79     1.084   .     S
C74    C518    1.391   1_554 S
C75    H81     1.084   .     S
C75    C519    1.391   .     S
C76    C177    1.340   .     S
C76    H236    1.088   .     S
C77    C426    1.340   1_545 S
C77    H387    1.088   1_545 S
C78    O97     1.302   .     A
H80    N90     1.029   .     S
H86    C376    1.088   1_545 S
H87    C227    1.088   .     S
H88    N89     1.029   .     S
N89    Zn100   2.018   .     S
N89    N90     1.290   .     D
N90    Zn99    2.018   .     S
O91    Zn99    1.948   .     S
O91    C105    1.275   .     S
O92    Zn100   1.948   .     S
O93    Zn100   1.977   .     S
O94    Zn99    1.977   .     S
O95    Zn99    1.943   .     S
O95    C128    1.288   .     S
O96    Zn100   1.943   .     S
O97    Zn100   1.885   .     S
O98    Zn99    1.885   .     S
Br101  C114    1.941   .     S
Br102  C113    1.941   .     S
Br104  C11     1.921   1_655 S
C105   O143    1.289   .     A
C105   C126    1.402   .     S
C106   C108    1.455   .     S
C106   O148    1.302   .     A
C106   O46     1.288   1_655 S
C107   C111    1.413   .     A
C107   C113    1.393   .     A
C107   C128    1.455   .     S
C108   C112    1.413   .     A
C108   C114    1.393   .     A
C109   C111    1.394   .     A
C109   C118    1.399   .     A
C109   H132    1.084   .     S
C110   H133    1.084   .     S
C110   C119    1.399   .     A
C110   C112    1.394   .     A
C112   Br3     1.921   1_655 S
C113   C115    1.402   .     A
C114   C117    1.402   .     A
C115   C118    1.417   .     A
C115   C120    1.415   .     A
C116   O144    1.289   .     A
C116   C127    1.402   .     S
C116   O42     1.275   1_655 S
C117   C119    1.417   .     A
C117   C121    1.415   .     A
C118   C574    1.391   .     S
C119   C575    1.391   1_554 S
C120   C123    1.413   .     A
C120   C571    1.416   .     S
C121   C122    1.413   .     A
C121   C570    1.416   1_554 S
C122   H134    1.079   .     S
C122   C124    1.387   .     A
C123   H135    1.079   .     S
C123   C125    1.387   .     A
C124   H129    1.084   .     S
C124   C568    1.391   1_554 S
C125   H131    1.084   .     S
C125   C569    1.391   .     S
C126   C227    1.340   .     S
C126   H286    1.088   .     S
C127   C326    1.340   1_645 S
C127   H437    1.088   1_545 S
C128   O147    1.302   .     A
H130   N140    1.029   .     S
H136   C426    1.088   1_545 S
H137   C277    1.088   .     S
H138   N139    1.029   .     S
N139   Zn150   2.018   .     S
N139   N140    1.290   .     D
N140   Zn149   2.018   .     S
O141   Zn149   1.948   .     S
O141   C5      1.275   1_655 S
O142   Zn150   1.948   .     S
O143   Zn150   1.977   .     S
O144   Zn149   1.977   .     S
O145   Zn149   1.943   .     S
O145   C28     1.288   1_655 S
O146   Zn150   1.943   .     S
O147   Zn150   1.885   .     S
O148   Zn149   1.885   .     S
Br151  C164    1.941   .     S
Br152  C163    1.941   .     S
Br153  C262    1.921   1_455 S
Br154  C211    1.921   .     S
C155   O193    1.289   .     A
C155   C176    1.402   .     S
C155   O291    1.275   1_455 S
C156   C158    1.455   .     S
C156   O198    1.302   .     A
C156   O246    1.288   .     S
C157   C161    1.413   .     A
C157   C163    1.393   .     A
C157   C178    1.455   .     S
C158   C162    1.413   .     A
C158   C164    1.393   .     A
C159   C161    1.394   .     A
C159   C168    1.399   .     A
C159   H182    1.084   .     S
C160   H183    1.084   .     S
C160   C169    1.399   .     A
C160   C162    1.394   .     A
C161   Br254   1.921   1_455 S
C162   Br203   1.921   .     S
C163   C165    1.402   .     A
C164   C167    1.402   .     A
C165   C168    1.417   .     A
C165   C170    1.415   .     A
C166   O194    1.289   .     A
C166   C177    1.402   .     S
C166   O242    1.275   .     S
C167   C169    1.417   .     A
C167   C171    1.415   .     A
C168   C624    1.391   .     S
C169   C625    1.391   1_554 S
C170   C173    1.413   .     A
C170   C621    1.416   .     S
C171   C172    1.413   .     A
C171   C620    1.416   1_554 S
C172   H184    1.079   .     S
C172   C174    1.387   .     A
C173   H185    1.079   .     S
C173   C175    1.387   .     A
C174   H179    1.084   .     S
C174   C618    1.391   1_554 S
C175   H181    1.084   .     S
C175   C619    1.391   .     S
C176   C427    1.340   1_455 S
C176   H336    1.088   .     S
C178   O197    1.302   .     A
C178   O295    1.288   1_455 S
H180   N190    1.029   .     S
H187   C327    1.088   .     S
H188   N189    1.029   .     S
N189   Zn200   2.018   .     S
N189   N190    1.290   .     D
N190   Zn199   2.018   .     S
O191   Zn199   1.948   .     S
O191   C205    1.275   .     S
O192   Zn200   1.948   .     S
O192   C266    1.275   1_455 S
O193   Zn200   1.977   .     S
O194   Zn199   1.977   .     S
O195   Zn199   1.943   .     S
O195   C228    1.288   .     S
O196   Zn200   1.943   .     S
O196   C256    1.288   1_455 S
O197   Zn200   1.885   .     S
O198   Zn199   1.885   .     S
Br201  C214    1.941   .     S
Br202  C213    1.941   .     S
Br204  C261    1.921   .     S
C205   O243    1.289   .     A
C205   C226    1.402   .     S
C206   C208    1.455   .     S
C206   O248    1.302   .     A
C206   O296    1.288   .     S
C207   C211    1.413   .     A
C207   C213    1.393   .     A
C207   C228    1.455   .     S
C208   C212    1.413   .     A
C208   C214    1.393   .     A
C209   C211    1.394   .     A
C209   C218    1.399   .     A
C209   H232    1.084   .     S
C210   H233    1.084   .     S
C210   C219    1.399   .     A
C210   C212    1.394   .     A
C212   Br253   1.921   .     S
C213   C215    1.402   .     A
C214   C217    1.402   .     A
C215   C218    1.417   .     A
C215   C220    1.415   .     A
C216   O244    1.289   .     A
C216   C227    1.402   .     S
C216   O292    1.275   .     S
C217   C219    1.417   .     A
C217   C221    1.415   .     A
C218   C674    1.391   .     S
C219   C675    1.391   1_554 S
C220   C223    1.413   .     A
C220   C671    1.416   .     S
C221   C222    1.413   .     A
C221   C670    1.416   1_554 S
C222   H234    1.079   .     S
C222   C224    1.387   .     A
C223   H235    1.079   .     S
C223   C225    1.387   .     A
C224   H229    1.084   .     S
C224   C668    1.391   1_554 S
C225   H231    1.084   .     S
C225   C669    1.391   .     S
C226   C327    1.340   .     S
C226   H386    1.088   .     S
C228   O247    1.302   .     A
H230   N240    1.029   .     S
H237   C377    1.088   .     S
H238   N239    1.029   .     S
N239   Zn250   2.018   .     S
N239   N240    1.290   .     D
N240   Zn249   2.018   .     S
O241   Zn249   1.948   .     S
O241   C255    1.275   .     S
O242   Zn250   1.948   .     S
O243   Zn250   1.977   .     S
O244   Zn249   1.977   .     S
O245   Zn249   1.943   .     S
O245   C278    1.288   .     S
O246   Zn250   1.943   .     S
O247   Zn250   1.885   .     S
O248   Zn249   1.885   .     S
Br251  C264    1.941   .     S
Br252  C263    1.941   .     S
Br254  C161    1.921   1_655 S
C255   O293    1.289   .     A
C255   C276    1.402   .     S
C256   C258    1.455   .     S
C256   O298    1.302   .     A
C256   O196    1.288   1_655 S
C257   C261    1.413   .     A
C257   C263    1.393   .     A
C257   C278    1.455   .     S
C258   C262    1.413   .     A
C258   C264    1.393   .     A
C259   C261    1.394   .     A
C259   C268    1.399   .     A
C259   H282    1.084   .     S
C260   H283    1.084   .     S
C260   C269    1.399   .     A
C260   C262    1.394   .     A
C262   Br153   1.921   1_655 S
C263   C265    1.402   .     A
C264   C267    1.402   .     A
C265   C268    1.417   .     A
C265   C270    1.415   .     A
C266   O294    1.289   .     A
C266   C277    1.402   .     S
C266   O192    1.275   1_655 S
C267   C269    1.417   .     A
C267   C271    1.415   .     A
C268   C724    1.391   .     S
C269   C725    1.391   1_554 S
C270   C273    1.413   .     A
C270   C721    1.416   .     S
C271   C272    1.413   .     A
C271   C720    1.416   1_554 S
C272   H284    1.079   .     S
C272   C274    1.387   .     A
C273   H285    1.079   .     S
C273   C275    1.387   .     A
C274   H279    1.084   .     S
C274   C718    1.391   1_554 S
C275   H281    1.084   .     S
C275   C719    1.391   .     S
C276   C377    1.340   .     S
C276   H436    1.088   .     S
C277   C26     1.340   1_655 S
C278   O297    1.302   .     A
H280   N290    1.029   .     S
H287   C427    1.088   .     S
H288   N289    1.029   .     S
N289   Zn300   2.018   .     S
N289   N290    1.290   .     D
N290   Zn299   2.018   .     S
O291   Zn299   1.948   .     S
O291   C155    1.275   1_655 S
O292   Zn300   1.948   .     S
O293   Zn300   1.977   .     S
O294   Zn299   1.977   .     S
O295   Zn299   1.943   .     S
O295   C178    1.288   1_655 S
O296   Zn300   1.943   .     S
O297   Zn300   1.885   .     S
O298   Zn299   1.885   .     S
Br301  C314    1.941   .     S
Br302  C313    1.941   .     S
Br303  C412    1.921   1_455 S
Br304  C361    1.921   .     S
C305   O343    1.289   .     A
C305   C326    1.402   .     S
C305   O441    1.275   1_455 S
C306   C308    1.455   .     S
C306   O348    1.302   .     A
C306   O396    1.288   .     S
C307   C311    1.413   .     A
C307   C313    1.393   .     A
C307   C328    1.455   .     S
C308   C312    1.413   .     A
C308   C314    1.393   .     A
C309   C311    1.394   .     A
C309   C318    1.399   .     A
C309   H332    1.084   .     S
C310   H333    1.084   .     S
C310   C319    1.399   .     A
C310   C312    1.394   .     A
C311   Br404   1.921   1_455 S
C312   Br353   1.921   .     S
C313   C315    1.402   .     A
C314   C317    1.402   .     A
C315   C318    1.417   .     A
C315   C320    1.415   .     A
C316   O344    1.289   .     A
C316   C327    1.402   .     S
C316   O392    1.275   .     S
C317   C319    1.417   .     A
C317   C321    1.415   .     A
C318   C774    1.391   .     S
C319   C775    1.391   1_554 S
C320   C323    1.413   .     A
C320   C771    1.416   .     S
C321   C322    1.413   .     A
C321   C770    1.416   1_554 S
C322   H334    1.079   .     S
C322   C324    1.387   .     A
C323   H335    1.079   .     S
C323   C325    1.387   .     A
C324   H329    1.084   .     S
C324   C768    1.391   1_554 S
C325   H331    1.084   .     S
C325   C769    1.391   .     S
C326   C127    1.340   1_465 S
C326   H36     1.088   1_565 S
C328   O347    1.302   .     A
C328   O445    1.288   1_455 S
H330   N340    1.029   .     S
H337   C27     1.088   1_565 S
H338   N339    1.029   .     S
N339   Zn350   2.018   .     S
N339   N340    1.290   .     D
N340   Zn349   2.018   .     S
O341   Zn349   1.948   .     S
O341   C355    1.275   .     S
O342   Zn350   1.948   .     S
O342   C416    1.275   1_455 S
O343   Zn350   1.977   .     S
O344   Zn349   1.977   .     S
O345   Zn349   1.943   .     S
O345   C378    1.288   .     S
O346   Zn350   1.943   .     S
O346   C406    1.288   1_455 S
O347   Zn350   1.885   .     S
O348   Zn349   1.885   .     S
Br351  C364    1.941   .     S
Br352  C363    1.941   .     S
Br354  C411    1.921   .     S
C355   O393    1.289   .     A
C355   C376    1.402   .     S
C356   C358    1.455   .     S
C356   O398    1.302   .     A
C356   O446    1.288   .     S
C357   C361    1.413   .     A
C357   C363    1.393   .     A
C357   C378    1.455   .     S
C358   C362    1.413   .     A
C358   C364    1.393   .     A
C359   C361    1.394   .     A
C359   C368    1.399   .     A
C359   H382    1.084   .     S
C360   H383    1.084   .     S
C360   C369    1.399   .     A
C360   C362    1.394   .     A
C362   Br403   1.921   .     S
C363   C365    1.402   .     A
C364   C367    1.402   .     A
C365   C368    1.417   .     A
C365   C370    1.415   .     A
C366   O394    1.289   .     A
C366   C377    1.402   .     S
C366   O442    1.275   .     S
C367   C369    1.417   .     A
C367   C371    1.415   .     A
C368   C824    1.391   .     S
C369   C825    1.391   1_554 S
C370   C373    1.413   .     A
C370   C821    1.416   .     S
C371   C372    1.413   .     A
C371   C820    1.416   1_554 S
C372   H384    1.079   .     S
C372   C374    1.387   .     A
C373   H385    1.079   .     S
C373   C375    1.387   .     A
C374   H379    1.084   .     S
C374   C818    1.391   1_554 S
C375   H381    1.084   .     S
C375   C819    1.391   .     S
C376   C27     1.340   1_565 S
C376   H86     1.088   1_565 S
C378   O397    1.302   .     A
H380   N390    1.029   .     S
H387   C77     1.088   1_565 S
H388   N389    1.029   .     S
N389   Zn400   2.018   .     S
N389   N390    1.290   .     D
N390   Zn399   2.018   .     S
O391   Zn399   1.948   .     S
O391   C405    1.275   .     S
O392   Zn400   1.948   .     S
O393   Zn400   1.977   .     S
O394   Zn399   1.977   .     S
O395   Zn399   1.943   .     S
O395   C428    1.288   .     S
O396   Zn400   1.943   .     S
O397   Zn400   1.885   .     S
O398   Zn399   1.885   .     S
Br401  C414    1.941   .     S
Br402  C413    1.941   .     S
Br404  C311    1.921   1_655 S
C405   O443    1.289   .     A
C405   C426    1.402   .     S
C406   C408    1.455   .     S
C406   O448    1.302   .     A
C406   O346    1.288   1_655 S
C407   C411    1.413   .     A
C407   C413    1.393   .     A
C407   C428    1.455   .     S
C408   C412    1.413   .     A
C408   C414    1.393   .     A
C409   C411    1.394   .     A
C409   C418    1.399   .     A
C409   H432    1.084   .     S
C410   H433    1.084   .     S
C410   C419    1.399   .     A
C410   C412    1.394   .     A
C412   Br303   1.921   1_655 S
C413   C415    1.402   .     A
C414   C417    1.402   .     A
C415   C418    1.417   .     A
C415   C420    1.415   .     A
C416   O444    1.289   .     A
C416   C427    1.402   .     S
C416   O342    1.275   1_655 S
C417   C419    1.417   .     A
C417   C421    1.415   .     A
C418   C874    1.391   .     S
C419   C875    1.391   1_554 S
C420   C423    1.413   .     A
C420   C871    1.416   .     S
C421   C422    1.413   .     A
C421   C870    1.416   1_554 S
C422   H434    1.079   .     S
C422   C424    1.387   .     A
C423   H435    1.079   .     S
C423   C425    1.387   .     A
C424   H429    1.084   .     S
C424   C868    1.391   1_554 S
C425   H431    1.084   .     S
C425   C869    1.391   .     S
C426   C77     1.340   1_565 S
C426   H136    1.088   1_565 S
C427   C176    1.340   1_655 S
C428   O447    1.302   .     A
H430   N440    1.029   .     S
H437   C127    1.088   1_565 S
H438   N439    1.029   .     S
N439   Zn450   2.018   .     S
N439   N440    1.290   .     D
N440   Zn449   2.018   .     S
O441   Zn449   1.948   .     S
O441   C305    1.275   1_655 S
O442   Zn450   1.948   .     S
O443   Zn450   1.977   .     S
O444   Zn449   1.977   .     S
O445   Zn449   1.943   .     S
O445   C328    1.288   1_655 S
O446   Zn450   1.943   .     S
O447   Zn450   1.885   .     S
O448   Zn449   1.885   .     S
Br451  C464    1.941   .     S
Br452  C463    1.941   .     S
Br453  C562    1.921   1_455 S
Br454  C511    1.921   .     S
C455   O493    1.289   .     A
C455   C476    1.402   .     S
C455   O591    1.275   1_455 S
C456   C458    1.455   .     S
C456   O498    1.302   .     A
C456   O546    1.288   .     S
C457   C461    1.413   .     A
C457   C463    1.393   .     A
C457   C478    1.455   .     S
C458   C462    1.413   .     A
C458   C464    1.393   .     A
C459   C461    1.394   .     A
C459   C468    1.399   .     A
C459   H482    1.084   .     S
C460   H483    1.084   .     S
C460   C469    1.399   .     A
C460   C462    1.394   .     A
C461   Br554   1.921   1_455 S
C462   Br503   1.921   .     S
C463   C465    1.402   .     A
C464   C467    1.402   .     A
C465   C468    1.417   .     A
C465   C470    1.415   .     A
C466   O494    1.289   .     A
C466   C477    1.402   .     S
C466   O542    1.275   .     S
C467   C469    1.417   .     A
C467   C471    1.415   .     A
C468   C24     1.391   1_556 S
C470   C473    1.413   .     A
C470   C21     1.416   1_556 S
C471   C472    1.413   .     A
C472   H484    1.079   .     S
C472   C474    1.387   .     A
C473   H485    1.079   .     S
C473   C475    1.387   .     A
C474   H479    1.084   .     S
C475   H481    1.084   .     S
C475   C19     1.391   1_556 S
C476   C727    1.340   1_455 S
C476   H636    1.088   .     S
C477   C826    1.340   1_545 S
C477   H787    1.088   1_545 S
C478   O497    1.302   .     A
C478   O595    1.288   1_455 S
H480   N490    1.029   .     S
H486   C776    1.088   1_545 S
H487   C627    1.088   .     S
H488   N489    1.029   .     S
N489   Zn500   2.018   .     S
N489   N490    1.290   .     D
N490   Zn499   2.018   .     S
O491   Zn499   1.948   .     S
O491   C505    1.275   .     S
O492   Zn500   1.948   .     S
O492   C566    1.275   1_455 S
O493   Zn500   1.977   .     S
O494   Zn499   1.977   .     S
O495   Zn499   1.943   .     S
O495   C528    1.288   .     S
O496   Zn500   1.943   .     S
O496   C556    1.288   1_455 S
O497   Zn500   1.885   .     S
O498   Zn499   1.885   .     S
Br501  C514    1.941   .     S
Br502  C513    1.941   .     S
Br504  C561    1.921   .     S
C505   O543    1.289   .     A
C505   C526    1.402   .     S
C506   C508    1.455   .     S
C506   O548    1.302   .     A
C506   O596    1.288   .     S
C507   C511    1.413   .     A
C507   C513    1.393   .     A
C507   C528    1.455   .     S
C508   C512    1.413   .     A
C508   C514    1.393   .     A
C509   C511    1.394   .     A
C509   C518    1.399   .     A
C509   H532    1.084   .     S
C510   H533    1.084   .     S
C510   C519    1.399   .     A
C510   C512    1.394   .     A
C512   Br553   1.921   .     S
C513   C515    1.402   .     A
C514   C517    1.402   .     A
C515   C518    1.417   .     A
C515   C520    1.415   .     A
C516   O544    1.289   .     A
C516   C527    1.402   .     S
C516   O592    1.275   .     S
C517   C519    1.417   .     A
C517   C521    1.415   .     A
C518   C74     1.391   1_556 S
C520   C523    1.413   .     A
C520   C71     1.416   1_556 S
C521   C522    1.413   .     A
C522   H534    1.079   .     S
C522   C524    1.387   .     A
C523   H535    1.079   .     S
C523   C525    1.387   .     A
C524   H529    1.084   .     S
C525   H531    1.084   .     S
C525   C69     1.391   1_556 S
C526   C627    1.340   .     S
C526   H686    1.088   .     S
C527   C876    1.340   1_545 S
C527   H837    1.088   1_545 S
C528   O547    1.302   .     A
H530   N540    1.029   .     S
H536   C826    1.088   1_545 S
H537   C677    1.088   .     S
H538   N539    1.029   .     S
N539   Zn550   2.018   .     S
N539   N540    1.290   .     D
N540   Zn549   2.018   .     S
O541   Zn549   1.948   .     S
O541   C555    1.275   .     S
O542   Zn550   1.948   .     S
O543   Zn550   1.977   .     S
O544   Zn549   1.977   .     S
O545   Zn549   1.943   .     S
O545   C578    1.288   .     S
O546   Zn550   1.943   .     S
O547   Zn550   1.885   .     S
O548   Zn549   1.885   .     S
Br551  C564    1.941   .     S
Br552  C563    1.941   .     S
Br554  C461    1.921   1_655 S
C555   O593    1.289   .     A
C555   C576    1.402   .     S
C556   C558    1.455   .     S
C556   O598    1.302   .     A
C556   O496    1.288   1_655 S
C557   C561    1.413   .     A
C557   C563    1.393   .     A
C557   C578    1.455   .     S
C558   C562    1.413   .     A
C558   C564    1.393   .     A
C559   C561    1.394   .     A
C559   C568    1.399   .     A
C559   H582    1.084   .     S
C560   H583    1.084   .     S
C560   C569    1.399   .     A
C560   C562    1.394   .     A
C562   Br453   1.921   1_655 S
C563   C565    1.402   .     A
C564   C567    1.402   .     A
C565   C568    1.417   .     A
C565   C570    1.415   .     A
C566   O594    1.289   .     A
C566   C577    1.402   .     S
C566   O492    1.275   1_655 S
C567   C569    1.417   .     A
C567   C571    1.415   .     A
C568   C124    1.391   1_556 S
C570   C573    1.413   .     A
C570   C121    1.416   1_556 S
C571   C572    1.413   .     A
C572   H584    1.079   .     S
C572   C574    1.387   .     A
C573   H585    1.079   .     S
C573   C575    1.387   .     A
C574   H579    1.084   .     S
C575   H581    1.084   .     S
C575   C119    1.391   1_556 S
C576   C677    1.340   .     S
C576   H736    1.088   .     S
C577   C776    1.340   1_645 S
C577   H887    1.088   1_545 S
C578   O597    1.302   .     A
H580   N590    1.029   .     S
H586   C876    1.088   1_545 S
H587   C727    1.088   .     S
H588   N589    1.029   .     S
N589   Zn600   2.018   .     S
N589   N590    1.290   .     D
N590   Zn599   2.018   .     S
O591   Zn599   1.948   .     S
O591   C455    1.275   1_655 S
O592   Zn600   1.948   .     S
O593   Zn600   1.977   .     S
O594   Zn599   1.977   .     S
O595   Zn599   1.943   .     S
O595   C478    1.288   1_655 S
O596   Zn600   1.943   .     S
O597   Zn600   1.885   .     S
O598   Zn599   1.885   .     S
Br601  C614    1.941   .     S
Br602  C613    1.941   .     S
Br603  C712    1.921   1_455 S
Br604  C661    1.921   .     S
C605   O643    1.289   .     A
C605   C626    1.402   .     S
C605   O741    1.275   1_455 S
C606   C608    1.455   .     S
C606   O648    1.302   .     A
C606   O696    1.288   .     S
C607   C611    1.413   .     A
C607   C613    1.393   .     A
C607   C628    1.455   .     S
C608   C612    1.413   .     A
C608   C614    1.393   .     A
C609   C611    1.394   .     A
C609   C618    1.399   .     A
C609   H632    1.084   .     S
C610   H633    1.084   .     S
C610   C619    1.399   .     A
C610   C612    1.394   .     A
C611   Br704   1.921   1_455 S
C612   Br653   1.921   .     S
C613   C615    1.402   .     A
C614   C617    1.402   .     A
C615   C618    1.417   .     A
C615   C620    1.415   .     A
C616   O644    1.289   .     A
C616   C627    1.402   .     S
C616   O692    1.275   .     S
C617   C619    1.417   .     A
C617   C621    1.415   .     A
C618   C174    1.391   1_556 S
C620   C623    1.413   .     A
C620   C171    1.416   1_556 S
C621   C622    1.413   .     A
C622   H634    1.079   .     S
C622   C624    1.387   .     A
C623   H635    1.079   .     S
C623   C625    1.387   .     A
C624   H629    1.084   .     S
C625   H631    1.084   .     S
C625   C169    1.391   1_556 S
C626   C877    1.340   1_455 S
C626   H786    1.088   .     S
C628   O647    1.302   .     A
C628   O745    1.288   1_455 S
H630   N640    1.029   .     S
H637   C777    1.088   .     S
H638   N639    1.029   .     S
N639   Zn650   2.018   .     S
N639   N640    1.290   .     D
N640   Zn649   2.018   .     S
O641   Zn649   1.948   .     S
O641   C655    1.275   .     S
O642   Zn650   1.948   .     S
O642   C716    1.275   1_455 S
O643   Zn650   1.977   .     S
O644   Zn649   1.977   .     S
O645   Zn649   1.943   .     S
O645   C678    1.288   .     S
O646   Zn650   1.943   .     S
O646   C706    1.288   1_455 S
O647   Zn650   1.885   .     S
O648   Zn649   1.885   .     S
Br651  C664    1.941   .     S
Br652  C663    1.941   .     S
Br654  C711    1.921   .     S
C655   O693    1.289   .     A
C655   C676    1.402   .     S
C656   C658    1.455   .     S
C656   O698    1.302   .     A
C656   O746    1.288   .     S
C657   C661    1.413   .     A
C657   C663    1.393   .     A
C657   C678    1.455   .     S
C658   C662    1.413   .     A
C658   C664    1.393   .     A
C659   C661    1.394   .     A
C659   C668    1.399   .     A
C659   H682    1.084   .     S
C660   H683    1.084   .     S
C660   C669    1.399   .     A
C660   C662    1.394   .     A
C662   Br703   1.921   .     S
C663   C665    1.402   .     A
C664   C667    1.402   .     A
C665   C668    1.417   .     A
C665   C670    1.415   .     A
C666   O694    1.289   .     A
C666   C677    1.402   .     S
C666   O742    1.275   .     S
C667   C669    1.417   .     A
C667   C671    1.415   .     A
C668   C224    1.391   1_556 S
C670   C673    1.413   .     A
C670   C221    1.416   1_556 S
C671   C672    1.413   .     A
C672   H684    1.079   .     S
C672   C674    1.387   .     A
C673   H685    1.079   .     S
C673   C675    1.387   .     A
C674   H679    1.084   .     S
C675   H681    1.084   .     S
C675   C219    1.391   1_556 S
C676   C777    1.340   .     S
C676   H836    1.088   .     S
C678   O697    1.302   .     A
H680   N690    1.029   .     S
H687   C827    1.088   .     S
H688   N689    1.029   .     S
N689   Zn700   2.018   .     S
N689   N690    1.290   .     D
N690   Zn699   2.018   .     S
O691   Zn699   1.948   .     S
O691   C705    1.275   .     S
O692   Zn700   1.948   .     S
O693   Zn700   1.977   .     S
O694   Zn699   1.977   .     S
O695   Zn699   1.943   .     S
O695   C728    1.288   .     S
O696   Zn700   1.943   .     S
O697   Zn700   1.885   .     S
O698   Zn699   1.885   .     S
Br701  C714    1.941   .     S
Br702  C713    1.941   .     S
Br704  C611    1.921   1_655 S
C705   O743    1.289   .     A
C705   C726    1.402   .     S
C706   C708    1.455   .     S
C706   O748    1.302   .     A
C706   O646    1.288   1_655 S
C707   C711    1.413   .     A
C707   C713    1.393   .     A
C707   C728    1.455   .     S
C708   C712    1.413   .     A
C708   C714    1.393   .     A
C709   C711    1.394   .     A
C709   C718    1.399   .     A
C709   H732    1.084   .     S
C710   H733    1.084   .     S
C710   C719    1.399   .     A
C710   C712    1.394   .     A
C712   Br603   1.921   1_655 S
C713   C715    1.402   .     A
C714   C717    1.402   .     A
C715   C718    1.417   .     A
C715   C720    1.415   .     A
C716   O744    1.289   .     A
C716   C727    1.402   .     S
C716   O642    1.275   1_655 S
C717   C719    1.417   .     A
C717   C721    1.415   .     A
C718   C274    1.391   1_556 S
C720   C723    1.413   .     A
C720   C271    1.416   1_556 S
C721   C722    1.413   .     A
C722   H734    1.079   .     S
C722   C724    1.387   .     A
C723   H735    1.079   .     S
C723   C725    1.387   .     A
C724   H729    1.084   .     S
C725   H731    1.084   .     S
C725   C269    1.391   1_556 S
C726   C827    1.340   .     S
C726   H886    1.088   .     S
C727   C476    1.340   1_655 S
C728   O747    1.302   .     A
H730   N740    1.029   .     S
H737   C877    1.088   .     S
H738   N739    1.029   .     S
N739   Zn750   2.018   .     S
N739   N740    1.290   .     D
N740   Zn749   2.018   .     S
O741   Zn749   1.948   .     S
O741   C605    1.275   1_655 S
O742   Zn750   1.948   .     S
O743   Zn750   1.977   .     S
O744   Zn749   1.977   .     S
O745   Zn749   1.943   .     S
O745   C628    1.288   1_655 S
O746   Zn750   1.943   .     S
O747   Zn750   1.885   .     S
O748   Zn749   1.885   .     S
Br751  C764    1.941   .     S
Br752  C763    1.941   .     S
Br753  C862    1.921   1_455 S
Br754  C811    1.921   .     S
C755   O793    1.289   .     A
C755   C776    1.402   .     S
C755   O891    1.275   1_455 S
C756   C758    1.455   .     S
C756   O798    1.302   .     A
C756   O846    1.288   .     S
C757   C761    1.413   .     A
C757   C763    1.393   .     A
C757   C778    1.455   .     S
C758   C762    1.413   .     A
C758   C764    1.393   .     A
C759   C761    1.394   .     A
C759   C768    1.399   .     A
C759   H782    1.084   .     S
C760   H783    1.084   .     S
C760   C769    1.399   .     A
C760   C762    1.394   .     A
C761   Br854   1.921   1_455 S
C762   Br803   1.921   .     S
C763   C765    1.402   .     A
C764   C767    1.402   .     A
C765   C768    1.417   .     A
C765   C770    1.415   .     A
C766   O794    1.289   .     A
C766   C777    1.402   .     S
C766   O842    1.275   .     S
C767   C769    1.417   .     A
C767   C771    1.415   .     A
C768   C324    1.391   1_556 S
C770   C773    1.413   .     A
C770   C321    1.416   1_556 S
C771   C772    1.413   .     A
C772   H784    1.079   .     S
C772   C774    1.387   .     A
C773   H785    1.079   .     S
C773   C775    1.387   .     A
C774   H779    1.084   .     S
C775   H781    1.084   .     S
C775   C319    1.391   1_556 S
C776   C577    1.340   1_465 S
C776   H486    1.088   1_565 S
C778   O797    1.302   .     A
C778   O895    1.288   1_455 S
H780   N790    1.029   .     S
H787   C477    1.088   1_565 S
H788   N789    1.029   .     S
N789   Zn800   2.018   .     S
N789   N790    1.290   .     D
N790   Zn799   2.018   .     S
O791   Zn799   1.948   .     S
O791   C805    1.275   .     S
O792   Zn800   1.948   .     S
O792   C866    1.275   1_455 S
O793   Zn800   1.977   .     S
O794   Zn799   1.977   .     S
O795   Zn799   1.943   .     S
O795   C828    1.288   .     S
O796   Zn800   1.943   .     S
O796   C856    1.288   1_455 S
O797   Zn800   1.885   .     S
O798   Zn799   1.885   .     S
Br801  C814    1.941   .     S
Br802  C813    1.941   .     S
Br804  C861    1.921   .     S
C805   O843    1.289   .     A
C805   C826    1.402   .     S
C806   C808    1.455   .     S
C806   O848    1.302   .     A
C806   O896    1.288   .     S
C807   C811    1.413   .     A
C807   C813    1.393   .     A
C807   C828    1.455   .     S
C808   C812    1.413   .     A
C808   C814    1.393   .     A
C809   C811    1.394   .     A
C809   C818    1.399   .     A
C809   H832    1.084   .     S
C810   H833    1.084   .     S
C810   C819    1.399   .     A
C810   C812    1.394   .     A
C812   Br853   1.921   .     S
C813   C815    1.402   .     A
C814   C817    1.402   .     A
C815   C818    1.417   .     A
C815   C820    1.415   .     A
C816   O844    1.289   .     A
C816   C827    1.402   .     S
C816   O892    1.275   .     S
C817   C819    1.417   .     A
C817   C821    1.415   .     A
C818   C374    1.391   1_556 S
C820   C823    1.413   .     A
C820   C371    1.416   1_556 S
C821   C822    1.413   .     A
C822   H834    1.079   .     S
C822   C824    1.387   .     A
C823   H835    1.079   .     S
C823   C825    1.387   .     A
C824   H829    1.084   .     S
C825   H831    1.084   .     S
C825   C369    1.391   1_556 S
C826   C477    1.340   1_565 S
C826   H536    1.088   1_565 S
C828   O847    1.302   .     A
H830   N840    1.029   .     S
H837   C527    1.088   1_565 S
H838   N839    1.029   .     S
N839   Zn850   2.018   .     S
N839   N840    1.290   .     D
N840   Zn849   2.018   .     S
O841   Zn849   1.948   .     S
O841   C855    1.275   .     S
O842   Zn850   1.948   .     S
O843   Zn850   1.977   .     S
O844   Zn849   1.977   .     S
O845   Zn849   1.943   .     S
O845   C878    1.288   .     S
O846   Zn850   1.943   .     S
O847   Zn850   1.885   .     S
O848   Zn849   1.885   .     S
Br851  C864    1.941   .     S
Br852  C863    1.941   .     S
Br854  C761    1.921   1_655 S
C855   O893    1.289   .     A
C855   C876    1.402   .     S
C856   C858    1.455   .     S
C856   O898    1.302   .     A
C856   O796    1.288   1_655 S
C857   C861    1.413   .     A
C857   C863    1.393   .     A
C857   C878    1.455   .     S
C858   C862    1.413   .     A
C858   C864    1.393   .     A
C859   C861    1.394   .     A
C859   C868    1.399   .     A
C859   H882    1.084   .     S
C860   H883    1.084   .     S
C860   C869    1.399   .     A
C860   C862    1.394   .     A
C862   Br753   1.921   1_655 S
C863   C865    1.402   .     A
C864   C867    1.402   .     A
C865   C868    1.417   .     A
C865   C870    1.415   .     A
C866   O894    1.289   .     A
C866   C877    1.402   .     S
C866   O792    1.275   1_655 S
C867   C869    1.417   .     A
C867   C871    1.415   .     A
C868   C424    1.391   1_556 S
C870   C873    1.413   .     A
C870   C421    1.416   1_556 S
C871   C872    1.413   .     A
C872   H884    1.079   .     S
C872   C874    1.387   .     A
C873   H885    1.079   .     S
C873   C875    1.387   .     A
C874   H879    1.084   .     S
C875   H881    1.084   .     S
C875   C419    1.391   1_556 S
C876   C527    1.340   1_565 S
C876   H586    1.088   1_565 S
C877   C626    1.340   1_655 S
C878   O897    1.302   .     A
H880   N890    1.029   .     S
H887   C577    1.088   1_565 S
H888   N889    1.029   .     S
N889   Zn900   2.018   .     S
N889   N890    1.290   .     D
N890   Zn899   2.018   .     S
O891   Zn899   1.948   .     S
O891   C755    1.275   1_655 S
O892   Zn900   1.948   .     S
O893   Zn900   1.977   .     S
O894   Zn899   1.977   .     S
O895   Zn899   1.943   .     S
O895   C778    1.288   1_655 S
O896   Zn900   1.943   .     S
O897   Zn900   1.885   .     S
O898   Zn899   1.885   .     S
