data_str_m1_o10_o18_pcu_sym.130
_audit_creation_date              2020-01-03
_audit_creation_method            'Materials Studio'
_symmetry_space_group_name_H-M    'P1'
_symmetry_Int_Tables_number       1
_symmetry_cell_setting            triclinic
loop_
_symmetry_equiv_pos_as_xyz
  x,y,z
_cell_length_a                    32.5516
_cell_length_b                    32.6255
_cell_length_c                    35.7635
_cell_angle_alpha                 98.7413
_cell_angle_beta                  72.7939
_cell_angle_gamma                 98.8853
loop_
_atom_site_label
_atom_site_type_symbol
_atom_site_fract_x
_atom_site_fract_y
_atom_site_fract_z
_atom_site_U_iso_or_equiv
_atom_site_adp_type
_atom_site_occupancy
C1     C     0.05234   0.15947   0.25925   0.00000  Uiso   1.00
C2     C     0.18514   0.12297   0.46290   0.00000  Uiso   1.00
C3     C     0.19831   0.09810   0.48425   0.00000  Uiso   1.00
C4     C     0.28116   0.17382   0.24109   0.00000  Uiso   1.00
C5     C     0.19907   0.11169   0.02278   0.00000  Uiso   1.00
C6     C     0.18808   0.15211   0.04016   0.00000  Uiso   1.00
C7     C     0.20951   0.08448   0.04447   0.00000  Uiso   1.00
C8     C     0.20747   0.09613   0.08389   0.00000  Uiso   1.00
C9     C     0.18722   0.16346   0.08009   0.00000  Uiso   1.00
C10    C     0.32765   0.17744   0.23708   0.00000  Uiso   1.00
C11    C     0.00732   0.15795   0.26137   0.00000  Uiso   1.00
C12    C     0.13007   0.24039   0.41571   0.00000  Uiso   1.00
C13    C     0.18071   0.32249   0.24011   0.00000  Uiso   1.00
C14    C     0.14945   0.01208   0.26241   0.00000  Uiso   1.00
C15    C     0.15622   0.05618   0.25836   0.00000  Uiso   1.00
C16    C     0.17664   0.27768   0.24151   0.00000  Uiso   1.00
C17    C     0.18801   0.14519   0.14403   0.00000  Uiso   1.00
C18    C     0.14578   0.18819   0.35606   0.00000  Uiso   1.00
C19    C     0.14158   0.20099   0.39812   0.00000  Uiso   1.00
C20    C     0.19619   0.13548   0.10166   0.00000  Uiso   1.00
C21    C     0.13314   0.25447   0.45365   0.00000  Uiso   1.00
C22    C     0.11055   0.28825   0.05834   0.00000  Uiso   1.00
C23    C     0.15399   0.17504   0.41949   0.00000  Uiso   1.00
C24    C     0.10324   0.00042   0.07163   0.00000  Uiso   1.00
C25    C     0.02604   0.20263   0.20587   0.00000  Uiso   1.00
C26    C     0.04120   0.17491   0.16689   0.00000  Uiso   1.00
C27    C     0.07365   0.19974   0.13568   0.00000  Uiso   1.00
C28    C     0.08836   0.01929   0.31597   0.00000  Uiso   1.00
C29    C     0.05045   0.32699   0.34171   0.00000  Uiso   1.00
C30    C     0.15816   0.18861   0.45770   0.00000  Uiso   1.00
C31    C     0.14789   0.22938   0.47463   0.00000  Uiso   1.00
C32    C     0.17293   0.16317   0.47908   0.00000  Uiso   1.00
C33    C     0.17620   0.17861   0.01771   0.00000  Uiso   1.00
C34    C     0.16794   0.22009   0.03252   0.00000  Uiso   1.00
C35    C     0.15309   0.24494   0.01190   0.00000  Uiso   1.00
H36    H     0.21776   0.05357   0.03130   0.00000  Uiso   1.00
H37    H     0.17402   0.23487   0.05971   0.00000  Uiso   1.00
H38    H     0.18522   0.10933   0.43358   0.00000  Uiso   1.00
H39    H     0.11406   0.27451   0.08371   0.00000  Uiso   1.00
H40    H     0.08159   0.27166   0.04963   0.00000  Uiso   1.00
H41    H     0.09943   0.01515   0.04700   0.00000  Uiso   1.00
H42    H     0.07349   0.00244   0.09668   0.00000  Uiso   1.00
H43    H     0.13125   0.01764   0.08126   0.00000  Uiso   1.00
H44    H     0.05853   0.22539   0.12968   0.00000  Uiso   1.00
H45    H     0.10261   0.21312   0.14574   0.00000  Uiso   1.00
H46    H     0.08419   0.17887   0.10790   0.00000  Uiso   1.00
H47    H     0.31777   0.13993   0.28340   0.00000  Uiso   1.00
H48    H     0.05679   0.14883   0.17151   0.00000  Uiso   1.00
H49    H     0.01287   0.16137   0.15590   0.00000  Uiso   1.00
H50    H     0.01037   0.22849   0.20089   0.00000  Uiso   1.00
H51    H     0.05441   0.21787   0.21604   0.00000  Uiso   1.00
H52    H     0.07553   0.04433   0.30629   0.00000  Uiso   1.00
H53    H     0.11065   0.03346   0.33408   0.00000  Uiso   1.00
H54    H     0.06229   0.30182   0.35206   0.00000  Uiso   1.00
H55    H     0.03348   0.01404   0.36770   0.00000  Uiso   1.00
H56    H     0.02726   0.31274   0.32470   0.00000  Uiso   1.00
H57    H     0.21022   0.00391   0.22118   0.00000  Uiso   1.00
H58    H     0.17681   0.19251   0.09613   0.00000  Uiso   1.00
H59    H     0.21376   0.07413   0.10082   0.00000  Uiso   1.00
H60    H     0.20695   0.06739   0.47072   0.00000  Uiso   1.00
H61    H     0.12480   0.28549   0.46615   0.00000  Uiso   1.00
H62    H     0.12041   0.26099   0.39959   0.00000  Uiso   1.00
H63    H     0.16094   0.14457   0.40488   0.00000  Uiso   1.00
O64    O     0.16667   0.16667   0.25000   0.00000  Uiso   1.00
O65    O     0.15693   0.12393   0.16625   0.00000  Uiso   1.00
O66    O     0.12687   0.20646   0.33749   0.00000  Uiso   1.00
O67    O     0.21088   0.17493   0.15877   0.00000  Uiso   1.00
O68    O     0.17198   0.16135   0.33749   0.00000  Uiso   1.00
O69    O     0.14825   0.28632   0.02632   0.00000  Uiso   1.00
O70    O     0.10942   0.32623   0.28301   0.00000  Uiso   1.00
O71    O     0.17849   0.08101   0.27820   0.00000  Uiso   1.00
O72    O     0.14581   0.26136   0.26767   0.00000  Uiso   1.00
O73    O     0.07452   0.13251   0.23607   0.00000  Uiso   1.00
O74    O     0.26785   0.19179   0.21805   0.00000  Uiso   1.00
O75    O     0.06990   0.18960   0.27820   0.00000  Uiso   1.00
O76    O     0.25440   0.15277   0.26767   0.00000  Uiso   1.00
O77    O     0.13800   0.06903   0.23607   0.00000  Uiso   1.00
O78    O     0.20437   0.25527   0.21805   0.00000  Uiso   1.00
Zn79   Zn    0.19244   0.14090   0.28277   0.00000  Uiso   1.00
Zn80   Zn    0.13459   0.12378   0.22257   0.00000  Uiso   1.00
Zn81   Zn    0.21166   0.19664   0.21188   0.00000  Uiso   1.00
Zn82   Zn    0.12798   0.20535   0.28277   0.00000  Uiso   1.00
C83    C     0.38567   0.15947   0.25925   0.00000  Uiso   1.00
C84    C     0.51847   0.12297   0.46290   0.00000  Uiso   1.00
C85    C     0.53164   0.09810   0.48425   0.00000  Uiso   1.00
C86    C     0.61449   0.17382   0.24109   0.00000  Uiso   1.00
C87    C     0.53240   0.11169   0.02278   0.00000  Uiso   1.00
C88    C     0.52141   0.15211   0.04016   0.00000  Uiso   1.00
C89    C     0.54284   0.08448   0.04447   0.00000  Uiso   1.00
C90    C     0.54081   0.09613   0.08389   0.00000  Uiso   1.00
C91    C     0.52055   0.16346   0.08009   0.00000  Uiso   1.00
C92    C     0.66099   0.17744   0.23708   0.00000  Uiso   1.00
C93    C     0.34065   0.15795   0.26137   0.00000  Uiso   1.00
C94    C     0.46341   0.24039   0.41571   0.00000  Uiso   1.00
C95    C     0.51404   0.32249   0.24011   0.00000  Uiso   1.00
C96    C     0.48279   0.01208   0.26241   0.00000  Uiso   1.00
C97    C     0.48955   0.05618   0.25836   0.00000  Uiso   1.00
C98    C     0.50997   0.27768   0.24151   0.00000  Uiso   1.00
C99    C     0.52134   0.14519   0.14403   0.00000  Uiso   1.00
C100   C     0.47912   0.18819   0.35606   0.00000  Uiso   1.00
C101   C     0.47492   0.20099   0.39812   0.00000  Uiso   1.00
C102   C     0.52953   0.13548   0.10166   0.00000  Uiso   1.00
C103   C     0.46647   0.25447   0.45365   0.00000  Uiso   1.00
C104   C     0.44388   0.28825   0.05834   0.00000  Uiso   1.00
C105   C     0.48733   0.17504   0.41949   0.00000  Uiso   1.00
C106   C     0.43658   0.00042   0.07163   0.00000  Uiso   1.00
C107   C     0.35937   0.20263   0.20587   0.00000  Uiso   1.00
C108   C     0.37454   0.17491   0.16689   0.00000  Uiso   1.00
C109   C     0.40698   0.19974   0.13568   0.00000  Uiso   1.00
C110   C     0.42170   0.01929   0.31597   0.00000  Uiso   1.00
C111   C     0.38378   0.32699   0.34171   0.00000  Uiso   1.00
C112   C     0.49150   0.18861   0.45770   0.00000  Uiso   1.00
C113   C     0.48122   0.22938   0.47463   0.00000  Uiso   1.00
C114   C     0.50627   0.16317   0.47908   0.00000  Uiso   1.00
C115   C     0.50954   0.17861   0.01771   0.00000  Uiso   1.00
C116   C     0.50127   0.22009   0.03252   0.00000  Uiso   1.00
C117   C     0.48642   0.24494   0.01190   0.00000  Uiso   1.00
H118   H     0.55109   0.05357   0.03130   0.00000  Uiso   1.00
H119   H     0.50736   0.23487   0.05971   0.00000  Uiso   1.00
H120   H     0.51855   0.10933   0.43358   0.00000  Uiso   1.00
H121   H     0.44739   0.27451   0.08371   0.00000  Uiso   1.00
H122   H     0.41492   0.27166   0.04963   0.00000  Uiso   1.00
H123   H     0.43277   0.01515   0.04700   0.00000  Uiso   1.00
H124   H     0.40682   0.00244   0.09668   0.00000  Uiso   1.00
H125   H     0.46458   0.01764   0.08126   0.00000  Uiso   1.00
H126   H     0.39186   0.22539   0.12968   0.00000  Uiso   1.00
H127   H     0.43594   0.21312   0.14574   0.00000  Uiso   1.00
H128   H     0.41753   0.17887   0.10790   0.00000  Uiso   1.00
H129   H     0.65111   0.13993   0.28340   0.00000  Uiso   1.00
H130   H     0.39012   0.14883   0.17151   0.00000  Uiso   1.00
H131   H     0.34620   0.16137   0.15590   0.00000  Uiso   1.00
H132   H     0.34371   0.22849   0.20089   0.00000  Uiso   1.00
H133   H     0.38775   0.21787   0.21604   0.00000  Uiso   1.00
H134   H     0.40886   0.04433   0.30629   0.00000  Uiso   1.00
H135   H     0.44398   0.03346   0.33408   0.00000  Uiso   1.00
H136   H     0.39562   0.30182   0.35206   0.00000  Uiso   1.00
H137   H     0.36681   0.01404   0.36770   0.00000  Uiso   1.00
H138   H     0.36059   0.31274   0.32470   0.00000  Uiso   1.00
H139   H     0.54356   0.00391   0.22118   0.00000  Uiso   1.00
H140   H     0.51014   0.19251   0.09613   0.00000  Uiso   1.00
H141   H     0.54709   0.07413   0.10082   0.00000  Uiso   1.00
H142   H     0.54029   0.06739   0.47072   0.00000  Uiso   1.00
H143   H     0.45814   0.28549   0.46615   0.00000  Uiso   1.00
H144   H     0.45374   0.26099   0.39959   0.00000  Uiso   1.00
H145   H     0.49427   0.14457   0.40488   0.00000  Uiso   1.00
O146   O     0.50000   0.16667   0.25000   0.00000  Uiso   1.00
O147   O     0.49027   0.12393   0.16625   0.00000  Uiso   1.00
O148   O     0.46020   0.20646   0.33749   0.00000  Uiso   1.00
O149   O     0.54421   0.17493   0.15877   0.00000  Uiso   1.00
O150   O     0.50532   0.16135   0.33749   0.00000  Uiso   1.00
O151   O     0.48159   0.28632   0.02632   0.00000  Uiso   1.00
O152   O     0.44275   0.32623   0.28301   0.00000  Uiso   1.00
O153   O     0.51182   0.08101   0.27820   0.00000  Uiso   1.00
O154   O     0.47914   0.26136   0.26767   0.00000  Uiso   1.00
O155   O     0.40785   0.13251   0.23607   0.00000  Uiso   1.00
O156   O     0.60119   0.19179   0.21805   0.00000  Uiso   1.00
O157   O     0.40323   0.18960   0.27820   0.00000  Uiso   1.00
O158   O     0.58773   0.15277   0.26767   0.00000  Uiso   1.00
O159   O     0.47133   0.06903   0.23607   0.00000  Uiso   1.00
O160   O     0.53771   0.25527   0.21805   0.00000  Uiso   1.00
Zn161  Zn    0.52577   0.14090   0.28277   0.00000  Uiso   1.00
Zn162  Zn    0.46792   0.12378   0.22257   0.00000  Uiso   1.00
Zn163  Zn    0.54500   0.19664   0.21188   0.00000  Uiso   1.00
Zn164  Zn    0.46131   0.20535   0.28277   0.00000  Uiso   1.00
C165   C     0.71900   0.15947   0.25925   0.00000  Uiso   1.00
C166   C     0.85181   0.12297   0.46290   0.00000  Uiso   1.00
C167   C     0.86498   0.09810   0.48425   0.00000  Uiso   1.00
C168   C     0.94783   0.17382   0.24109   0.00000  Uiso   1.00
C169   C     0.86573   0.11169   0.02278   0.00000  Uiso   1.00
C170   C     0.85475   0.15211   0.04016   0.00000  Uiso   1.00
C171   C     0.87618   0.08448   0.04447   0.00000  Uiso   1.00
C172   C     0.87414   0.09613   0.08389   0.00000  Uiso   1.00
C173   C     0.85388   0.16346   0.08009   0.00000  Uiso   1.00
C174   C     0.99432   0.17744   0.23708   0.00000  Uiso   1.00
C175   C     0.67398   0.15795   0.26137   0.00000  Uiso   1.00
C176   C     0.79674   0.24039   0.41571   0.00000  Uiso   1.00
C177   C     0.84738   0.32249   0.24011   0.00000  Uiso   1.00
C178   C     0.81612   0.01208   0.26241   0.00000  Uiso   1.00
C179   C     0.82289   0.05618   0.25836   0.00000  Uiso   1.00
C180   C     0.84331   0.27768   0.24151   0.00000  Uiso   1.00
C181   C     0.85468   0.14519   0.14403   0.00000  Uiso   1.00
C182   C     0.81245   0.18819   0.35606   0.00000  Uiso   1.00
C183   C     0.80825   0.20099   0.39812   0.00000  Uiso   1.00
C184   C     0.86286   0.13548   0.10166   0.00000  Uiso   1.00
C185   C     0.79981   0.25447   0.45365   0.00000  Uiso   1.00
C186   C     0.77721   0.28825   0.05834   0.00000  Uiso   1.00
C187   C     0.82066   0.17504   0.41949   0.00000  Uiso   1.00
C188   C     0.76991   0.00042   0.07163   0.00000  Uiso   1.00
C189   C     0.69270   0.20263   0.20587   0.00000  Uiso   1.00
C190   C     0.70787   0.17491   0.16689   0.00000  Uiso   1.00
C191   C     0.74032   0.19974   0.13568   0.00000  Uiso   1.00
C192   C     0.75503   0.01929   0.31597   0.00000  Uiso   1.00
C193   C     0.71712   0.32699   0.34171   0.00000  Uiso   1.00
C194   C     0.82483   0.18861   0.45770   0.00000  Uiso   1.00
C195   C     0.81455   0.22938   0.47463   0.00000  Uiso   1.00
C196   C     0.83960   0.16317   0.47908   0.00000  Uiso   1.00
C197   C     0.84287   0.17861   0.01771   0.00000  Uiso   1.00
C198   C     0.83461   0.22009   0.03252   0.00000  Uiso   1.00
C199   C     0.81975   0.24494   0.01190   0.00000  Uiso   1.00
H200   H     0.88443   0.05357   0.03130   0.00000  Uiso   1.00
H201   H     0.84069   0.23487   0.05971   0.00000  Uiso   1.00
H202   H     0.85188   0.10933   0.43358   0.00000  Uiso   1.00
H203   H     0.78073   0.27451   0.08371   0.00000  Uiso   1.00
H204   H     0.74825   0.27166   0.04963   0.00000  Uiso   1.00
H205   H     0.76610   0.01515   0.04700   0.00000  Uiso   1.00
H206   H     0.74016   0.00244   0.09668   0.00000  Uiso   1.00
H207   H     0.79791   0.01764   0.08126   0.00000  Uiso   1.00
H208   H     0.72519   0.22539   0.12968   0.00000  Uiso   1.00
H209   H     0.76927   0.21312   0.14574   0.00000  Uiso   1.00
H210   H     0.75086   0.17887   0.10790   0.00000  Uiso   1.00
H211   H     0.98444   0.13993   0.28340   0.00000  Uiso   1.00
H212   H     0.72346   0.14883   0.17151   0.00000  Uiso   1.00
H213   H     0.67953   0.16137   0.15590   0.00000  Uiso   1.00
H214   H     0.67704   0.22849   0.20089   0.00000  Uiso   1.00
H215   H     0.72108   0.21787   0.21604   0.00000  Uiso   1.00
H216   H     0.74220   0.04433   0.30629   0.00000  Uiso   1.00
H217   H     0.77732   0.03346   0.33408   0.00000  Uiso   1.00
H218   H     0.72896   0.30182   0.35206   0.00000  Uiso   1.00
H219   H     0.70015   0.01404   0.36770   0.00000  Uiso   1.00
H220   H     0.69392   0.31274   0.32470   0.00000  Uiso   1.00
H221   H     0.87689   0.00391   0.22118   0.00000  Uiso   1.00
H222   H     0.84347   0.19251   0.09613   0.00000  Uiso   1.00
H223   H     0.88043   0.07413   0.10082   0.00000  Uiso   1.00
H224   H     0.87362   0.06739   0.47072   0.00000  Uiso   1.00
H225   H     0.79147   0.28549   0.46615   0.00000  Uiso   1.00
H226   H     0.78707   0.26099   0.39959   0.00000  Uiso   1.00
H227   H     0.82760   0.14457   0.40488   0.00000  Uiso   1.00
O228   O     0.83333   0.16667   0.25000   0.00000  Uiso   1.00
O229   O     0.82360   0.12393   0.16625   0.00000  Uiso   1.00
O230   O     0.79354   0.20646   0.33749   0.00000  Uiso   1.00
O231   O     0.87755   0.17493   0.15877   0.00000  Uiso   1.00
O232   O     0.83865   0.16135   0.33749   0.00000  Uiso   1.00
O233   O     0.81492   0.28632   0.02632   0.00000  Uiso   1.00
O234   O     0.77608   0.32623   0.28301   0.00000  Uiso   1.00
O235   O     0.84515   0.08101   0.27820   0.00000  Uiso   1.00
O236   O     0.81247   0.26136   0.26767   0.00000  Uiso   1.00
O237   O     0.74119   0.13251   0.23607   0.00000  Uiso   1.00
O238   O     0.93452   0.19179   0.21805   0.00000  Uiso   1.00
O239   O     0.73656   0.18960   0.27820   0.00000  Uiso   1.00
O240   O     0.92106   0.15277   0.26767   0.00000  Uiso   1.00
O241   O     0.80467   0.06903   0.23607   0.00000  Uiso   1.00
O242   O     0.87104   0.25527   0.21805   0.00000  Uiso   1.00
Zn243  Zn    0.85910   0.14090   0.28277   0.00000  Uiso   1.00
Zn244  Zn    0.80125   0.12378   0.22257   0.00000  Uiso   1.00
Zn245  Zn    0.87833   0.19664   0.21188   0.00000  Uiso   1.00
Zn246  Zn    0.79465   0.20535   0.28277   0.00000  Uiso   1.00
C247   C     0.05234   0.49281   0.25925   0.00000  Uiso   1.00
C248   C     0.18514   0.45630   0.46290   0.00000  Uiso   1.00
C249   C     0.19831   0.43143   0.48425   0.00000  Uiso   1.00
C250   C     0.28116   0.50715   0.24109   0.00000  Uiso   1.00
C251   C     0.19907   0.44502   0.02278   0.00000  Uiso   1.00
C252   C     0.18808   0.48545   0.04016   0.00000  Uiso   1.00
C253   C     0.20951   0.41781   0.04447   0.00000  Uiso   1.00
C254   C     0.20747   0.42946   0.08389   0.00000  Uiso   1.00
C255   C     0.18722   0.49679   0.08009   0.00000  Uiso   1.00
C256   C     0.32765   0.51078   0.23708   0.00000  Uiso   1.00
C257   C     0.00732   0.49128   0.26137   0.00000  Uiso   1.00
C258   C     0.13007   0.57372   0.41571   0.00000  Uiso   1.00
C259   C     0.18071   0.65582   0.24011   0.00000  Uiso   1.00
C260   C     0.14945   0.34541   0.26241   0.00000  Uiso   1.00
C261   C     0.15622   0.38951   0.25836   0.00000  Uiso   1.00
C262   C     0.17664   0.61102   0.24151   0.00000  Uiso   1.00
C263   C     0.18801   0.47852   0.14403   0.00000  Uiso   1.00
C264   C     0.14578   0.52152   0.35606   0.00000  Uiso   1.00
C265   C     0.14158   0.53432   0.39812   0.00000  Uiso   1.00
C266   C     0.19619   0.46881   0.10166   0.00000  Uiso   1.00
C267   C     0.13314   0.58780   0.45365   0.00000  Uiso   1.00
C268   C     0.11055   0.62158   0.05834   0.00000  Uiso   1.00
C269   C     0.15399   0.50837   0.41949   0.00000  Uiso   1.00
C270   C     0.10324   0.33376   0.07163   0.00000  Uiso   1.00
C271   C     0.02604   0.53597   0.20587   0.00000  Uiso   1.00
C272   C     0.04120   0.50824   0.16689   0.00000  Uiso   1.00
C273   C     0.07365   0.53307   0.13568   0.00000  Uiso   1.00
C274   C     0.08836   0.35262   0.31597   0.00000  Uiso   1.00
C275   C     0.05045   0.66032   0.34171   0.00000  Uiso   1.00
C276   C     0.15816   0.52195   0.45770   0.00000  Uiso   1.00
C277   C     0.14789   0.56272   0.47463   0.00000  Uiso   1.00
C278   C     0.17293   0.49650   0.47908   0.00000  Uiso   1.00
C279   C     0.17620   0.51195   0.01771   0.00000  Uiso   1.00
C280   C     0.16794   0.55343   0.03252   0.00000  Uiso   1.00
C281   C     0.15309   0.57828   0.01190   0.00000  Uiso   1.00
H282   H     0.21776   0.38690   0.03130   0.00000  Uiso   1.00
H283   H     0.17402   0.56820   0.05971   0.00000  Uiso   1.00
H284   H     0.18522   0.44266   0.43358   0.00000  Uiso   1.00
H285   H     0.11406   0.60785   0.08371   0.00000  Uiso   1.00
H286   H     0.08159   0.60499   0.04963   0.00000  Uiso   1.00
H287   H     0.09943   0.34848   0.04700   0.00000  Uiso   1.00
H288   H     0.07349   0.33577   0.09668   0.00000  Uiso   1.00
H289   H     0.13125   0.35098   0.08126   0.00000  Uiso   1.00
H290   H     0.05853   0.55873   0.12968   0.00000  Uiso   1.00
H291   H     0.10261   0.54646   0.14574   0.00000  Uiso   1.00
H292   H     0.08419   0.51220   0.10790   0.00000  Uiso   1.00
H293   H     0.31777   0.47326   0.28340   0.00000  Uiso   1.00
H294   H     0.05679   0.48217   0.17151   0.00000  Uiso   1.00
H295   H     0.01287   0.49470   0.15590   0.00000  Uiso   1.00
H296   H     0.01037   0.56183   0.20089   0.00000  Uiso   1.00
H297   H     0.05441   0.55120   0.21604   0.00000  Uiso   1.00
H298   H     0.07553   0.37766   0.30629   0.00000  Uiso   1.00
H299   H     0.11065   0.36679   0.33408   0.00000  Uiso   1.00
H300   H     0.06229   0.63515   0.35206   0.00000  Uiso   1.00
H301   H     0.03348   0.34738   0.36770   0.00000  Uiso   1.00
H302   H     0.02726   0.64607   0.32470   0.00000  Uiso   1.00
H303   H     0.21022   0.33724   0.22118   0.00000  Uiso   1.00
H304   H     0.17681   0.52584   0.09613   0.00000  Uiso   1.00
H305   H     0.21376   0.40747   0.10082   0.00000  Uiso   1.00
H306   H     0.20695   0.40072   0.47072   0.00000  Uiso   1.00
H307   H     0.12480   0.61882   0.46615   0.00000  Uiso   1.00
H308   H     0.12041   0.59432   0.39959   0.00000  Uiso   1.00
H309   H     0.16094   0.47791   0.40488   0.00000  Uiso   1.00
O310   O     0.16667   0.50000   0.25000   0.00000  Uiso   1.00
O311   O     0.15693   0.45726   0.16625   0.00000  Uiso   1.00
O312   O     0.12687   0.53979   0.33749   0.00000  Uiso   1.00
O313   O     0.21088   0.50826   0.15877   0.00000  Uiso   1.00
O314   O     0.17198   0.49468   0.33749   0.00000  Uiso   1.00
O315   O     0.14825   0.61965   0.02632   0.00000  Uiso   1.00
O316   O     0.10942   0.65957   0.28301   0.00000  Uiso   1.00
O317   O     0.17849   0.41434   0.27820   0.00000  Uiso   1.00
O318   O     0.14581   0.59469   0.26767   0.00000  Uiso   1.00
O319   O     0.07452   0.46584   0.23607   0.00000  Uiso   1.00
O320   O     0.26785   0.52512   0.21805   0.00000  Uiso   1.00
O321   O     0.06990   0.52293   0.27820   0.00000  Uiso   1.00
O322   O     0.25440   0.48610   0.26767   0.00000  Uiso   1.00
O323   O     0.13800   0.40236   0.23607   0.00000  Uiso   1.00
O324   O     0.20437   0.58860   0.21805   0.00000  Uiso   1.00
Zn325  Zn    0.19244   0.47423   0.28277   0.00000  Uiso   1.00
Zn326  Zn    0.13459   0.45711   0.22257   0.00000  Uiso   1.00
Zn327  Zn    0.21166   0.52997   0.21188   0.00000  Uiso   1.00
Zn328  Zn    0.12798   0.53868   0.28277   0.00000  Uiso   1.00
C329   C     0.38567   0.49281   0.25925   0.00000  Uiso   1.00
C330   C     0.51847   0.45630   0.46290   0.00000  Uiso   1.00
C331   C     0.53164   0.43143   0.48425   0.00000  Uiso   1.00
C332   C     0.61449   0.50715   0.24109   0.00000  Uiso   1.00
C333   C     0.53240   0.44502   0.02278   0.00000  Uiso   1.00
C334   C     0.52141   0.48545   0.04016   0.00000  Uiso   1.00
C335   C     0.54284   0.41781   0.04447   0.00000  Uiso   1.00
C336   C     0.54081   0.42946   0.08389   0.00000  Uiso   1.00
C337   C     0.52055   0.49679   0.08009   0.00000  Uiso   1.00
C338   C     0.66099   0.51078   0.23708   0.00000  Uiso   1.00
C339   C     0.34065   0.49128   0.26137   0.00000  Uiso   1.00
C340   C     0.46341   0.57372   0.41571   0.00000  Uiso   1.00
C341   C     0.51404   0.65582   0.24011   0.00000  Uiso   1.00
C342   C     0.48279   0.34541   0.26241   0.00000  Uiso   1.00
C343   C     0.48955   0.38951   0.25836   0.00000  Uiso   1.00
C344   C     0.50997   0.61102   0.24151   0.00000  Uiso   1.00
C345   C     0.52134   0.47852   0.14403   0.00000  Uiso   1.00
C346   C     0.47912   0.52152   0.35606   0.00000  Uiso   1.00
C347   C     0.47492   0.53432   0.39812   0.00000  Uiso   1.00
C348   C     0.52953   0.46881   0.10166   0.00000  Uiso   1.00
C349   C     0.46647   0.58780   0.45365   0.00000  Uiso   1.00
C350   C     0.44388   0.62158   0.05834   0.00000  Uiso   1.00
C351   C     0.48733   0.50837   0.41949   0.00000  Uiso   1.00
C352   C     0.43658   0.33376   0.07163   0.00000  Uiso   1.00
C353   C     0.35937   0.53597   0.20587   0.00000  Uiso   1.00
C354   C     0.37454   0.50824   0.16689   0.00000  Uiso   1.00
C355   C     0.40698   0.53307   0.13568   0.00000  Uiso   1.00
C356   C     0.42170   0.35262   0.31597   0.00000  Uiso   1.00
C357   C     0.38378   0.66032   0.34171   0.00000  Uiso   1.00
C358   C     0.49150   0.52195   0.45770   0.00000  Uiso   1.00
C359   C     0.48122   0.56272   0.47463   0.00000  Uiso   1.00
C360   C     0.50627   0.49650   0.47908   0.00000  Uiso   1.00
C361   C     0.50954   0.51195   0.01771   0.00000  Uiso   1.00
C362   C     0.50127   0.55343   0.03252   0.00000  Uiso   1.00
C363   C     0.48642   0.57828   0.01190   0.00000  Uiso   1.00
H364   H     0.55109   0.38690   0.03130   0.00000  Uiso   1.00
H365   H     0.50736   0.56820   0.05971   0.00000  Uiso   1.00
H366   H     0.51855   0.44266   0.43358   0.00000  Uiso   1.00
H367   H     0.44739   0.60785   0.08371   0.00000  Uiso   1.00
H368   H     0.41492   0.60499   0.04963   0.00000  Uiso   1.00
H369   H     0.43277   0.34848   0.04700   0.00000  Uiso   1.00
H370   H     0.40682   0.33577   0.09668   0.00000  Uiso   1.00
H371   H     0.46458   0.35098   0.08126   0.00000  Uiso   1.00
H372   H     0.39186   0.55873   0.12968   0.00000  Uiso   1.00
H373   H     0.43594   0.54646   0.14574   0.00000  Uiso   1.00
H374   H     0.41753   0.51220   0.10790   0.00000  Uiso   1.00
H375   H     0.65111   0.47326   0.28340   0.00000  Uiso   1.00
H376   H     0.39012   0.48217   0.17151   0.00000  Uiso   1.00
H377   H     0.34620   0.49470   0.15590   0.00000  Uiso   1.00
H378   H     0.34371   0.56183   0.20089   0.00000  Uiso   1.00
H379   H     0.38775   0.55120   0.21604   0.00000  Uiso   1.00
H380   H     0.40886   0.37766   0.30629   0.00000  Uiso   1.00
H381   H     0.44398   0.36679   0.33408   0.00000  Uiso   1.00
H382   H     0.39562   0.63515   0.35206   0.00000  Uiso   1.00
H383   H     0.36681   0.34738   0.36770   0.00000  Uiso   1.00
H384   H     0.36059   0.64607   0.32470   0.00000  Uiso   1.00
H385   H     0.54356   0.33724   0.22118   0.00000  Uiso   1.00
H386   H     0.51014   0.52584   0.09613   0.00000  Uiso   1.00
H387   H     0.54709   0.40747   0.10082   0.00000  Uiso   1.00
H388   H     0.54029   0.40072   0.47072   0.00000  Uiso   1.00
H389   H     0.45814   0.61882   0.46615   0.00000  Uiso   1.00
H390   H     0.45374   0.59432   0.39959   0.00000  Uiso   1.00
H391   H     0.49427   0.47791   0.40488   0.00000  Uiso   1.00
O392   O     0.50000   0.50000   0.25000   0.00000  Uiso   1.00
O393   O     0.49027   0.45726   0.16625   0.00000  Uiso   1.00
O394   O     0.46020   0.53979   0.33749   0.00000  Uiso   1.00
O395   O     0.54421   0.50826   0.15877   0.00000  Uiso   1.00
O396   O     0.50532   0.49468   0.33749   0.00000  Uiso   1.00
O397   O     0.48159   0.61965   0.02632   0.00000  Uiso   1.00
O398   O     0.44275   0.65957   0.28301   0.00000  Uiso   1.00
O399   O     0.51182   0.41434   0.27820   0.00000  Uiso   1.00
O400   O     0.47914   0.59469   0.26767   0.00000  Uiso   1.00
O401   O     0.40785   0.46584   0.23607   0.00000  Uiso   1.00
O402   O     0.60119   0.52512   0.21805   0.00000  Uiso   1.00
O403   O     0.40323   0.52293   0.27820   0.00000  Uiso   1.00
O404   O     0.58773   0.48610   0.26767   0.00000  Uiso   1.00
O405   O     0.47133   0.40236   0.23607   0.00000  Uiso   1.00
O406   O     0.53771   0.58860   0.21805   0.00000  Uiso   1.00
Zn407  Zn    0.52577   0.47423   0.28277   0.00000  Uiso   1.00
Zn408  Zn    0.46792   0.45711   0.22257   0.00000  Uiso   1.00
Zn409  Zn    0.54500   0.52997   0.21188   0.00000  Uiso   1.00
Zn410  Zn    0.46131   0.53868   0.28277   0.00000  Uiso   1.00
C411   C     0.71900   0.49281   0.25925   0.00000  Uiso   1.00
C412   C     0.85181   0.45630   0.46290   0.00000  Uiso   1.00
C413   C     0.86498   0.43143   0.48425   0.00000  Uiso   1.00
C414   C     0.94783   0.50715   0.24109   0.00000  Uiso   1.00
C415   C     0.86573   0.44502   0.02278   0.00000  Uiso   1.00
C416   C     0.85475   0.48545   0.04016   0.00000  Uiso   1.00
C417   C     0.87618   0.41781   0.04447   0.00000  Uiso   1.00
C418   C     0.87414   0.42946   0.08389   0.00000  Uiso   1.00
C419   C     0.85388   0.49679   0.08009   0.00000  Uiso   1.00
C420   C     0.99432   0.51078   0.23708   0.00000  Uiso   1.00
C421   C     0.67398   0.49128   0.26137   0.00000  Uiso   1.00
C422   C     0.79674   0.57372   0.41571   0.00000  Uiso   1.00
C423   C     0.84738   0.65582   0.24011   0.00000  Uiso   1.00
C424   C     0.81612   0.34541   0.26241   0.00000  Uiso   1.00
C425   C     0.82289   0.38951   0.25836   0.00000  Uiso   1.00
C426   C     0.84331   0.61102   0.24151   0.00000  Uiso   1.00
C427   C     0.85468   0.47852   0.14403   0.00000  Uiso   1.00
C428   C     0.81245   0.52152   0.35606   0.00000  Uiso   1.00
C429   C     0.80825   0.53432   0.39812   0.00000  Uiso   1.00
C430   C     0.86286   0.46881   0.10166   0.00000  Uiso   1.00
C431   C     0.79981   0.58780   0.45365   0.00000  Uiso   1.00
C432   C     0.77721   0.62158   0.05834   0.00000  Uiso   1.00
C433   C     0.82066   0.50837   0.41949   0.00000  Uiso   1.00
C434   C     0.76991   0.33376   0.07163   0.00000  Uiso   1.00
C435   C     0.69270   0.53597   0.20587   0.00000  Uiso   1.00
C436   C     0.70787   0.50824   0.16689   0.00000  Uiso   1.00
C437   C     0.74032   0.53307   0.13568   0.00000  Uiso   1.00
C438   C     0.75503   0.35262   0.31597   0.00000  Uiso   1.00
C439   C     0.71712   0.66032   0.34171   0.00000  Uiso   1.00
C440   C     0.82483   0.52195   0.45770   0.00000  Uiso   1.00
C441   C     0.81455   0.56272   0.47463   0.00000  Uiso   1.00
C442   C     0.83960   0.49650   0.47908   0.00000  Uiso   1.00
C443   C     0.84287   0.51195   0.01771   0.00000  Uiso   1.00
C444   C     0.83461   0.55343   0.03252   0.00000  Uiso   1.00
C445   C     0.81975   0.57828   0.01190   0.00000  Uiso   1.00
H446   H     0.88443   0.38690   0.03130   0.00000  Uiso   1.00
H447   H     0.84069   0.56820   0.05971   0.00000  Uiso   1.00
H448   H     0.85188   0.44266   0.43358   0.00000  Uiso   1.00
H449   H     0.78073   0.60785   0.08371   0.00000  Uiso   1.00
H450   H     0.74825   0.60499   0.04963   0.00000  Uiso   1.00
H451   H     0.76610   0.34848   0.04700   0.00000  Uiso   1.00
H452   H     0.74016   0.33577   0.09668   0.00000  Uiso   1.00
H453   H     0.79791   0.35098   0.08126   0.00000  Uiso   1.00
H454   H     0.72519   0.55873   0.12968   0.00000  Uiso   1.00
H455   H     0.76927   0.54646   0.14574   0.00000  Uiso   1.00
H456   H     0.75086   0.51220   0.10790   0.00000  Uiso   1.00
H457   H     0.98444   0.47326   0.28340   0.00000  Uiso   1.00
H458   H     0.72346   0.48217   0.17151   0.00000  Uiso   1.00
H459   H     0.67953   0.49470   0.15590   0.00000  Uiso   1.00
H460   H     0.67704   0.56183   0.20089   0.00000  Uiso   1.00
H461   H     0.72108   0.55120   0.21604   0.00000  Uiso   1.00
H462   H     0.74220   0.37766   0.30629   0.00000  Uiso   1.00
H463   H     0.77732   0.36679   0.33408   0.00000  Uiso   1.00
H464   H     0.72896   0.63515   0.35206   0.00000  Uiso   1.00
H465   H     0.70015   0.34738   0.36770   0.00000  Uiso   1.00
H466   H     0.69392   0.64607   0.32470   0.00000  Uiso   1.00
H467   H     0.87689   0.33724   0.22118   0.00000  Uiso   1.00
H468   H     0.84347   0.52584   0.09613   0.00000  Uiso   1.00
H469   H     0.88043   0.40747   0.10082   0.00000  Uiso   1.00
H470   H     0.87362   0.40072   0.47072   0.00000  Uiso   1.00
H471   H     0.79147   0.61882   0.46615   0.00000  Uiso   1.00
H472   H     0.78707   0.59432   0.39959   0.00000  Uiso   1.00
H473   H     0.82760   0.47791   0.40488   0.00000  Uiso   1.00
O474   O     0.83333   0.50000   0.25000   0.00000  Uiso   1.00
O475   O     0.82360   0.45726   0.16625   0.00000  Uiso   1.00
O476   O     0.79354   0.53979   0.33749   0.00000  Uiso   1.00
O477   O     0.87755   0.50826   0.15877   0.00000  Uiso   1.00
O478   O     0.83865   0.49468   0.33749   0.00000  Uiso   1.00
O479   O     0.81492   0.61965   0.02632   0.00000  Uiso   1.00
O480   O     0.77608   0.65957   0.28301   0.00000  Uiso   1.00
O481   O     0.84515   0.41434   0.27820   0.00000  Uiso   1.00
O482   O     0.81247   0.59469   0.26767   0.00000  Uiso   1.00
O483   O     0.74119   0.46584   0.23607   0.00000  Uiso   1.00
O484   O     0.93452   0.52512   0.21805   0.00000  Uiso   1.00
O485   O     0.73656   0.52293   0.27820   0.00000  Uiso   1.00
O486   O     0.92106   0.48610   0.26767   0.00000  Uiso   1.00
O487   O     0.80467   0.40236   0.23607   0.00000  Uiso   1.00
O488   O     0.87104   0.58860   0.21805   0.00000  Uiso   1.00
Zn489  Zn    0.85910   0.47423   0.28277   0.00000  Uiso   1.00
Zn490  Zn    0.80125   0.45711   0.22257   0.00000  Uiso   1.00
Zn491  Zn    0.87833   0.52997   0.21188   0.00000  Uiso   1.00
Zn492  Zn    0.79465   0.53868   0.28277   0.00000  Uiso   1.00
C493   C     0.05234   0.82614   0.25925   0.00000  Uiso   1.00
C494   C     0.18514   0.78963   0.46290   0.00000  Uiso   1.00
C495   C     0.19831   0.76476   0.48425   0.00000  Uiso   1.00
C496   C     0.28116   0.84049   0.24109   0.00000  Uiso   1.00
C497   C     0.19907   0.77836   0.02278   0.00000  Uiso   1.00
C498   C     0.18808   0.81878   0.04016   0.00000  Uiso   1.00
C499   C     0.20951   0.75114   0.04447   0.00000  Uiso   1.00
C500   C     0.20747   0.76280   0.08389   0.00000  Uiso   1.00
C501   C     0.18722   0.83013   0.08009   0.00000  Uiso   1.00
C502   C     0.32765   0.84411   0.23708   0.00000  Uiso   1.00
C503   C     0.00732   0.82461   0.26137   0.00000  Uiso   1.00
C504   C     0.13007   0.90706   0.41571   0.00000  Uiso   1.00
C505   C     0.18071   0.98916   0.24011   0.00000  Uiso   1.00
C506   C     0.14945   0.67874   0.26241   0.00000  Uiso   1.00
C507   C     0.15622   0.72285   0.25836   0.00000  Uiso   1.00
C508   C     0.17664   0.94435   0.24151   0.00000  Uiso   1.00
C509   C     0.18801   0.81185   0.14403   0.00000  Uiso   1.00
C510   C     0.14578   0.85485   0.35606   0.00000  Uiso   1.00
C511   C     0.14158   0.86765   0.39812   0.00000  Uiso   1.00
C512   C     0.19619   0.80214   0.10166   0.00000  Uiso   1.00
C513   C     0.13314   0.92113   0.45365   0.00000  Uiso   1.00
C514   C     0.11055   0.95492   0.05834   0.00000  Uiso   1.00
C515   C     0.15399   0.84170   0.41949   0.00000  Uiso   1.00
C516   C     0.10324   0.66709   0.07163   0.00000  Uiso   1.00
C517   C     0.02604   0.86930   0.20587   0.00000  Uiso   1.00
C518   C     0.04120   0.84157   0.16689   0.00000  Uiso   1.00
C519   C     0.07365   0.86641   0.13568   0.00000  Uiso   1.00
C520   C     0.08836   0.68595   0.31597   0.00000  Uiso   1.00
C521   C     0.05045   0.99366   0.34171   0.00000  Uiso   1.00
C522   C     0.15816   0.85528   0.45770   0.00000  Uiso   1.00
C523   C     0.14789   0.89605   0.47463   0.00000  Uiso   1.00
C524   C     0.17293   0.82984   0.47908   0.00000  Uiso   1.00
C525   C     0.17620   0.84528   0.01771   0.00000  Uiso   1.00
C526   C     0.16794   0.88676   0.03252   0.00000  Uiso   1.00
C527   C     0.15309   0.91161   0.01190   0.00000  Uiso   1.00
H528   H     0.21776   0.72023   0.03130   0.00000  Uiso   1.00
H529   H     0.17402   0.90154   0.05971   0.00000  Uiso   1.00
H530   H     0.18522   0.77600   0.43358   0.00000  Uiso   1.00
H531   H     0.11406   0.94118   0.08371   0.00000  Uiso   1.00
H532   H     0.08159   0.93833   0.04963   0.00000  Uiso   1.00
H533   H     0.09943   0.68182   0.04700   0.00000  Uiso   1.00
H534   H     0.07349   0.66911   0.09668   0.00000  Uiso   1.00
H535   H     0.13125   0.68431   0.08126   0.00000  Uiso   1.00
H536   H     0.05853   0.89206   0.12968   0.00000  Uiso   1.00
H537   H     0.10261   0.87979   0.14574   0.00000  Uiso   1.00
H538   H     0.08419   0.84554   0.10790   0.00000  Uiso   1.00
H539   H     0.31777   0.80659   0.28340   0.00000  Uiso   1.00
H540   H     0.05679   0.81550   0.17151   0.00000  Uiso   1.00
H541   H     0.01287   0.82804   0.15590   0.00000  Uiso   1.00
H542   H     0.01037   0.89516   0.20089   0.00000  Uiso   1.00
H543   H     0.05441   0.88454   0.21604   0.00000  Uiso   1.00
H544   H     0.07553   0.71099   0.30629   0.00000  Uiso   1.00
H545   H     0.11065   0.70012   0.33408   0.00000  Uiso   1.00
H546   H     0.06229   0.96848   0.35206   0.00000  Uiso   1.00
H547   H     0.03348   0.68071   0.36770   0.00000  Uiso   1.00
H548   H     0.02726   0.97941   0.32470   0.00000  Uiso   1.00
H549   H     0.21022   0.67057   0.22118   0.00000  Uiso   1.00
H550   H     0.17681   0.85918   0.09613   0.00000  Uiso   1.00
H551   H     0.21376   0.74080   0.10082   0.00000  Uiso   1.00
H552   H     0.20695   0.73405   0.47072   0.00000  Uiso   1.00
H553   H     0.12480   0.95215   0.46615   0.00000  Uiso   1.00
H554   H     0.12041   0.92765   0.39959   0.00000  Uiso   1.00
H555   H     0.16094   0.81124   0.40488   0.00000  Uiso   1.00
O556   O     0.16667   0.83333   0.25000   0.00000  Uiso   1.00
O557   O     0.15693   0.79060   0.16625   0.00000  Uiso   1.00
O558   O     0.12687   0.87313   0.33749   0.00000  Uiso   1.00
O559   O     0.21088   0.84159   0.15877   0.00000  Uiso   1.00
O560   O     0.17198   0.82802   0.33749   0.00000  Uiso   1.00
O561   O     0.14825   0.95299   0.02632   0.00000  Uiso   1.00
O562   O     0.10942   0.99290   0.28301   0.00000  Uiso   1.00
O563   O     0.17849   0.74768   0.27820   0.00000  Uiso   1.00
O564   O     0.14581   0.92803   0.26767   0.00000  Uiso   1.00
O565   O     0.07452   0.79917   0.23607   0.00000  Uiso   1.00
O566   O     0.26785   0.85845   0.21805   0.00000  Uiso   1.00
O567   O     0.06990   0.85627   0.27820   0.00000  Uiso   1.00
O568   O     0.25440   0.81944   0.26767   0.00000  Uiso   1.00
O569   O     0.13800   0.73570   0.23607   0.00000  Uiso   1.00
O570   O     0.20437   0.92193   0.21805   0.00000  Uiso   1.00
Zn571  Zn    0.19244   0.80756   0.28277   0.00000  Uiso   1.00
Zn572  Zn    0.13459   0.79044   0.22257   0.00000  Uiso   1.00
Zn573  Zn    0.21166   0.86331   0.21188   0.00000  Uiso   1.00
Zn574  Zn    0.12798   0.87202   0.28277   0.00000  Uiso   1.00
C575   C     0.38567   0.82614   0.25925   0.00000  Uiso   1.00
C576   C     0.51847   0.78963   0.46290   0.00000  Uiso   1.00
C577   C     0.53164   0.76476   0.48425   0.00000  Uiso   1.00
C578   C     0.61449   0.84049   0.24109   0.00000  Uiso   1.00
C579   C     0.53240   0.77836   0.02278   0.00000  Uiso   1.00
C580   C     0.52141   0.81878   0.04016   0.00000  Uiso   1.00
C581   C     0.54284   0.75114   0.04447   0.00000  Uiso   1.00
C582   C     0.54081   0.76280   0.08389   0.00000  Uiso   1.00
C583   C     0.52055   0.83013   0.08009   0.00000  Uiso   1.00
C584   C     0.66099   0.84411   0.23708   0.00000  Uiso   1.00
C585   C     0.34065   0.82461   0.26137   0.00000  Uiso   1.00
C586   C     0.46341   0.90706   0.41571   0.00000  Uiso   1.00
C587   C     0.51404   0.98916   0.24011   0.00000  Uiso   1.00
C588   C     0.48279   0.67874   0.26241   0.00000  Uiso   1.00
C589   C     0.48955   0.72285   0.25836   0.00000  Uiso   1.00
C590   C     0.50997   0.94435   0.24151   0.00000  Uiso   1.00
C591   C     0.52134   0.81185   0.14403   0.00000  Uiso   1.00
C592   C     0.47912   0.85485   0.35606   0.00000  Uiso   1.00
C593   C     0.47492   0.86765   0.39812   0.00000  Uiso   1.00
C594   C     0.52953   0.80214   0.10166   0.00000  Uiso   1.00
C595   C     0.46647   0.92113   0.45365   0.00000  Uiso   1.00
C596   C     0.44388   0.95492   0.05834   0.00000  Uiso   1.00
C597   C     0.48733   0.84170   0.41949   0.00000  Uiso   1.00
C598   C     0.43658   0.66709   0.07163   0.00000  Uiso   1.00
C599   C     0.35937   0.86930   0.20587   0.00000  Uiso   1.00
C600   C     0.37454   0.84157   0.16689   0.00000  Uiso   1.00
C601   C     0.40698   0.86641   0.13568   0.00000  Uiso   1.00
C602   C     0.42170   0.68595   0.31597   0.00000  Uiso   1.00
C603   C     0.38378   0.99366   0.34171   0.00000  Uiso   1.00
C604   C     0.49150   0.85528   0.45770   0.00000  Uiso   1.00
C605   C     0.48122   0.89605   0.47463   0.00000  Uiso   1.00
C606   C     0.50627   0.82984   0.47908   0.00000  Uiso   1.00
C607   C     0.50954   0.84528   0.01771   0.00000  Uiso   1.00
C608   C     0.50127   0.88676   0.03252   0.00000  Uiso   1.00
C609   C     0.48642   0.91161   0.01190   0.00000  Uiso   1.00
H610   H     0.55109   0.72023   0.03130   0.00000  Uiso   1.00
H611   H     0.50736   0.90154   0.05971   0.00000  Uiso   1.00
H612   H     0.51855   0.77600   0.43358   0.00000  Uiso   1.00
H613   H     0.44739   0.94118   0.08371   0.00000  Uiso   1.00
H614   H     0.41492   0.93833   0.04963   0.00000  Uiso   1.00
H615   H     0.43277   0.68182   0.04700   0.00000  Uiso   1.00
H616   H     0.40682   0.66911   0.09668   0.00000  Uiso   1.00
H617   H     0.46458   0.68431   0.08126   0.00000  Uiso   1.00
H618   H     0.39186   0.89206   0.12968   0.00000  Uiso   1.00
H619   H     0.43594   0.87979   0.14574   0.00000  Uiso   1.00
H620   H     0.41753   0.84554   0.10790   0.00000  Uiso   1.00
H621   H     0.65111   0.80659   0.28340   0.00000  Uiso   1.00
H622   H     0.39012   0.81550   0.17151   0.00000  Uiso   1.00
H623   H     0.34620   0.82804   0.15590   0.00000  Uiso   1.00
H624   H     0.34371   0.89516   0.20089   0.00000  Uiso   1.00
H625   H     0.38775   0.88454   0.21604   0.00000  Uiso   1.00
H626   H     0.40886   0.71099   0.30629   0.00000  Uiso   1.00
H627   H     0.44398   0.70012   0.33408   0.00000  Uiso   1.00
H628   H     0.39562   0.96848   0.35206   0.00000  Uiso   1.00
H629   H     0.36681   0.68071   0.36770   0.00000  Uiso   1.00
H630   H     0.36059   0.97941   0.32470   0.00000  Uiso   1.00
H631   H     0.54356   0.67057   0.22118   0.00000  Uiso   1.00
H632   H     0.51014   0.85918   0.09613   0.00000  Uiso   1.00
H633   H     0.54709   0.74080   0.10082   0.00000  Uiso   1.00
H634   H     0.54029   0.73405   0.47072   0.00000  Uiso   1.00
H635   H     0.45814   0.95215   0.46615   0.00000  Uiso   1.00
H636   H     0.45374   0.92765   0.39959   0.00000  Uiso   1.00
H637   H     0.49427   0.81124   0.40488   0.00000  Uiso   1.00
O638   O     0.50000   0.83333   0.25000   0.00000  Uiso   1.00
O639   O     0.49027   0.79060   0.16625   0.00000  Uiso   1.00
O640   O     0.46020   0.87313   0.33749   0.00000  Uiso   1.00
O641   O     0.54421   0.84159   0.15877   0.00000  Uiso   1.00
O642   O     0.50532   0.82802   0.33749   0.00000  Uiso   1.00
O643   O     0.48159   0.95299   0.02632   0.00000  Uiso   1.00
O644   O     0.44275   0.99290   0.28301   0.00000  Uiso   1.00
O645   O     0.51182   0.74768   0.27820   0.00000  Uiso   1.00
O646   O     0.47914   0.92803   0.26767   0.00000  Uiso   1.00
O647   O     0.40785   0.79917   0.23607   0.00000  Uiso   1.00
O648   O     0.60119   0.85845   0.21805   0.00000  Uiso   1.00
O649   O     0.40323   0.85627   0.27820   0.00000  Uiso   1.00
O650   O     0.58773   0.81944   0.26767   0.00000  Uiso   1.00
O651   O     0.47133   0.73570   0.23607   0.00000  Uiso   1.00
O652   O     0.53771   0.92193   0.21805   0.00000  Uiso   1.00
Zn653  Zn    0.52577   0.80756   0.28277   0.00000  Uiso   1.00
Zn654  Zn    0.46792   0.79044   0.22257   0.00000  Uiso   1.00
Zn655  Zn    0.54500   0.86331   0.21188   0.00000  Uiso   1.00
Zn656  Zn    0.46131   0.87202   0.28277   0.00000  Uiso   1.00
C657   C     0.71900   0.82614   0.25925   0.00000  Uiso   1.00
C658   C     0.85181   0.78963   0.46290   0.00000  Uiso   1.00
C659   C     0.86498   0.76476   0.48425   0.00000  Uiso   1.00
C660   C     0.94783   0.84049   0.24109   0.00000  Uiso   1.00
C661   C     0.86573   0.77836   0.02278   0.00000  Uiso   1.00
C662   C     0.85475   0.81878   0.04016   0.00000  Uiso   1.00
C663   C     0.87618   0.75114   0.04447   0.00000  Uiso   1.00
C664   C     0.87414   0.76280   0.08389   0.00000  Uiso   1.00
C665   C     0.85388   0.83013   0.08009   0.00000  Uiso   1.00
C666   C     0.99432   0.84411   0.23708   0.00000  Uiso   1.00
C667   C     0.67398   0.82461   0.26137   0.00000  Uiso   1.00
C668   C     0.79674   0.90706   0.41571   0.00000  Uiso   1.00
C669   C     0.84738   0.98916   0.24011   0.00000  Uiso   1.00
C670   C     0.81612   0.67874   0.26241   0.00000  Uiso   1.00
C671   C     0.82289   0.72285   0.25836   0.00000  Uiso   1.00
C672   C     0.84331   0.94435   0.24151   0.00000  Uiso   1.00
C673   C     0.85468   0.81185   0.14403   0.00000  Uiso   1.00
C674   C     0.81245   0.85485   0.35606   0.00000  Uiso   1.00
C675   C     0.80825   0.86765   0.39812   0.00000  Uiso   1.00
C676   C     0.86286   0.80214   0.10166   0.00000  Uiso   1.00
C677   C     0.79981   0.92113   0.45365   0.00000  Uiso   1.00
C678   C     0.77721   0.95492   0.05834   0.00000  Uiso   1.00
C679   C     0.82066   0.84170   0.41949   0.00000  Uiso   1.00
C680   C     0.76991   0.66709   0.07163   0.00000  Uiso   1.00
C681   C     0.69270   0.86930   0.20587   0.00000  Uiso   1.00
C682   C     0.70787   0.84157   0.16689   0.00000  Uiso   1.00
C683   C     0.74032   0.86641   0.13568   0.00000  Uiso   1.00
C684   C     0.75503   0.68595   0.31597   0.00000  Uiso   1.00
C685   C     0.71712   0.99366   0.34171   0.00000  Uiso   1.00
C686   C     0.82483   0.85528   0.45770   0.00000  Uiso   1.00
C687   C     0.81455   0.89605   0.47463   0.00000  Uiso   1.00
C688   C     0.83960   0.82984   0.47908   0.00000  Uiso   1.00
C689   C     0.84287   0.84528   0.01771   0.00000  Uiso   1.00
C690   C     0.83461   0.88676   0.03252   0.00000  Uiso   1.00
C691   C     0.81975   0.91161   0.01190   0.00000  Uiso   1.00
H692   H     0.88443   0.72023   0.03130   0.00000  Uiso   1.00
H693   H     0.84069   0.90154   0.05971   0.00000  Uiso   1.00
H694   H     0.85188   0.77600   0.43358   0.00000  Uiso   1.00
H695   H     0.78073   0.94118   0.08371   0.00000  Uiso   1.00
H696   H     0.74825   0.93833   0.04963   0.00000  Uiso   1.00
H697   H     0.76610   0.68182   0.04700   0.00000  Uiso   1.00
H698   H     0.74016   0.66911   0.09668   0.00000  Uiso   1.00
H699   H     0.79791   0.68431   0.08126   0.00000  Uiso   1.00
H700   H     0.72519   0.89206   0.12968   0.00000  Uiso   1.00
H701   H     0.76927   0.87979   0.14574   0.00000  Uiso   1.00
H702   H     0.75086   0.84554   0.10790   0.00000  Uiso   1.00
H703   H     0.98444   0.80659   0.28340   0.00000  Uiso   1.00
H704   H     0.72346   0.81550   0.17151   0.00000  Uiso   1.00
H705   H     0.67953   0.82804   0.15590   0.00000  Uiso   1.00
H706   H     0.67704   0.89516   0.20089   0.00000  Uiso   1.00
H707   H     0.72108   0.88454   0.21604   0.00000  Uiso   1.00
H708   H     0.74220   0.71099   0.30629   0.00000  Uiso   1.00
H709   H     0.77732   0.70012   0.33408   0.00000  Uiso   1.00
H710   H     0.72896   0.96848   0.35206   0.00000  Uiso   1.00
H711   H     0.70015   0.68071   0.36770   0.00000  Uiso   1.00
H712   H     0.69392   0.97941   0.32470   0.00000  Uiso   1.00
H713   H     0.87689   0.67057   0.22118   0.00000  Uiso   1.00
H714   H     0.84347   0.85918   0.09613   0.00000  Uiso   1.00
H715   H     0.88043   0.74080   0.10082   0.00000  Uiso   1.00
H716   H     0.87362   0.73405   0.47072   0.00000  Uiso   1.00
H717   H     0.79147   0.95215   0.46615   0.00000  Uiso   1.00
H718   H     0.78707   0.92765   0.39959   0.00000  Uiso   1.00
H719   H     0.82760   0.81124   0.40488   0.00000  Uiso   1.00
O720   O     0.83333   0.83333   0.25000   0.00000  Uiso   1.00
O721   O     0.82360   0.79060   0.16625   0.00000  Uiso   1.00
O722   O     0.79354   0.87313   0.33749   0.00000  Uiso   1.00
O723   O     0.87755   0.84159   0.15877   0.00000  Uiso   1.00
O724   O     0.83865   0.82802   0.33749   0.00000  Uiso   1.00
O725   O     0.81492   0.95299   0.02632   0.00000  Uiso   1.00
O726   O     0.77608   0.99290   0.28301   0.00000  Uiso   1.00
O727   O     0.84515   0.74768   0.27820   0.00000  Uiso   1.00
O728   O     0.81247   0.92803   0.26767   0.00000  Uiso   1.00
O729   O     0.74119   0.79917   0.23607   0.00000  Uiso   1.00
O730   O     0.93452   0.85845   0.21805   0.00000  Uiso   1.00
O731   O     0.73656   0.85627   0.27820   0.00000  Uiso   1.00
O732   O     0.92106   0.81944   0.26767   0.00000  Uiso   1.00
O733   O     0.80467   0.73570   0.23607   0.00000  Uiso   1.00
O734   O     0.87104   0.92193   0.21805   0.00000  Uiso   1.00
Zn735  Zn    0.85910   0.80756   0.28277   0.00000  Uiso   1.00
Zn736  Zn    0.80125   0.79044   0.22257   0.00000  Uiso   1.00
Zn737  Zn    0.87833   0.86331   0.21188   0.00000  Uiso   1.00
Zn738  Zn    0.79465   0.87202   0.28277   0.00000  Uiso   1.00
C739   C     0.05234   0.15947   0.75925   0.00000  Uiso   1.00
C740   C     0.18514   0.12297   0.96290   0.00000  Uiso   1.00
C741   C     0.19831   0.09810   0.98425   0.00000  Uiso   1.00
C742   C     0.28116   0.17382   0.74109   0.00000  Uiso   1.00
C743   C     0.19907   0.11169   0.52278   0.00000  Uiso   1.00
C744   C     0.18808   0.15211   0.54016   0.00000  Uiso   1.00
C745   C     0.20951   0.08448   0.54447   0.00000  Uiso   1.00
C746   C     0.20747   0.09613   0.58389   0.00000  Uiso   1.00
C747   C     0.18722   0.16346   0.58009   0.00000  Uiso   1.00
C748   C     0.32765   0.17744   0.73708   0.00000  Uiso   1.00
C749   C     0.00732   0.15795   0.76137   0.00000  Uiso   1.00
C750   C     0.13007   0.24039   0.91571   0.00000  Uiso   1.00
C751   C     0.18071   0.32249   0.74011   0.00000  Uiso   1.00
C752   C     0.14945   0.01208   0.76241   0.00000  Uiso   1.00
C753   C     0.15622   0.05618   0.75836   0.00000  Uiso   1.00
C754   C     0.17664   0.27768   0.74151   0.00000  Uiso   1.00
C755   C     0.18801   0.14519   0.64403   0.00000  Uiso   1.00
C756   C     0.14578   0.18819   0.85606   0.00000  Uiso   1.00
C757   C     0.14158   0.20099   0.89812   0.00000  Uiso   1.00
C758   C     0.19619   0.13548   0.60166   0.00000  Uiso   1.00
C759   C     0.13314   0.25447   0.95365   0.00000  Uiso   1.00
C760   C     0.11055   0.28825   0.55834   0.00000  Uiso   1.00
C761   C     0.15399   0.17504   0.91949   0.00000  Uiso   1.00
C762   C     0.10324   0.00042   0.57163   0.00000  Uiso   1.00
C763   C     0.02604   0.20263   0.70587   0.00000  Uiso   1.00
C764   C     0.04120   0.17491   0.66689   0.00000  Uiso   1.00
C765   C     0.07365   0.19974   0.63568   0.00000  Uiso   1.00
C766   C     0.08836   0.01929   0.81597   0.00000  Uiso   1.00
C767   C     0.05045   0.32699   0.84171   0.00000  Uiso   1.00
C768   C     0.15816   0.18861   0.95770   0.00000  Uiso   1.00
C769   C     0.14789   0.22938   0.97463   0.00000  Uiso   1.00
C770   C     0.17293   0.16317   0.97908   0.00000  Uiso   1.00
C771   C     0.17620   0.17861   0.51771   0.00000  Uiso   1.00
C772   C     0.16794   0.22009   0.53252   0.00000  Uiso   1.00
C773   C     0.15309   0.24494   0.51190   0.00000  Uiso   1.00
H774   H     0.21776   0.05357   0.53130   0.00000  Uiso   1.00
H775   H     0.17402   0.23487   0.55971   0.00000  Uiso   1.00
H776   H     0.18522   0.10933   0.93358   0.00000  Uiso   1.00
H777   H     0.11406   0.27451   0.58371   0.00000  Uiso   1.00
H778   H     0.08159   0.27166   0.54963   0.00000  Uiso   1.00
H779   H     0.09943   0.01515   0.54700   0.00000  Uiso   1.00
H780   H     0.07349   0.00244   0.59668   0.00000  Uiso   1.00
H781   H     0.13125   0.01764   0.58126   0.00000  Uiso   1.00
H782   H     0.05853   0.22539   0.62968   0.00000  Uiso   1.00
H783   H     0.10261   0.21312   0.64574   0.00000  Uiso   1.00
H784   H     0.08419   0.17887   0.60790   0.00000  Uiso   1.00
H785   H     0.31777   0.13993   0.78340   0.00000  Uiso   1.00
H786   H     0.05679   0.14883   0.67151   0.00000  Uiso   1.00
H787   H     0.01287   0.16137   0.65590   0.00000  Uiso   1.00
H788   H     0.01037   0.22849   0.70089   0.00000  Uiso   1.00
H789   H     0.05441   0.21787   0.71604   0.00000  Uiso   1.00
H790   H     0.07553   0.04433   0.80629   0.00000  Uiso   1.00
H791   H     0.11065   0.03346   0.83408   0.00000  Uiso   1.00
H792   H     0.06229   0.30182   0.85206   0.00000  Uiso   1.00
H793   H     0.03348   0.01404   0.86770   0.00000  Uiso   1.00
H794   H     0.02726   0.31274   0.82470   0.00000  Uiso   1.00
H795   H     0.21022   0.00391   0.72118   0.00000  Uiso   1.00
H796   H     0.17681   0.19251   0.59613   0.00000  Uiso   1.00
H797   H     0.21376   0.07413   0.60082   0.00000  Uiso   1.00
H798   H     0.20695   0.06739   0.97072   0.00000  Uiso   1.00
H799   H     0.12480   0.28549   0.96615   0.00000  Uiso   1.00
H800   H     0.12041   0.26099   0.89959   0.00000  Uiso   1.00
H801   H     0.16094   0.14457   0.90488   0.00000  Uiso   1.00
O802   O     0.16667   0.16667   0.75000   0.00000  Uiso   1.00
O803   O     0.15693   0.12393   0.66625   0.00000  Uiso   1.00
O804   O     0.12687   0.20646   0.83749   0.00000  Uiso   1.00
O805   O     0.21088   0.17493   0.65877   0.00000  Uiso   1.00
O806   O     0.17198   0.16135   0.83749   0.00000  Uiso   1.00
O807   O     0.14825   0.28632   0.52632   0.00000  Uiso   1.00
O808   O     0.10942   0.32623   0.78301   0.00000  Uiso   1.00
O809   O     0.17849   0.08101   0.77820   0.00000  Uiso   1.00
O810   O     0.14581   0.26136   0.76767   0.00000  Uiso   1.00
O811   O     0.07452   0.13251   0.73607   0.00000  Uiso   1.00
O812   O     0.26785   0.19179   0.71805   0.00000  Uiso   1.00
O813   O     0.06990   0.18960   0.77820   0.00000  Uiso   1.00
O814   O     0.25440   0.15277   0.76767   0.00000  Uiso   1.00
O815   O     0.13800   0.06903   0.73607   0.00000  Uiso   1.00
O816   O     0.20437   0.25527   0.71805   0.00000  Uiso   1.00
Zn817  Zn    0.19244   0.14090   0.78277   0.00000  Uiso   1.00
Zn818  Zn    0.13459   0.12378   0.72257   0.00000  Uiso   1.00
Zn819  Zn    0.21166   0.19664   0.71188   0.00000  Uiso   1.00
Zn820  Zn    0.12798   0.20535   0.78277   0.00000  Uiso   1.00
C821   C     0.38567   0.15947   0.75925   0.00000  Uiso   1.00
C822   C     0.51847   0.12297   0.96290   0.00000  Uiso   1.00
C823   C     0.53164   0.09810   0.98425   0.00000  Uiso   1.00
C824   C     0.61449   0.17382   0.74109   0.00000  Uiso   1.00
C825   C     0.53240   0.11169   0.52278   0.00000  Uiso   1.00
C826   C     0.52141   0.15211   0.54016   0.00000  Uiso   1.00
C827   C     0.54284   0.08448   0.54447   0.00000  Uiso   1.00
C828   C     0.54081   0.09613   0.58389   0.00000  Uiso   1.00
C829   C     0.52055   0.16346   0.58009   0.00000  Uiso   1.00
C830   C     0.66099   0.17744   0.73708   0.00000  Uiso   1.00
C831   C     0.34065   0.15795   0.76137   0.00000  Uiso   1.00
C832   C     0.46341   0.24039   0.91571   0.00000  Uiso   1.00
C833   C     0.51404   0.32249   0.74011   0.00000  Uiso   1.00
C834   C     0.48279   0.01208   0.76241   0.00000  Uiso   1.00
C835   C     0.48955   0.05618   0.75836   0.00000  Uiso   1.00
C836   C     0.50997   0.27768   0.74151   0.00000  Uiso   1.00
C837   C     0.52134   0.14519   0.64403   0.00000  Uiso   1.00
C838   C     0.47912   0.18819   0.85606   0.00000  Uiso   1.00
C839   C     0.47492   0.20099   0.89812   0.00000  Uiso   1.00
C840   C     0.52953   0.13548   0.60166   0.00000  Uiso   1.00
C841   C     0.46647   0.25447   0.95365   0.00000  Uiso   1.00
C842   C     0.44388   0.28825   0.55834   0.00000  Uiso   1.00
C843   C     0.48733   0.17504   0.91949   0.00000  Uiso   1.00
C844   C     0.43658   0.00042   0.57163   0.00000  Uiso   1.00
C845   C     0.35937   0.20263   0.70587   0.00000  Uiso   1.00
C846   C     0.37454   0.17491   0.66689   0.00000  Uiso   1.00
C847   C     0.40698   0.19974   0.63568   0.00000  Uiso   1.00
C848   C     0.42170   0.01929   0.81597   0.00000  Uiso   1.00
C849   C     0.38378   0.32699   0.84171   0.00000  Uiso   1.00
C850   C     0.49150   0.18861   0.95770   0.00000  Uiso   1.00
C851   C     0.48122   0.22938   0.97463   0.00000  Uiso   1.00
C852   C     0.50627   0.16317   0.97908   0.00000  Uiso   1.00
C853   C     0.50954   0.17861   0.51771   0.00000  Uiso   1.00
C854   C     0.50127   0.22009   0.53252   0.00000  Uiso   1.00
C855   C     0.48642   0.24494   0.51190   0.00000  Uiso   1.00
H856   H     0.55109   0.05357   0.53130   0.00000  Uiso   1.00
H857   H     0.50736   0.23487   0.55971   0.00000  Uiso   1.00
H858   H     0.51855   0.10933   0.93358   0.00000  Uiso   1.00
H859   H     0.44739   0.27451   0.58371   0.00000  Uiso   1.00
H860   H     0.41492   0.27166   0.54963   0.00000  Uiso   1.00
H861   H     0.43277   0.01515   0.54700   0.00000  Uiso   1.00
H862   H     0.40682   0.00244   0.59668   0.00000  Uiso   1.00
H863   H     0.46458   0.01764   0.58126   0.00000  Uiso   1.00
H864   H     0.39186   0.22539   0.62968   0.00000  Uiso   1.00
H865   H     0.43594   0.21312   0.64574   0.00000  Uiso   1.00
H866   H     0.41753   0.17887   0.60790   0.00000  Uiso   1.00
H867   H     0.65111   0.13993   0.78340   0.00000  Uiso   1.00
H868   H     0.39012   0.14883   0.67151   0.00000  Uiso   1.00
H869   H     0.34620   0.16137   0.65590   0.00000  Uiso   1.00
H870   H     0.34371   0.22849   0.70089   0.00000  Uiso   1.00
H871   H     0.38775   0.21787   0.71604   0.00000  Uiso   1.00
H872   H     0.40886   0.04433   0.80629   0.00000  Uiso   1.00
H873   H     0.44398   0.03346   0.83408   0.00000  Uiso   1.00
H874   H     0.39562   0.30182   0.85206   0.00000  Uiso   1.00
H875   H     0.36681   0.01404   0.86770   0.00000  Uiso   1.00
H876   H     0.36059   0.31274   0.82470   0.00000  Uiso   1.00
H877   H     0.54356   0.00391   0.72118   0.00000  Uiso   1.00
H878   H     0.51014   0.19251   0.59613   0.00000  Uiso   1.00
H879   H     0.54709   0.07413   0.60082   0.00000  Uiso   1.00
H880   H     0.54029   0.06739   0.97072   0.00000  Uiso   1.00
H881   H     0.45814   0.28549   0.96615   0.00000  Uiso   1.00
H882   H     0.45374   0.26099   0.89959   0.00000  Uiso   1.00
H883   H     0.49427   0.14457   0.90488   0.00000  Uiso   1.00
O884   O     0.50000   0.16667   0.75000   0.00000  Uiso   1.00
O885   O     0.49027   0.12393   0.66625   0.00000  Uiso   1.00
O886   O     0.46020   0.20646   0.83749   0.00000  Uiso   1.00
O887   O     0.54421   0.17493   0.65877   0.00000  Uiso   1.00
O888   O     0.50532   0.16135   0.83749   0.00000  Uiso   1.00
O889   O     0.48159   0.28632   0.52632   0.00000  Uiso   1.00
O890   O     0.44275   0.32623   0.78301   0.00000  Uiso   1.00
O891   O     0.51182   0.08101   0.77820   0.00000  Uiso   1.00
O892   O     0.47914   0.26136   0.76767   0.00000  Uiso   1.00
O893   O     0.40785   0.13251   0.73607   0.00000  Uiso   1.00
O894   O     0.60119   0.19179   0.71805   0.00000  Uiso   1.00
O895   O     0.40323   0.18960   0.77820   0.00000  Uiso   1.00
O896   O     0.58773   0.15277   0.76767   0.00000  Uiso   1.00
O897   O     0.47133   0.06903   0.73607   0.00000  Uiso   1.00
O898   O     0.53771   0.25527   0.71805   0.00000  Uiso   1.00
Zn899  Zn    0.52577   0.14090   0.78277   0.00000  Uiso   1.00
Zn900  Zn    0.46792   0.12378   0.72257   0.00000  Uiso   1.00
Zn901  Zn    0.54500   0.19664   0.71188   0.00000  Uiso   1.00
Zn902  Zn    0.46131   0.20535   0.78277   0.00000  Uiso   1.00
C903   C     0.71900   0.15947   0.75925   0.00000  Uiso   1.00
C904   C     0.85181   0.12297   0.96290   0.00000  Uiso   1.00
C905   C     0.86498   0.09810   0.98425   0.00000  Uiso   1.00
C906   C     0.94783   0.17382   0.74109   0.00000  Uiso   1.00
C907   C     0.86573   0.11169   0.52278   0.00000  Uiso   1.00
C908   C     0.85475   0.15211   0.54016   0.00000  Uiso   1.00
C909   C     0.87618   0.08448   0.54447   0.00000  Uiso   1.00
C910   C     0.87414   0.09613   0.58389   0.00000  Uiso   1.00
C911   C     0.85388   0.16346   0.58009   0.00000  Uiso   1.00
C912   C     0.99432   0.17744   0.73708   0.00000  Uiso   1.00
C913   C     0.67398   0.15795   0.76137   0.00000  Uiso   1.00
C914   C     0.79674   0.24039   0.91571   0.00000  Uiso   1.00
C915   C     0.84738   0.32249   0.74011   0.00000  Uiso   1.00
C916   C     0.81612   0.01208   0.76241   0.00000  Uiso   1.00
C917   C     0.82289   0.05618   0.75836   0.00000  Uiso   1.00
C918   C     0.84331   0.27768   0.74151   0.00000  Uiso   1.00
C919   C     0.85468   0.14519   0.64403   0.00000  Uiso   1.00
C920   C     0.81245   0.18819   0.85606   0.00000  Uiso   1.00
C921   C     0.80825   0.20099   0.89812   0.00000  Uiso   1.00
C922   C     0.86286   0.13548   0.60166   0.00000  Uiso   1.00
C923   C     0.79981   0.25447   0.95365   0.00000  Uiso   1.00
C924   C     0.77721   0.28825   0.55834   0.00000  Uiso   1.00
C925   C     0.82066   0.17504   0.91949   0.00000  Uiso   1.00
C926   C     0.76991   0.00042   0.57163   0.00000  Uiso   1.00
C927   C     0.69270   0.20263   0.70587   0.00000  Uiso   1.00
C928   C     0.70787   0.17491   0.66689   0.00000  Uiso   1.00
C929   C     0.74032   0.19974   0.63568   0.00000  Uiso   1.00
C930   C     0.75503   0.01929   0.81597   0.00000  Uiso   1.00
C931   C     0.71712   0.32699   0.84171   0.00000  Uiso   1.00
C932   C     0.82483   0.18861   0.95770   0.00000  Uiso   1.00
C933   C     0.81455   0.22938   0.97463   0.00000  Uiso   1.00
C934   C     0.83960   0.16317   0.97908   0.00000  Uiso   1.00
C935   C     0.84287   0.17861   0.51771   0.00000  Uiso   1.00
C936   C     0.83461   0.22009   0.53252   0.00000  Uiso   1.00
C937   C     0.81975   0.24494   0.51190   0.00000  Uiso   1.00
H938   H     0.88443   0.05357   0.53130   0.00000  Uiso   1.00
H939   H     0.84069   0.23487   0.55971   0.00000  Uiso   1.00
H940   H     0.85188   0.10933   0.93358   0.00000  Uiso   1.00
H941   H     0.78073   0.27451   0.58371   0.00000  Uiso   1.00
H942   H     0.74825   0.27166   0.54963   0.00000  Uiso   1.00
H943   H     0.76610   0.01515   0.54700   0.00000  Uiso   1.00
H944   H     0.74016   0.00244   0.59668   0.00000  Uiso   1.00
H945   H     0.79791   0.01764   0.58126   0.00000  Uiso   1.00
H946   H     0.72519   0.22539   0.62968   0.00000  Uiso   1.00
H947   H     0.76927   0.21312   0.64574   0.00000  Uiso   1.00
H948   H     0.75086   0.17887   0.60790   0.00000  Uiso   1.00
H949   H     0.98444   0.13993   0.78340   0.00000  Uiso   1.00
H950   H     0.72346   0.14883   0.67151   0.00000  Uiso   1.00
H951   H     0.67953   0.16137   0.65590   0.00000  Uiso   1.00
H952   H     0.67704   0.22849   0.70089   0.00000  Uiso   1.00
H953   H     0.72108   0.21787   0.71604   0.00000  Uiso   1.00
H954   H     0.74220   0.04433   0.80629   0.00000  Uiso   1.00
H955   H     0.77732   0.03346   0.83408   0.00000  Uiso   1.00
H956   H     0.72896   0.30182   0.85206   0.00000  Uiso   1.00
H957   H     0.70015   0.01404   0.86770   0.00000  Uiso   1.00
H958   H     0.69392   0.31274   0.82470   0.00000  Uiso   1.00
H959   H     0.87689   0.00391   0.72118   0.00000  Uiso   1.00
H960   H     0.84347   0.19251   0.59613   0.00000  Uiso   1.00
H961   H     0.88043   0.07413   0.60082   0.00000  Uiso   1.00
H962   H     0.87362   0.06739   0.97072   0.00000  Uiso   1.00
H963   H     0.79147   0.28549   0.96615   0.00000  Uiso   1.00
H964   H     0.78707   0.26099   0.89959   0.00000  Uiso   1.00
H965   H     0.82760   0.14457   0.90488   0.00000  Uiso   1.00
O966   O     0.83333   0.16667   0.75000   0.00000  Uiso   1.00
O967   O     0.82360   0.12393   0.66625   0.00000  Uiso   1.00
O968   O     0.79354   0.20646   0.83749   0.00000  Uiso   1.00
O969   O     0.87755   0.17493   0.65877   0.00000  Uiso   1.00
O970   O     0.83865   0.16135   0.83749   0.00000  Uiso   1.00
O971   O     0.81492   0.28632   0.52632   0.00000  Uiso   1.00
O972   O     0.77608   0.32623   0.78301   0.00000  Uiso   1.00
O973   O     0.84515   0.08101   0.77820   0.00000  Uiso   1.00
O974   O     0.81247   0.26136   0.76767   0.00000  Uiso   1.00
O975   O     0.74119   0.13251   0.73607   0.00000  Uiso   1.00
O976   O     0.93452   0.19179   0.71805   0.00000  Uiso   1.00
O977   O     0.73656   0.18960   0.77820   0.00000  Uiso   1.00
O978   O     0.92106   0.15277   0.76767   0.00000  Uiso   1.00
O979   O     0.80467   0.06903   0.73607   0.00000  Uiso   1.00
O980   O     0.87104   0.25527   0.71805   0.00000  Uiso   1.00
Zn981  Zn    0.85910   0.14090   0.78277   0.00000  Uiso   1.00
Zn982  Zn    0.80125   0.12378   0.72257   0.00000  Uiso   1.00
Zn983  Zn    0.87833   0.19664   0.71188   0.00000  Uiso   1.00
Zn984  Zn    0.79465   0.20535   0.78277   0.00000  Uiso   1.00
C985   C     0.05234   0.49281   0.75925   0.00000  Uiso   1.00
C986   C     0.18514   0.45630   0.96290   0.00000  Uiso   1.00
C987   C     0.19831   0.43143   0.98425   0.00000  Uiso   1.00
C988   C     0.28116   0.50715   0.74109   0.00000  Uiso   1.00
C989   C     0.19907   0.44502   0.52278   0.00000  Uiso   1.00
C990   C     0.18808   0.48545   0.54016   0.00000  Uiso   1.00
C991   C     0.20951   0.41781   0.54447   0.00000  Uiso   1.00
C992   C     0.20747   0.42946   0.58389   0.00000  Uiso   1.00
C993   C     0.18722   0.49679   0.58009   0.00000  Uiso   1.00
C994   C     0.32765   0.51078   0.73708   0.00000  Uiso   1.00
C995   C     0.00732   0.49128   0.76137   0.00000  Uiso   1.00
C996   C     0.13007   0.57372   0.91571   0.00000  Uiso   1.00
C997   C     0.18071   0.65582   0.74011   0.00000  Uiso   1.00
C998   C     0.14945   0.34541   0.76241   0.00000  Uiso   1.00
C999   C     0.15622   0.38951   0.75836   0.00000  Uiso   1.00
C1000  C     0.17664   0.61102   0.74151   0.00000  Uiso   1.00
C1001  C     0.18801   0.47852   0.64403   0.00000  Uiso   1.00
C1002  C     0.14578   0.52152   0.85606   0.00000  Uiso   1.00
C1003  C     0.14158   0.53432   0.89812   0.00000  Uiso   1.00
C1004  C     0.19619   0.46881   0.60166   0.00000  Uiso   1.00
C1005  C     0.13314   0.58780   0.95365   0.00000  Uiso   1.00
C1006  C     0.11055   0.62158   0.55834   0.00000  Uiso   1.00
C1007  C     0.15399   0.50837   0.91949   0.00000  Uiso   1.00
C1008  C     0.10324   0.33376   0.57163   0.00000  Uiso   1.00
C1009  C     0.02604   0.53597   0.70587   0.00000  Uiso   1.00
C1010  C     0.04120   0.50824   0.66689   0.00000  Uiso   1.00
C1011  C     0.07365   0.53307   0.63568   0.00000  Uiso   1.00
C1012  C     0.08836   0.35262   0.81597   0.00000  Uiso   1.00
C1013  C     0.05045   0.66032   0.84171   0.00000  Uiso   1.00
C1014  C     0.15816   0.52195   0.95770   0.00000  Uiso   1.00
C1015  C     0.14789   0.56272   0.97463   0.00000  Uiso   1.00
C1016  C     0.17293   0.49650   0.97908   0.00000  Uiso   1.00
C1017  C     0.17620   0.51195   0.51771   0.00000  Uiso   1.00
C1018  C     0.16794   0.55343   0.53252   0.00000  Uiso   1.00
C1019  C     0.15309   0.57828   0.51190   0.00000  Uiso   1.00
H1020  H     0.21776   0.38690   0.53130   0.00000  Uiso   1.00
H1021  H     0.17402   0.56820   0.55971   0.00000  Uiso   1.00
H1022  H     0.18522   0.44266   0.93358   0.00000  Uiso   1.00
H1023  H     0.11406   0.60785   0.58371   0.00000  Uiso   1.00
H1024  H     0.08159   0.60499   0.54963   0.00000  Uiso   1.00
H1025  H     0.09943   0.34848   0.54700   0.00000  Uiso   1.00
H1026  H     0.07349   0.33577   0.59668   0.00000  Uiso   1.00
H1027  H     0.13125   0.35098   0.58126   0.00000  Uiso   1.00
H1028  H     0.05853   0.55873   0.62968   0.00000  Uiso   1.00
H1029  H     0.10261   0.54646   0.64574   0.00000  Uiso   1.00
H1030  H     0.08419   0.51220   0.60790   0.00000  Uiso   1.00
H1031  H     0.31777   0.47326   0.78340   0.00000  Uiso   1.00
H1032  H     0.05679   0.48217   0.67151   0.00000  Uiso   1.00
H1033  H     0.01287   0.49470   0.65590   0.00000  Uiso   1.00
H1034  H     0.01037   0.56183   0.70089   0.00000  Uiso   1.00
H1035  H     0.05441   0.55120   0.71604   0.00000  Uiso   1.00
H1036  H     0.07553   0.37766   0.80629   0.00000  Uiso   1.00
H1037  H     0.11065   0.36679   0.83408   0.00000  Uiso   1.00
H1038  H     0.06229   0.63515   0.85206   0.00000  Uiso   1.00
H1039  H     0.03348   0.34738   0.86770   0.00000  Uiso   1.00
H1040  H     0.02726   0.64607   0.82470   0.00000  Uiso   1.00
H1041  H     0.21022   0.33724   0.72118   0.00000  Uiso   1.00
H1042  H     0.17681   0.52584   0.59613   0.00000  Uiso   1.00
H1043  H     0.21376   0.40747   0.60082   0.00000  Uiso   1.00
H1044  H     0.20695   0.40072   0.97072   0.00000  Uiso   1.00
H1045  H     0.12480   0.61882   0.96615   0.00000  Uiso   1.00
H1046  H     0.12041   0.59432   0.89959   0.00000  Uiso   1.00
H1047  H     0.16094   0.47791   0.90488   0.00000  Uiso   1.00
O1048  O     0.16667   0.50000   0.75000   0.00000  Uiso   1.00
O1049  O     0.15693   0.45726   0.66625   0.00000  Uiso   1.00
O1050  O     0.12687   0.53979   0.83749   0.00000  Uiso   1.00
O1051  O     0.21088   0.50826   0.65877   0.00000  Uiso   1.00
O1052  O     0.17198   0.49468   0.83749   0.00000  Uiso   1.00
O1053  O     0.14825   0.61965   0.52632   0.00000  Uiso   1.00
O1054  O     0.10942   0.65957   0.78301   0.00000  Uiso   1.00
O1055  O     0.17849   0.41434   0.77820   0.00000  Uiso   1.00
O1056  O     0.14581   0.59469   0.76767   0.00000  Uiso   1.00
O1057  O     0.07452   0.46584   0.73607   0.00000  Uiso   1.00
O1058  O     0.26785   0.52512   0.71805   0.00000  Uiso   1.00
O1059  O     0.06990   0.52293   0.77820   0.00000  Uiso   1.00
O1060  O     0.25440   0.48610   0.76767   0.00000  Uiso   1.00
O1061  O     0.13800   0.40236   0.73607   0.00000  Uiso   1.00
O1062  O     0.20437   0.58860   0.71805   0.00000  Uiso   1.00
Zn1063 Zn    0.19244   0.47423   0.78277   0.00000  Uiso   1.00
Zn1064 Zn    0.13459   0.45711   0.72257   0.00000  Uiso   1.00
Zn1065 Zn    0.21166   0.52997   0.71188   0.00000  Uiso   1.00
Zn1066 Zn    0.12798   0.53868   0.78277   0.00000  Uiso   1.00
C1067  C     0.38567   0.49281   0.75925   0.00000  Uiso   1.00
C1068  C     0.51847   0.45630   0.96290   0.00000  Uiso   1.00
C1069  C     0.53164   0.43143   0.98425   0.00000  Uiso   1.00
C1070  C     0.61449   0.50715   0.74109   0.00000  Uiso   1.00
C1071  C     0.53240   0.44502   0.52278   0.00000  Uiso   1.00
C1072  C     0.52141   0.48545   0.54016   0.00000  Uiso   1.00
C1073  C     0.54284   0.41781   0.54447   0.00000  Uiso   1.00
C1074  C     0.54081   0.42946   0.58389   0.00000  Uiso   1.00
C1075  C     0.52055   0.49679   0.58009   0.00000  Uiso   1.00
C1076  C     0.66099   0.51078   0.73708   0.00000  Uiso   1.00
C1077  C     0.34065   0.49128   0.76137   0.00000  Uiso   1.00
C1078  C     0.46341   0.57372   0.91571   0.00000  Uiso   1.00
C1079  C     0.51404   0.65582   0.74011   0.00000  Uiso   1.00
C1080  C     0.48279   0.34541   0.76241   0.00000  Uiso   1.00
C1081  C     0.48955   0.38951   0.75836   0.00000  Uiso   1.00
C1082  C     0.50997   0.61102   0.74151   0.00000  Uiso   1.00
C1083  C     0.52134   0.47852   0.64403   0.00000  Uiso   1.00
C1084  C     0.47912   0.52152   0.85606   0.00000  Uiso   1.00
C1085  C     0.47492   0.53432   0.89812   0.00000  Uiso   1.00
C1086  C     0.52953   0.46881   0.60166   0.00000  Uiso   1.00
C1087  C     0.46647   0.58780   0.95365   0.00000  Uiso   1.00
C1088  C     0.44388   0.62158   0.55834   0.00000  Uiso   1.00
C1089  C     0.48733   0.50837   0.91949   0.00000  Uiso   1.00
C1090  C     0.43658   0.33376   0.57163   0.00000  Uiso   1.00
C1091  C     0.35937   0.53597   0.70587   0.00000  Uiso   1.00
C1092  C     0.37454   0.50824   0.66689   0.00000  Uiso   1.00
C1093  C     0.40698   0.53307   0.63568   0.00000  Uiso   1.00
C1094  C     0.42170   0.35262   0.81597   0.00000  Uiso   1.00
C1095  C     0.38378   0.66032   0.84171   0.00000  Uiso   1.00
C1096  C     0.49150   0.52195   0.95770   0.00000  Uiso   1.00
C1097  C     0.48122   0.56272   0.97463   0.00000  Uiso   1.00
C1098  C     0.50627   0.49650   0.97908   0.00000  Uiso   1.00
C1099  C     0.50954   0.51195   0.51771   0.00000  Uiso   1.00
C1100  C     0.50127   0.55343   0.53252   0.00000  Uiso   1.00
C1101  C     0.48642   0.57828   0.51190   0.00000  Uiso   1.00
H1102  H     0.55109   0.38690   0.53130   0.00000  Uiso   1.00
H1103  H     0.50736   0.56820   0.55971   0.00000  Uiso   1.00
H1104  H     0.51855   0.44266   0.93358   0.00000  Uiso   1.00
H1105  H     0.44739   0.60785   0.58371   0.00000  Uiso   1.00
H1106  H     0.41492   0.60499   0.54963   0.00000  Uiso   1.00
H1107  H     0.43277   0.34848   0.54700   0.00000  Uiso   1.00
H1108  H     0.40682   0.33577   0.59668   0.00000  Uiso   1.00
H1109  H     0.46458   0.35098   0.58126   0.00000  Uiso   1.00
H1110  H     0.39186   0.55873   0.62968   0.00000  Uiso   1.00
H1111  H     0.43594   0.54646   0.64574   0.00000  Uiso   1.00
H1112  H     0.41753   0.51220   0.60790   0.00000  Uiso   1.00
H1113  H     0.65111   0.47326   0.78340   0.00000  Uiso   1.00
H1114  H     0.39012   0.48217   0.67151   0.00000  Uiso   1.00
H1115  H     0.34620   0.49470   0.65590   0.00000  Uiso   1.00
H1116  H     0.34371   0.56183   0.70089   0.00000  Uiso   1.00
H1117  H     0.38775   0.55120   0.71604   0.00000  Uiso   1.00
H1118  H     0.40886   0.37766   0.80629   0.00000  Uiso   1.00
H1119  H     0.44398   0.36679   0.83408   0.00000  Uiso   1.00
H1120  H     0.39562   0.63515   0.85206   0.00000  Uiso   1.00
H1121  H     0.36681   0.34738   0.86770   0.00000  Uiso   1.00
H1122  H     0.36059   0.64607   0.82470   0.00000  Uiso   1.00
H1123  H     0.54356   0.33724   0.72118   0.00000  Uiso   1.00
H1124  H     0.51014   0.52584   0.59613   0.00000  Uiso   1.00
H1125  H     0.54709   0.40747   0.60082   0.00000  Uiso   1.00
H1126  H     0.54029   0.40072   0.97072   0.00000  Uiso   1.00
H1127  H     0.45814   0.61882   0.96615   0.00000  Uiso   1.00
H1128  H     0.45374   0.59432   0.89959   0.00000  Uiso   1.00
H1129  H     0.49427   0.47791   0.90488   0.00000  Uiso   1.00
O1130  O     0.50000   0.50000   0.75000   0.00000  Uiso   1.00
O1131  O     0.49027   0.45726   0.66625   0.00000  Uiso   1.00
O1132  O     0.46020   0.53979   0.83749   0.00000  Uiso   1.00
O1133  O     0.54421   0.50826   0.65877   0.00000  Uiso   1.00
O1134  O     0.50532   0.49468   0.83749   0.00000  Uiso   1.00
O1135  O     0.48159   0.61965   0.52632   0.00000  Uiso   1.00
O1136  O     0.44275   0.65957   0.78301   0.00000  Uiso   1.00
O1137  O     0.51182   0.41434   0.77820   0.00000  Uiso   1.00
O1138  O     0.47914   0.59469   0.76767   0.00000  Uiso   1.00
O1139  O     0.40785   0.46584   0.73607   0.00000  Uiso   1.00
O1140  O     0.60119   0.52512   0.71805   0.00000  Uiso   1.00
O1141  O     0.40323   0.52293   0.77820   0.00000  Uiso   1.00
O1142  O     0.58773   0.48610   0.76767   0.00000  Uiso   1.00
O1143  O     0.47133   0.40236   0.73607   0.00000  Uiso   1.00
O1144  O     0.53771   0.58860   0.71805   0.00000  Uiso   1.00
Zn1145 Zn    0.52577   0.47423   0.78277   0.00000  Uiso   1.00
Zn1146 Zn    0.46792   0.45711   0.72257   0.00000  Uiso   1.00
Zn1147 Zn    0.54500   0.52997   0.71188   0.00000  Uiso   1.00
Zn1148 Zn    0.46131   0.53868   0.78277   0.00000  Uiso   1.00
C1149  C     0.71900   0.49281   0.75925   0.00000  Uiso   1.00
C1150  C     0.85181   0.45630   0.96290   0.00000  Uiso   1.00
C1151  C     0.86498   0.43143   0.98425   0.00000  Uiso   1.00
C1152  C     0.94783   0.50715   0.74109   0.00000  Uiso   1.00
C1153  C     0.86573   0.44502   0.52278   0.00000  Uiso   1.00
C1154  C     0.85475   0.48545   0.54016   0.00000  Uiso   1.00
C1155  C     0.87618   0.41781   0.54447   0.00000  Uiso   1.00
C1156  C     0.87414   0.42946   0.58389   0.00000  Uiso   1.00
C1157  C     0.85388   0.49679   0.58009   0.00000  Uiso   1.00
C1158  C     0.99432   0.51078   0.73708   0.00000  Uiso   1.00
C1159  C     0.67398   0.49128   0.76137   0.00000  Uiso   1.00
C1160  C     0.79674   0.57372   0.91571   0.00000  Uiso   1.00
C1161  C     0.84738   0.65582   0.74011   0.00000  Uiso   1.00
C1162  C     0.81612   0.34541   0.76241   0.00000  Uiso   1.00
C1163  C     0.82289   0.38951   0.75836   0.00000  Uiso   1.00
C1164  C     0.84331   0.61102   0.74151   0.00000  Uiso   1.00
C1165  C     0.85468   0.47852   0.64403   0.00000  Uiso   1.00
C1166  C     0.81245   0.52152   0.85606   0.00000  Uiso   1.00
C1167  C     0.80825   0.53432   0.89812   0.00000  Uiso   1.00
C1168  C     0.86286   0.46881   0.60166   0.00000  Uiso   1.00
C1169  C     0.79981   0.58780   0.95365   0.00000  Uiso   1.00
C1170  C     0.77721   0.62158   0.55834   0.00000  Uiso   1.00
C1171  C     0.82066   0.50837   0.91949   0.00000  Uiso   1.00
C1172  C     0.76991   0.33376   0.57163   0.00000  Uiso   1.00
C1173  C     0.69270   0.53597   0.70587   0.00000  Uiso   1.00
C1174  C     0.70787   0.50824   0.66689   0.00000  Uiso   1.00
C1175  C     0.74032   0.53307   0.63568   0.00000  Uiso   1.00
C1176  C     0.75503   0.35262   0.81597   0.00000  Uiso   1.00
C1177  C     0.71712   0.66032   0.84171   0.00000  Uiso   1.00
C1178  C     0.82483   0.52195   0.95770   0.00000  Uiso   1.00
C1179  C     0.81455   0.56272   0.97463   0.00000  Uiso   1.00
C1180  C     0.83960   0.49650   0.97908   0.00000  Uiso   1.00
C1181  C     0.84287   0.51195   0.51771   0.00000  Uiso   1.00
C1182  C     0.83461   0.55343   0.53252   0.00000  Uiso   1.00
C1183  C     0.81975   0.57828   0.51190   0.00000  Uiso   1.00
H1184  H     0.88443   0.38690   0.53130   0.00000  Uiso   1.00
H1185  H     0.84069   0.56820   0.55971   0.00000  Uiso   1.00
H1186  H     0.85188   0.44266   0.93358   0.00000  Uiso   1.00
H1187  H     0.78073   0.60785   0.58371   0.00000  Uiso   1.00
H1188  H     0.74825   0.60499   0.54963   0.00000  Uiso   1.00
H1189  H     0.76610   0.34848   0.54700   0.00000  Uiso   1.00
H1190  H     0.74016   0.33577   0.59668   0.00000  Uiso   1.00
H1191  H     0.79791   0.35098   0.58126   0.00000  Uiso   1.00
H1192  H     0.72519   0.55873   0.62968   0.00000  Uiso   1.00
H1193  H     0.76927   0.54646   0.64574   0.00000  Uiso   1.00
H1194  H     0.75086   0.51220   0.60790   0.00000  Uiso   1.00
H1195  H     0.98444   0.47326   0.78340   0.00000  Uiso   1.00
H1196  H     0.72346   0.48217   0.67151   0.00000  Uiso   1.00
H1197  H     0.67953   0.49470   0.65590   0.00000  Uiso   1.00
H1198  H     0.67704   0.56183   0.70089   0.00000  Uiso   1.00
H1199  H     0.72108   0.55120   0.71604   0.00000  Uiso   1.00
H1200  H     0.74220   0.37766   0.80629   0.00000  Uiso   1.00
H1201  H     0.77732   0.36679   0.83408   0.00000  Uiso   1.00
H1202  H     0.72896   0.63515   0.85206   0.00000  Uiso   1.00
H1203  H     0.70015   0.34738   0.86770   0.00000  Uiso   1.00
H1204  H     0.69392   0.64607   0.82470   0.00000  Uiso   1.00
H1205  H     0.87689   0.33724   0.72118   0.00000  Uiso   1.00
H1206  H     0.84347   0.52584   0.59613   0.00000  Uiso   1.00
H1207  H     0.88043   0.40747   0.60082   0.00000  Uiso   1.00
H1208  H     0.87362   0.40072   0.97072   0.00000  Uiso   1.00
H1209  H     0.79147   0.61882   0.96615   0.00000  Uiso   1.00
H1210  H     0.78707   0.59432   0.89959   0.00000  Uiso   1.00
H1211  H     0.82760   0.47791   0.90488   0.00000  Uiso   1.00
O1212  O     0.83333   0.50000   0.75000   0.00000  Uiso   1.00
O1213  O     0.82360   0.45726   0.66625   0.00000  Uiso   1.00
O1214  O     0.79354   0.53979   0.83749   0.00000  Uiso   1.00
O1215  O     0.87755   0.50826   0.65877   0.00000  Uiso   1.00
O1216  O     0.83865   0.49468   0.83749   0.00000  Uiso   1.00
O1217  O     0.81492   0.61965   0.52632   0.00000  Uiso   1.00
O1218  O     0.77608   0.65957   0.78301   0.00000  Uiso   1.00
O1219  O     0.84515   0.41434   0.77820   0.00000  Uiso   1.00
O1220  O     0.81247   0.59469   0.76767   0.00000  Uiso   1.00
O1221  O     0.74119   0.46584   0.73607   0.00000  Uiso   1.00
O1222  O     0.93452   0.52512   0.71805   0.00000  Uiso   1.00
O1223  O     0.73656   0.52293   0.77820   0.00000  Uiso   1.00
O1224  O     0.92106   0.48610   0.76767   0.00000  Uiso   1.00
O1225  O     0.80467   0.40236   0.73607   0.00000  Uiso   1.00
O1226  O     0.87104   0.58860   0.71805   0.00000  Uiso   1.00
Zn1227 Zn    0.85910   0.47423   0.78277   0.00000  Uiso   1.00
Zn1228 Zn    0.80125   0.45711   0.72257   0.00000  Uiso   1.00
Zn1229 Zn    0.87833   0.52997   0.71188   0.00000  Uiso   1.00
Zn1230 Zn    0.79465   0.53868   0.78277   0.00000  Uiso   1.00
C1231  C     0.05234   0.82614   0.75925   0.00000  Uiso   1.00
C1232  C     0.18514   0.78963   0.96290   0.00000  Uiso   1.00
C1233  C     0.19831   0.76476   0.98425   0.00000  Uiso   1.00
C1234  C     0.28116   0.84049   0.74109   0.00000  Uiso   1.00
C1235  C     0.19907   0.77836   0.52278   0.00000  Uiso   1.00
C1236  C     0.18808   0.81878   0.54016   0.00000  Uiso   1.00
C1237  C     0.20951   0.75114   0.54447   0.00000  Uiso   1.00
C1238  C     0.20747   0.76280   0.58389   0.00000  Uiso   1.00
C1239  C     0.18722   0.83013   0.58009   0.00000  Uiso   1.00
C1240  C     0.32765   0.84411   0.73708   0.00000  Uiso   1.00
C1241  C     0.00732   0.82461   0.76137   0.00000  Uiso   1.00
C1242  C     0.13007   0.90706   0.91571   0.00000  Uiso   1.00
C1243  C     0.18071   0.98916   0.74011   0.00000  Uiso   1.00
C1244  C     0.14945   0.67874   0.76241   0.00000  Uiso   1.00
C1245  C     0.15622   0.72285   0.75836   0.00000  Uiso   1.00
C1246  C     0.17664   0.94435   0.74151   0.00000  Uiso   1.00
C1247  C     0.18801   0.81185   0.64403   0.00000  Uiso   1.00
C1248  C     0.14578   0.85485   0.85606   0.00000  Uiso   1.00
C1249  C     0.14158   0.86765   0.89812   0.00000  Uiso   1.00
C1250  C     0.19619   0.80214   0.60166   0.00000  Uiso   1.00
C1251  C     0.13314   0.92113   0.95365   0.00000  Uiso   1.00
C1252  C     0.11055   0.95492   0.55834   0.00000  Uiso   1.00
C1253  C     0.15399   0.84170   0.91949   0.00000  Uiso   1.00
C1254  C     0.10324   0.66709   0.57163   0.00000  Uiso   1.00
C1255  C     0.02604   0.86930   0.70587   0.00000  Uiso   1.00
C1256  C     0.04120   0.84157   0.66689   0.00000  Uiso   1.00
C1257  C     0.07365   0.86641   0.63568   0.00000  Uiso   1.00
C1258  C     0.08836   0.68595   0.81597   0.00000  Uiso   1.00
C1259  C     0.05045   0.99366   0.84171   0.00000  Uiso   1.00
C1260  C     0.15816   0.85528   0.95770   0.00000  Uiso   1.00
C1261  C     0.14789   0.89605   0.97463   0.00000  Uiso   1.00
C1262  C     0.17293   0.82984   0.97908   0.00000  Uiso   1.00
C1263  C     0.17620   0.84528   0.51771   0.00000  Uiso   1.00
C1264  C     0.16794   0.88676   0.53252   0.00000  Uiso   1.00
C1265  C     0.15309   0.91161   0.51190   0.00000  Uiso   1.00
H1266  H     0.21776   0.72023   0.53130   0.00000  Uiso   1.00
H1267  H     0.17402   0.90154   0.55971   0.00000  Uiso   1.00
H1268  H     0.18522   0.77600   0.93358   0.00000  Uiso   1.00
H1269  H     0.11406   0.94118   0.58371   0.00000  Uiso   1.00
H1270  H     0.08159   0.93833   0.54963   0.00000  Uiso   1.00
H1271  H     0.09943   0.68182   0.54700   0.00000  Uiso   1.00
H1272  H     0.07349   0.66911   0.59668   0.00000  Uiso   1.00
H1273  H     0.13125   0.68431   0.58126   0.00000  Uiso   1.00
H1274  H     0.05853   0.89206   0.62968   0.00000  Uiso   1.00
H1275  H     0.10261   0.87979   0.64574   0.00000  Uiso   1.00
H1276  H     0.08419   0.84554   0.60790   0.00000  Uiso   1.00
H1277  H     0.31777   0.80659   0.78340   0.00000  Uiso   1.00
H1278  H     0.05679   0.81550   0.67151   0.00000  Uiso   1.00
H1279  H     0.01287   0.82804   0.65590   0.00000  Uiso   1.00
H1280  H     0.01037   0.89516   0.70089   0.00000  Uiso   1.00
H1281  H     0.05441   0.88454   0.71604   0.00000  Uiso   1.00
H1282  H     0.07553   0.71099   0.80629   0.00000  Uiso   1.00
H1283  H     0.11065   0.70012   0.83408   0.00000  Uiso   1.00
H1284  H     0.06229   0.96848   0.85206   0.00000  Uiso   1.00
H1285  H     0.03348   0.68071   0.86770   0.00000  Uiso   1.00
H1286  H     0.02726   0.97941   0.82470   0.00000  Uiso   1.00
H1287  H     0.21022   0.67057   0.72118   0.00000  Uiso   1.00
H1288  H     0.17681   0.85918   0.59613   0.00000  Uiso   1.00
H1289  H     0.21376   0.74080   0.60082   0.00000  Uiso   1.00
H1290  H     0.20695   0.73405   0.97072   0.00000  Uiso   1.00
H1291  H     0.12480   0.95215   0.96615   0.00000  Uiso   1.00
H1292  H     0.12041   0.92765   0.89959   0.00000  Uiso   1.00
H1293  H     0.16094   0.81124   0.90488   0.00000  Uiso   1.00
O1294  O     0.16667   0.83333   0.75000   0.00000  Uiso   1.00
O1295  O     0.15693   0.79060   0.66625   0.00000  Uiso   1.00
O1296  O     0.12687   0.87313   0.83749   0.00000  Uiso   1.00
O1297  O     0.21088   0.84159   0.65877   0.00000  Uiso   1.00
O1298  O     0.17198   0.82802   0.83749   0.00000  Uiso   1.00
O1299  O     0.14825   0.95299   0.52632   0.00000  Uiso   1.00
O1300  O     0.10942   0.99290   0.78301   0.00000  Uiso   1.00
O1301  O     0.17849   0.74768   0.77820   0.00000  Uiso   1.00
O1302  O     0.14581   0.92803   0.76767   0.00000  Uiso   1.00
O1303  O     0.07452   0.79917   0.73607   0.00000  Uiso   1.00
O1304  O     0.26785   0.85845   0.71805   0.00000  Uiso   1.00
O1305  O     0.06990   0.85627   0.77820   0.00000  Uiso   1.00
O1306  O     0.25440   0.81944   0.76767   0.00000  Uiso   1.00
O1307  O     0.13800   0.73570   0.73607   0.00000  Uiso   1.00
O1308  O     0.20437   0.92193   0.71805   0.00000  Uiso   1.00
Zn1309 Zn    0.19244   0.80756   0.78277   0.00000  Uiso   1.00
Zn1310 Zn    0.13459   0.79044   0.72257   0.00000  Uiso   1.00
Zn1311 Zn    0.21166   0.86331   0.71188   0.00000  Uiso   1.00
Zn1312 Zn    0.12798   0.87202   0.78277   0.00000  Uiso   1.00
C1313  C     0.38567   0.82614   0.75925   0.00000  Uiso   1.00
C1314  C     0.51847   0.78963   0.96290   0.00000  Uiso   1.00
C1315  C     0.53164   0.76476   0.98425   0.00000  Uiso   1.00
C1316  C     0.61449   0.84049   0.74109   0.00000  Uiso   1.00
C1317  C     0.53240   0.77836   0.52278   0.00000  Uiso   1.00
C1318  C     0.52141   0.81878   0.54016   0.00000  Uiso   1.00
C1319  C     0.54284   0.75114   0.54447   0.00000  Uiso   1.00
C1320  C     0.54081   0.76280   0.58389   0.00000  Uiso   1.00
C1321  C     0.52055   0.83013   0.58009   0.00000  Uiso   1.00
C1322  C     0.66099   0.84411   0.73708   0.00000  Uiso   1.00
C1323  C     0.34065   0.82461   0.76137   0.00000  Uiso   1.00
C1324  C     0.46341   0.90706   0.91571   0.00000  Uiso   1.00
C1325  C     0.51404   0.98916   0.74011   0.00000  Uiso   1.00
C1326  C     0.48279   0.67874   0.76241   0.00000  Uiso   1.00
C1327  C     0.48955   0.72285   0.75836   0.00000  Uiso   1.00
C1328  C     0.50997   0.94435   0.74151   0.00000  Uiso   1.00
C1329  C     0.52134   0.81185   0.64403   0.00000  Uiso   1.00
C1330  C     0.47912   0.85485   0.85606   0.00000  Uiso   1.00
C1331  C     0.47492   0.86765   0.89812   0.00000  Uiso   1.00
C1332  C     0.52953   0.80214   0.60166   0.00000  Uiso   1.00
C1333  C     0.46647   0.92113   0.95365   0.00000  Uiso   1.00
C1334  C     0.44388   0.95492   0.55834   0.00000  Uiso   1.00
C1335  C     0.48733   0.84170   0.91949   0.00000  Uiso   1.00
C1336  C     0.43658   0.66709   0.57163   0.00000  Uiso   1.00
C1337  C     0.35937   0.86930   0.70587   0.00000  Uiso   1.00
C1338  C     0.37454   0.84157   0.66689   0.00000  Uiso   1.00
C1339  C     0.40698   0.86641   0.63568   0.00000  Uiso   1.00
C1340  C     0.42170   0.68595   0.81597   0.00000  Uiso   1.00
C1341  C     0.38378   0.99366   0.84171   0.00000  Uiso   1.00
C1342  C     0.49150   0.85528   0.95770   0.00000  Uiso   1.00
C1343  C     0.48122   0.89605   0.97463   0.00000  Uiso   1.00
C1344  C     0.50627   0.82984   0.97908   0.00000  Uiso   1.00
C1345  C     0.50954   0.84528   0.51771   0.00000  Uiso   1.00
C1346  C     0.50127   0.88676   0.53252   0.00000  Uiso   1.00
C1347  C     0.48642   0.91161   0.51190   0.00000  Uiso   1.00
H1348  H     0.55109   0.72023   0.53130   0.00000  Uiso   1.00
H1349  H     0.50736   0.90154   0.55971   0.00000  Uiso   1.00
H1350  H     0.51855   0.77600   0.93358   0.00000  Uiso   1.00
H1351  H     0.44739   0.94118   0.58371   0.00000  Uiso   1.00
H1352  H     0.41492   0.93833   0.54963   0.00000  Uiso   1.00
H1353  H     0.43277   0.68182   0.54700   0.00000  Uiso   1.00
H1354  H     0.40682   0.66911   0.59668   0.00000  Uiso   1.00
H1355  H     0.46458   0.68431   0.58126   0.00000  Uiso   1.00
H1356  H     0.39186   0.89206   0.62968   0.00000  Uiso   1.00
H1357  H     0.43594   0.87979   0.64574   0.00000  Uiso   1.00
H1358  H     0.41753   0.84554   0.60790   0.00000  Uiso   1.00
H1359  H     0.65111   0.80659   0.78340   0.00000  Uiso   1.00
H1360  H     0.39012   0.81550   0.67151   0.00000  Uiso   1.00
H1361  H     0.34620   0.82804   0.65590   0.00000  Uiso   1.00
H1362  H     0.34371   0.89516   0.70089   0.00000  Uiso   1.00
H1363  H     0.38775   0.88454   0.71604   0.00000  Uiso   1.00
H1364  H     0.40886   0.71099   0.80629   0.00000  Uiso   1.00
H1365  H     0.44398   0.70012   0.83408   0.00000  Uiso   1.00
H1366  H     0.39562   0.96848   0.85206   0.00000  Uiso   1.00
H1367  H     0.36681   0.68071   0.86770   0.00000  Uiso   1.00
H1368  H     0.36059   0.97941   0.82470   0.00000  Uiso   1.00
H1369  H     0.54356   0.67057   0.72118   0.00000  Uiso   1.00
H1370  H     0.51014   0.85918   0.59613   0.00000  Uiso   1.00
H1371  H     0.54709   0.74080   0.60082   0.00000  Uiso   1.00
H1372  H     0.54029   0.73405   0.97072   0.00000  Uiso   1.00
H1373  H     0.45814   0.95215   0.96615   0.00000  Uiso   1.00
H1374  H     0.45374   0.92765   0.89959   0.00000  Uiso   1.00
H1375  H     0.49427   0.81124   0.90488   0.00000  Uiso   1.00
O1376  O     0.50000   0.83333   0.75000   0.00000  Uiso   1.00
O1377  O     0.49027   0.79060   0.66625   0.00000  Uiso   1.00
O1378  O     0.46020   0.87313   0.83749   0.00000  Uiso   1.00
O1379  O     0.54421   0.84159   0.65877   0.00000  Uiso   1.00
O1380  O     0.50532   0.82802   0.83749   0.00000  Uiso   1.00
O1381  O     0.48159   0.95299   0.52632   0.00000  Uiso   1.00
O1382  O     0.44275   0.99290   0.78301   0.00000  Uiso   1.00
O1383  O     0.51182   0.74768   0.77820   0.00000  Uiso   1.00
O1384  O     0.47914   0.92803   0.76767   0.00000  Uiso   1.00
O1385  O     0.40785   0.79917   0.73607   0.00000  Uiso   1.00
O1386  O     0.60119   0.85845   0.71805   0.00000  Uiso   1.00
O1387  O     0.40323   0.85627   0.77820   0.00000  Uiso   1.00
O1388  O     0.58773   0.81944   0.76767   0.00000  Uiso   1.00
O1389  O     0.47133   0.73570   0.73607   0.00000  Uiso   1.00
O1390  O     0.53771   0.92193   0.71805   0.00000  Uiso   1.00
Zn1391 Zn    0.52577   0.80756   0.78277   0.00000  Uiso   1.00
Zn1392 Zn    0.46792   0.79044   0.72257   0.00000  Uiso   1.00
Zn1393 Zn    0.54500   0.86331   0.71188   0.00000  Uiso   1.00
Zn1394 Zn    0.46131   0.87202   0.78277   0.00000  Uiso   1.00
C1395  C     0.71900   0.82614   0.75925   0.00000  Uiso   1.00
C1396  C     0.85181   0.78963   0.96290   0.00000  Uiso   1.00
C1397  C     0.86498   0.76476   0.98425   0.00000  Uiso   1.00
C1398  C     0.94783   0.84049   0.74109   0.00000  Uiso   1.00
C1399  C     0.86573   0.77836   0.52278   0.00000  Uiso   1.00
C1400  C     0.85475   0.81878   0.54016   0.00000  Uiso   1.00
C1401  C     0.87618   0.75114   0.54447   0.00000  Uiso   1.00
C1402  C     0.87414   0.76280   0.58389   0.00000  Uiso   1.00
C1403  C     0.85388   0.83013   0.58009   0.00000  Uiso   1.00
C1404  C     0.99432   0.84411   0.73708   0.00000  Uiso   1.00
C1405  C     0.67398   0.82461   0.76137   0.00000  Uiso   1.00
C1406  C     0.79674   0.90706   0.91571   0.00000  Uiso   1.00
C1407  C     0.84738   0.98916   0.74011   0.00000  Uiso   1.00
C1408  C     0.81612   0.67874   0.76241   0.00000  Uiso   1.00
C1409  C     0.82289   0.72285   0.75836   0.00000  Uiso   1.00
C1410  C     0.84331   0.94435   0.74151   0.00000  Uiso   1.00
C1411  C     0.85468   0.81185   0.64403   0.00000  Uiso   1.00
C1412  C     0.81245   0.85485   0.85606   0.00000  Uiso   1.00
C1413  C     0.80825   0.86765   0.89812   0.00000  Uiso   1.00
C1414  C     0.86286   0.80214   0.60166   0.00000  Uiso   1.00
C1415  C     0.79981   0.92113   0.95365   0.00000  Uiso   1.00
C1416  C     0.77721   0.95492   0.55834   0.00000  Uiso   1.00
C1417  C     0.82066   0.84170   0.91949   0.00000  Uiso   1.00
C1418  C     0.76991   0.66709   0.57163   0.00000  Uiso   1.00
C1419  C     0.69270   0.86930   0.70587   0.00000  Uiso   1.00
C1420  C     0.70787   0.84157   0.66689   0.00000  Uiso   1.00
C1421  C     0.74032   0.86641   0.63568   0.00000  Uiso   1.00
C1422  C     0.75503   0.68595   0.81597   0.00000  Uiso   1.00
C1423  C     0.71712   0.99366   0.84171   0.00000  Uiso   1.00
C1424  C     0.82483   0.85528   0.95770   0.00000  Uiso   1.00
C1425  C     0.81455   0.89605   0.97463   0.00000  Uiso   1.00
C1426  C     0.83960   0.82984   0.97908   0.00000  Uiso   1.00
C1427  C     0.84287   0.84528   0.51771   0.00000  Uiso   1.00
C1428  C     0.83461   0.88676   0.53252   0.00000  Uiso   1.00
C1429  C     0.81975   0.91161   0.51190   0.00000  Uiso   1.00
H1430  H     0.88443   0.72023   0.53130   0.00000  Uiso   1.00
H1431  H     0.84069   0.90154   0.55971   0.00000  Uiso   1.00
H1432  H     0.85188   0.77600   0.93358   0.00000  Uiso   1.00
H1433  H     0.78073   0.94118   0.58371   0.00000  Uiso   1.00
H1434  H     0.74825   0.93833   0.54963   0.00000  Uiso   1.00
H1435  H     0.76610   0.68182   0.54700   0.00000  Uiso   1.00
H1436  H     0.74016   0.66911   0.59668   0.00000  Uiso   1.00
H1437  H     0.79791   0.68431   0.58126   0.00000  Uiso   1.00
H1438  H     0.72519   0.89206   0.62968   0.00000  Uiso   1.00
H1439  H     0.76927   0.87979   0.64574   0.00000  Uiso   1.00
H1440  H     0.75086   0.84554   0.60790   0.00000  Uiso   1.00
H1441  H     0.98444   0.80659   0.78340   0.00000  Uiso   1.00
H1442  H     0.72346   0.81550   0.67151   0.00000  Uiso   1.00
H1443  H     0.67953   0.82804   0.65590   0.00000  Uiso   1.00
H1444  H     0.67704   0.89516   0.70089   0.00000  Uiso   1.00
H1445  H     0.72108   0.88454   0.71604   0.00000  Uiso   1.00
H1446  H     0.74220   0.71099   0.80629   0.00000  Uiso   1.00
H1447  H     0.77732   0.70012   0.83408   0.00000  Uiso   1.00
H1448  H     0.72896   0.96848   0.85206   0.00000  Uiso   1.00
H1449  H     0.70015   0.68071   0.86770   0.00000  Uiso   1.00
H1450  H     0.69392   0.97941   0.82470   0.00000  Uiso   1.00
H1451  H     0.87689   0.67057   0.72118   0.00000  Uiso   1.00
H1452  H     0.84347   0.85918   0.59613   0.00000  Uiso   1.00
H1453  H     0.88043   0.74080   0.60082   0.00000  Uiso   1.00
H1454  H     0.87362   0.73405   0.97072   0.00000  Uiso   1.00
H1455  H     0.79147   0.95215   0.96615   0.00000  Uiso   1.00
H1456  H     0.78707   0.92765   0.89959   0.00000  Uiso   1.00
H1457  H     0.82760   0.81124   0.90488   0.00000  Uiso   1.00
O1458  O     0.83333   0.83333   0.75000   0.00000  Uiso   1.00
O1459  O     0.82360   0.79060   0.66625   0.00000  Uiso   1.00
O1460  O     0.79354   0.87313   0.83749   0.00000  Uiso   1.00
O1461  O     0.87755   0.84159   0.65877   0.00000  Uiso   1.00
O1462  O     0.83865   0.82802   0.83749   0.00000  Uiso   1.00
O1463  O     0.81492   0.95299   0.52632   0.00000  Uiso   1.00
O1464  O     0.77608   0.99290   0.78301   0.00000  Uiso   1.00
O1465  O     0.84515   0.74768   0.77820   0.00000  Uiso   1.00
O1466  O     0.81247   0.92803   0.76767   0.00000  Uiso   1.00
O1467  O     0.74119   0.79917   0.73607   0.00000  Uiso   1.00
O1468  O     0.93452   0.85845   0.71805   0.00000  Uiso   1.00
O1469  O     0.73656   0.85627   0.77820   0.00000  Uiso   1.00
O1470  O     0.92106   0.81944   0.76767   0.00000  Uiso   1.00
O1471  O     0.80467   0.73570   0.73607   0.00000  Uiso   1.00
O1472  O     0.87104   0.92193   0.71805   0.00000  Uiso   1.00
Zn1473 Zn    0.85910   0.80756   0.78277   0.00000  Uiso   1.00
Zn1474 Zn    0.80125   0.79044   0.72257   0.00000  Uiso   1.00
Zn1475 Zn    0.87833   0.86331   0.71188   0.00000  Uiso   1.00
Zn1476 Zn    0.79465   0.87202   0.78277   0.00000  Uiso   1.00
loop_
_geom_bond_atom_site_label_1
_geom_bond_atom_site_label_2
_geom_bond_distance
_geom_bond_site_symmetry_2
_ccdc_geom_bond_type
C1     C11     1.438   .     S
C1     O75     1.267   .     A
C1     O73     1.266   .     A
C2     C32     1.417   .     A
C2     H38     1.075   .     S
C2     C3      1.384   .     A
C3     H60     1.085   .     S
C3     C743    1.388   .     S
C4     O74     1.283   .     A
C4     C10     1.465   .     S
C4     O76     1.288   .     A
C5     C6      1.421   .     A
C5     C7      1.402   .     A
C5     C741    1.388   1_554 S
C6     C9      1.413   .     A
C6     C33     1.428   .     A
C7     H36     1.084   .     S
C7     C8      1.388   .     A
C8     C20     1.395   .     A
C8     H59     1.084   .     S
C9     H58     1.078   .     S
C9     C20     1.394   .     A
C10    C93     1.344   .     S
C10    C107    1.524   .     S
C11    C174    1.344   1_455 S
C11    H211    1.086   1_455 S
C12    C21     1.392   .     A
C12    H62     1.083   .     S
C12    C19     1.397   .     A
C13    C16     1.454   .     S
C13    C260    1.343   .     S
C13    H303    1.088   .     S
C14    C15     1.445   .     S
C14    C505    1.343   1_545 S
C14    O562    1.397   1_545 S
C15    O71     1.278   .     A
C15    O77     1.273   .     A
C16    O72     1.264   .     A
C16    O78     1.274   .     A
C17    C20     1.452   .     S
C17    O67     1.276   .     A
C17    O65     1.269   .     A
C18    O68     1.286   .     A
C18    C19     1.470   .     S
C18    O66     1.285   .     A
C19    C23     1.396   .     A
C21    C31     1.409   .     A
C21    H61     1.083   .     S
C22    O69     1.411   .     S
C22    H40     1.115   .     S
C22    H39     1.113   .     S
C22    C270    1.521   .     S
C23    H63     1.074   .     S
C23    C30     1.411   .     A
C24    H42     1.110   .     S
C24    H41     1.111   .     S
C24    H43     1.111   .     S
C24    C514    1.521   1_545 S
C25    H50     1.112   .     S
C25    C26     1.534   .     S
C25    H51     1.111   .     S
C25    C174    1.524   1_455 S
C26    C27     1.527   .     S
C26    H48     1.111   .     S
C26    H49     1.112   .     S
C27    H44     1.111   .     S
C27    H45     1.111   .     S
C27    H46     1.111   .     S
C28    H53     1.115   .     S
C28    H52     1.113   .     S
C28    C521    1.521   1_545 S
C28    O562    1.413   1_545 S
C29    H54     1.111   .     S
C29    H56     1.111   .     S
C29    C274    1.521   .     S
C29    H301    1.110   .     S
C30    C31     1.422   .     A
C30    C32     1.428   .     A
C31    C773    1.402   .     S
C32    C771    1.426   .     S
C33    C34     1.412   .     A
C33    C770    1.426   1_554 S
C34    H37     1.077   .     S
C34    C35     1.396   .     A
C35    O69     1.385   .     S
C35    C769    1.402   1_554 S
H47    C93     1.086   .     S
H55    C521    1.110   1_545 S
H57    C505    1.088   1_545 S
O64    Zn80    1.936   .     S
O64    Zn82    1.929   .     S
O64    Zn79    1.971   .     S
O64    Zn81    1.934   .     S
O65    Zn80    1.929   .     S
O66    Zn82    1.941   .     S
O67    Zn81    1.930   .     S
O68    Zn79    1.920   .     S
O70    C260    1.397   .     S
O70    C274    1.413   .     S
O71    Zn79    1.930   .     S
O72    Zn82    1.938   .     S
O73    Zn80    1.926   .     S
O74    Zn81    1.939   .     S
O75    Zn82    1.929   .     S
O76    Zn79    1.920   .     S
O77    Zn80    1.947   .     S
O78    Zn81    1.935   .     S
C83    C93     1.438   .     S
C83    O157    1.267   .     A
C83    O155    1.266   .     A
C84    C114    1.417   .     A
C84    H120    1.075   .     S
C84    C85     1.384   .     A
C85    H142    1.085   .     S
C85    C825    1.388   .     S
C86    O156    1.283   .     A
C86    C92     1.465   .     S
C86    O158    1.288   .     A
C87    C88     1.421   .     A
C87    C89     1.402   .     A
C87    C823    1.388   1_554 S
C88    C91     1.413   .     A
C88    C115    1.428   .     A
C89    H118    1.084   .     S
C89    C90     1.388   .     A
C90    C102    1.395   .     A
C90    H141    1.084   .     S
C91    H140    1.078   .     S
C91    C102    1.394   .     A
C92    C175    1.344   .     S
C92    C189    1.524   .     S
C94    C103    1.392   .     A
C94    H144    1.083   .     S
C94    C101    1.397   .     A
C95    C98     1.454   .     S
C95    C342    1.343   .     S
C95    H385    1.088   .     S
C96    C97     1.445   .     S
C96    C587    1.343   1_545 S
C96    O644    1.397   1_545 S
C97    O153    1.278   .     A
C97    O159    1.273   .     A
C98    O154    1.264   .     A
C98    O160    1.274   .     A
C99    C102    1.452   .     S
C99    O149    1.276   .     A
C99    O147    1.269   .     A
C100   O150    1.286   .     A
C100   C101    1.470   .     S
C100   O148    1.285   .     A
C101   C105    1.396   .     A
C103   C113    1.409   .     A
C103   H143    1.083   .     S
C104   O151    1.411   .     S
C104   H122    1.115   .     S
C104   H121    1.113   .     S
C104   C352    1.521   .     S
C105   H145    1.074   .     S
C105   C112    1.411   .     A
C106   H124    1.110   .     S
C106   H123    1.111   .     S
C106   H125    1.111   .     S
C106   C596    1.521   1_545 S
C107   H132    1.112   .     S
C107   C108    1.534   .     S
C107   H133    1.111   .     S
C108   C109    1.527   .     S
C108   H130    1.111   .     S
C108   H131    1.112   .     S
C109   H126    1.111   .     S
C109   H127    1.111   .     S
C109   H128    1.111   .     S
C110   H135    1.115   .     S
C110   H134    1.113   .     S
C110   C603    1.521   1_545 S
C110   O644    1.413   1_545 S
C111   H136    1.111   .     S
C111   H138    1.111   .     S
C111   C356    1.521   .     S
C111   H383    1.110   .     S
C112   C113    1.422   .     A
C112   C114    1.428   .     A
C113   C855    1.402   .     S
C114   C853    1.426   .     S
C115   C116    1.412   .     A
C115   C852    1.426   1_554 S
C116   H119    1.077   .     S
C116   C117    1.396   .     A
C117   O151    1.385   .     S
C117   C851    1.402   1_554 S
H129   C175    1.086   .     S
H137   C603    1.110   1_545 S
H139   C587    1.088   1_545 S
O146   Zn162   1.936   .     S
O146   Zn164   1.929   .     S
O146   Zn161   1.971   .     S
O146   Zn163   1.934   .     S
O147   Zn162   1.929   .     S
O148   Zn164   1.941   .     S
O149   Zn163   1.930   .     S
O150   Zn161   1.920   .     S
O152   C342    1.397   .     S
O152   C356    1.413   .     S
O153   Zn161   1.930   .     S
O154   Zn164   1.938   .     S
O155   Zn162   1.926   .     S
O156   Zn163   1.939   .     S
O157   Zn164   1.929   .     S
O158   Zn161   1.920   .     S
O159   Zn162   1.947   .     S
O160   Zn163   1.935   .     S
C165   C175    1.438   .     S
C165   O239    1.267   .     A
C165   O237    1.266   .     A
C166   C196    1.417   .     A
C166   H202    1.075   .     S
C166   C167    1.384   .     A
C167   H224    1.085   .     S
C167   C907    1.388   .     S
C168   O238    1.283   .     A
C168   C174    1.465   .     S
C168   O240    1.288   .     A
C169   C170    1.421   .     A
C169   C171    1.402   .     A
C169   C905    1.388   1_554 S
C170   C173    1.413   .     A
C170   C197    1.428   .     A
C171   H200    1.084   .     S
C171   C172    1.388   .     A
C172   C184    1.395   .     A
C172   H223    1.084   .     S
C173   H222    1.078   .     S
C173   C184    1.394   .     A
C174   C11     1.344   1_655 S
C174   C25     1.524   1_655 S
C176   C185    1.392   .     A
C176   H226    1.083   .     S
C176   C183    1.397   .     A
C177   C180    1.454   .     S
C177   C424    1.343   .     S
C177   H467    1.088   .     S
C178   C179    1.445   .     S
C178   C669    1.343   1_545 S
C178   O726    1.397   1_545 S
C179   O235    1.278   .     A
C179   O241    1.273   .     A
C180   O236    1.264   .     A
C180   O242    1.274   .     A
C181   C184    1.452   .     S
C181   O231    1.276   .     A
C181   O229    1.269   .     A
C182   O232    1.286   .     A
C182   C183    1.470   .     S
C182   O230    1.285   .     A
C183   C187    1.396   .     A
C185   C195    1.409   .     A
C185   H225    1.083   .     S
C186   O233    1.411   .     S
C186   H204    1.115   .     S
C186   H203    1.113   .     S
C186   C434    1.521   .     S
C187   H227    1.074   .     S
C187   C194    1.411   .     A
C188   H206    1.110   .     S
C188   H205    1.111   .     S
C188   H207    1.111   .     S
C188   C678    1.521   1_545 S
C189   H214    1.112   .     S
C189   C190    1.534   .     S
C189   H215    1.111   .     S
C190   C191    1.527   .     S
C190   H212    1.111   .     S
C190   H213    1.112   .     S
C191   H208    1.111   .     S
C191   H209    1.111   .     S
C191   H210    1.111   .     S
C192   H217    1.115   .     S
C192   H216    1.113   .     S
C192   C685    1.521   1_545 S
C192   O726    1.413   1_545 S
C193   H218    1.111   .     S
C193   H220    1.111   .     S
C193   C438    1.521   .     S
C193   H465    1.110   .     S
C194   C195    1.422   .     A
C194   C196    1.428   .     A
C195   C937    1.402   .     S
C196   C935    1.426   .     S
C197   C198    1.412   .     A
C197   C934    1.426   1_554 S
C198   H201    1.077   .     S
C198   C199    1.396   .     A
C199   O233    1.385   .     S
C199   C933    1.402   1_554 S
H211   C11     1.086   1_655 S
H219   C685    1.110   1_545 S
H221   C669    1.088   1_545 S
O228   Zn244   1.936   .     S
O228   Zn246   1.929   .     S
O228   Zn243   1.971   .     S
O228   Zn245   1.934   .     S
O229   Zn244   1.929   .     S
O230   Zn246   1.941   .     S
O231   Zn245   1.930   .     S
O232   Zn243   1.920   .     S
O234   C424    1.397   .     S
O234   C438    1.413   .     S
O235   Zn243   1.930   .     S
O236   Zn246   1.938   .     S
O237   Zn244   1.926   .     S
O238   Zn245   1.939   .     S
O239   Zn246   1.929   .     S
O240   Zn243   1.920   .     S
O241   Zn244   1.947   .     S
O242   Zn245   1.935   .     S
C247   C257    1.438   .     S
C247   O321    1.267   .     A
C247   O319    1.266   .     A
C248   C278    1.417   .     A
C248   H284    1.075   .     S
C248   C249    1.384   .     A
C249   H306    1.085   .     S
C249   C989    1.388   .     S
C250   O320    1.283   .     A
C250   C256    1.465   .     S
C250   O322    1.288   .     A
C251   C252    1.421   .     A
C251   C253    1.402   .     A
C251   C987    1.388   1_554 S
C252   C255    1.413   .     A
C252   C279    1.428   .     A
C253   H282    1.084   .     S
C253   C254    1.388   .     A
C254   C266    1.395   .     A
C254   H305    1.084   .     S
C255   H304    1.078   .     S
C255   C266    1.394   .     A
C256   C339    1.344   .     S
C256   C353    1.524   .     S
C257   C420    1.344   1_455 S
C257   H457    1.086   1_455 S
C258   C267    1.392   .     A
C258   H308    1.083   .     S
C258   C265    1.397   .     A
C259   C262    1.454   .     S
C259   C506    1.343   .     S
C259   H549    1.088   .     S
C260   C261    1.445   .     S
C261   O317    1.278   .     A
C261   O323    1.273   .     A
C262   O318    1.264   .     A
C262   O324    1.274   .     A
C263   C266    1.452   .     S
C263   O313    1.276   .     A
C263   O311    1.269   .     A
C264   O314    1.286   .     A
C264   C265    1.470   .     S
C264   O312    1.285   .     A
C265   C269    1.396   .     A
C267   C277    1.409   .     A
C267   H307    1.083   .     S
C268   O315    1.411   .     S
C268   H286    1.115   .     S
C268   H285    1.113   .     S
C268   C516    1.521   .     S
C269   H309    1.074   .     S
C269   C276    1.411   .     A
C270   H288    1.110   .     S
C270   H287    1.111   .     S
C270   H289    1.111   .     S
C271   H296    1.112   .     S
C271   C272    1.534   .     S
C271   H297    1.111   .     S
C271   C420    1.524   1_455 S
C272   C273    1.527   .     S
C272   H294    1.111   .     S
C272   H295    1.112   .     S
C273   H290    1.111   .     S
C273   H291    1.111   .     S
C273   H292    1.111   .     S
C274   H299    1.115   .     S
C274   H298    1.113   .     S
C275   H300    1.111   .     S
C275   H302    1.111   .     S
C275   C520    1.521   .     S
C275   H547    1.110   .     S
C276   C277    1.422   .     A
C276   C278    1.428   .     A
C277   C1019   1.402   .     S
C278   C1017   1.426   .     S
C279   C280    1.412   .     A
C279   C1016   1.426   1_554 S
C280   H283    1.077   .     S
C280   C281    1.396   .     A
C281   O315    1.385   .     S
C281   C1015   1.402   1_554 S
H293   C339    1.086   .     S
O310   Zn326   1.936   .     S
O310   Zn328   1.929   .     S
O310   Zn325   1.971   .     S
O310   Zn327   1.934   .     S
O311   Zn326   1.929   .     S
O312   Zn328   1.941   .     S
O313   Zn327   1.930   .     S
O314   Zn325   1.920   .     S
O316   C506    1.397   .     S
O316   C520    1.413   .     S
O317   Zn325   1.930   .     S
O318   Zn328   1.938   .     S
O319   Zn326   1.926   .     S
O320   Zn327   1.939   .     S
O321   Zn328   1.929   .     S
O322   Zn325   1.920   .     S
O323   Zn326   1.947   .     S
O324   Zn327   1.935   .     S
C329   C339    1.438   .     S
C329   O403    1.267   .     A
C329   O401    1.266   .     A
C330   C360    1.417   .     A
C330   H366    1.075   .     S
C330   C331    1.384   .     A
C331   H388    1.085   .     S
C331   C1071   1.388   .     S
C332   O402    1.283   .     A
C332   C338    1.465   .     S
C332   O404    1.288   .     A
C333   C334    1.421   .     A
C333   C335    1.402   .     A
C333   C1069   1.388   1_554 S
C334   C337    1.413   .     A
C334   C361    1.428   .     A
C335   H364    1.084   .     S
C335   C336    1.388   .     A
C336   C348    1.395   .     A
C336   H387    1.084   .     S
C337   H386    1.078   .     S
C337   C348    1.394   .     A
C338   C421    1.344   .     S
C338   C435    1.524   .     S
C340   C349    1.392   .     A
C340   H390    1.083   .     S
C340   C347    1.397   .     A
C341   C344    1.454   .     S
C341   C588    1.343   .     S
C341   H631    1.088   .     S
C342   C343    1.445   .     S
C343   O399    1.278   .     A
C343   O405    1.273   .     A
C344   O400    1.264   .     A
C344   O406    1.274   .     A
C345   C348    1.452   .     S
C345   O395    1.276   .     A
C345   O393    1.269   .     A
C346   O396    1.286   .     A
C346   C347    1.470   .     S
C346   O394    1.285   .     A
C347   C351    1.396   .     A
C349   C359    1.409   .     A
C349   H389    1.083   .     S
C350   O397    1.411   .     S
C350   H368    1.115   .     S
C350   H367    1.113   .     S
C350   C598    1.521   .     S
C351   H391    1.074   .     S
C351   C358    1.411   .     A
C352   H370    1.110   .     S
C352   H369    1.111   .     S
C352   H371    1.111   .     S
C353   H378    1.112   .     S
C353   C354    1.534   .     S
C353   H379    1.111   .     S
C354   C355    1.527   .     S
C354   H376    1.111   .     S
C354   H377    1.112   .     S
C355   H372    1.111   .     S
C355   H373    1.111   .     S
C355   H374    1.111   .     S
C356   H381    1.115   .     S
C356   H380    1.113   .     S
C357   H382    1.111   .     S
C357   H384    1.111   .     S
C357   C602    1.521   .     S
C357   H629    1.110   .     S
C358   C359    1.422   .     A
C358   C360    1.428   .     A
C359   C1101   1.402   .     S
C360   C1099   1.426   .     S
C361   C362    1.412   .     A
C361   C1098   1.426   1_554 S
C362   H365    1.077   .     S
C362   C363    1.396   .     A
C363   O397    1.385   .     S
C363   C1097   1.402   1_554 S
H375   C421    1.086   .     S
O392   Zn408   1.936   .     S
O392   Zn410   1.929   .     S
O392   Zn407   1.971   .     S
O392   Zn409   1.934   .     S
O393   Zn408   1.929   .     S
O394   Zn410   1.941   .     S
O395   Zn409   1.930   .     S
O396   Zn407   1.920   .     S
O398   C588    1.397   .     S
O398   C602    1.413   .     S
O399   Zn407   1.930   .     S
O400   Zn410   1.938   .     S
O401   Zn408   1.926   .     S
O402   Zn409   1.939   .     S
O403   Zn410   1.929   .     S
O404   Zn407   1.920   .     S
O405   Zn408   1.947   .     S
O406   Zn409   1.935   .     S
C411   C421    1.438   .     S
C411   O485    1.267   .     A
C411   O483    1.266   .     A
C412   C442    1.417   .     A
C412   H448    1.075   .     S
C412   C413    1.384   .     A
C413   H470    1.085   .     S
C413   C1153   1.388   .     S
C414   O484    1.283   .     A
C414   C420    1.465   .     S
C414   O486    1.288   .     A
C415   C416    1.421   .     A
C415   C417    1.402   .     A
C415   C1151   1.388   1_554 S
C416   C419    1.413   .     A
C416   C443    1.428   .     A
C417   H446    1.084   .     S
C417   C418    1.388   .     A
C418   C430    1.395   .     A
C418   H469    1.084   .     S
C419   H468    1.078   .     S
C419   C430    1.394   .     A
C420   C257    1.344   1_655 S
C420   C271    1.524   1_655 S
C422   C431    1.392   .     A
C422   H472    1.083   .     S
C422   C429    1.397   .     A
C423   C426    1.454   .     S
C423   C670    1.343   .     S
C423   H713    1.088   .     S
C424   C425    1.445   .     S
C425   O481    1.278   .     A
C425   O487    1.273   .     A
C426   O482    1.264   .     A
C426   O488    1.274   .     A
C427   C430    1.452   .     S
C427   O477    1.276   .     A
C427   O475    1.269   .     A
C428   O478    1.286   .     A
C428   C429    1.470   .     S
C428   O476    1.285   .     A
C429   C433    1.396   .     A
C431   C441    1.409   .     A
C431   H471    1.083   .     S
C432   O479    1.411   .     S
C432   H450    1.115   .     S
C432   H449    1.113   .     S
C432   C680    1.521   .     S
C433   H473    1.074   .     S
C433   C440    1.411   .     A
C434   H452    1.110   .     S
C434   H451    1.111   .     S
C434   H453    1.111   .     S
C435   H460    1.112   .     S
C435   C436    1.534   .     S
C435   H461    1.111   .     S
C436   C437    1.527   .     S
C436   H458    1.111   .     S
C436   H459    1.112   .     S
C437   H454    1.111   .     S
C437   H455    1.111   .     S
C437   H456    1.111   .     S
C438   H463    1.115   .     S
C438   H462    1.113   .     S
C439   H464    1.111   .     S
C439   H466    1.111   .     S
C439   C684    1.521   .     S
C439   H711    1.110   .     S
C440   C441    1.422   .     A
C440   C442    1.428   .     A
C441   C1183   1.402   .     S
C442   C1181   1.426   .     S
C443   C444    1.412   .     A
C443   C1180   1.426   1_554 S
C444   H447    1.077   .     S
C444   C445    1.396   .     A
C445   O479    1.385   .     S
C445   C1179   1.402   1_554 S
H457   C257    1.086   1_655 S
O474   Zn490   1.936   .     S
O474   Zn492   1.929   .     S
O474   Zn489   1.971   .     S
O474   Zn491   1.934   .     S
O475   Zn490   1.929   .     S
O476   Zn492   1.941   .     S
O477   Zn491   1.930   .     S
O478   Zn489   1.920   .     S
O480   C670    1.397   .     S
O480   C684    1.413   .     S
O481   Zn489   1.930   .     S
O482   Zn492   1.938   .     S
O483   Zn490   1.926   .     S
O484   Zn491   1.939   .     S
O485   Zn492   1.929   .     S
O486   Zn489   1.920   .     S
O487   Zn490   1.947   .     S
O488   Zn491   1.935   .     S
C493   C503    1.438   .     S
C493   O567    1.267   .     A
C493   O565    1.266   .     A
C494   C524    1.417   .     A
C494   H530    1.075   .     S
C494   C495    1.384   .     A
C495   H552    1.085   .     S
C495   C1235   1.388   .     S
C496   O566    1.283   .     A
C496   C502    1.465   .     S
C496   O568    1.288   .     A
C497   C498    1.421   .     A
C497   C499    1.402   .     A
C497   C1233   1.388   1_554 S
C498   C501    1.413   .     A
C498   C525    1.428   .     A
C499   H528    1.084   .     S
C499   C500    1.388   .     A
C500   C512    1.395   .     A
C500   H551    1.084   .     S
C501   H550    1.078   .     S
C501   C512    1.394   .     A
C502   C585    1.344   .     S
C502   C599    1.524   .     S
C503   C666    1.344   1_455 S
C503   H703    1.086   1_455 S
C504   C513    1.392   .     A
C504   H554    1.083   .     S
C504   C511    1.397   .     A
C505   C508    1.454   .     S
C505   C14     1.343   1_565 S
C505   H57     1.088   1_565 S
C506   C507    1.445   .     S
C507   O563    1.278   .     A
C507   O569    1.273   .     A
C508   O564    1.264   .     A
C508   O570    1.274   .     A
C509   C512    1.452   .     S
C509   O559    1.276   .     A
C509   O557    1.269   .     A
C510   O560    1.286   .     A
C510   C511    1.470   .     S
C510   O558    1.285   .     A
C511   C515    1.396   .     A
C513   C523    1.409   .     A
C513   H553    1.083   .     S
C514   O561    1.411   .     S
C514   H532    1.115   .     S
C514   H531    1.113   .     S
C514   C24     1.521   1_565 S
C515   H555    1.074   .     S
C515   C522    1.411   .     A
C516   H534    1.110   .     S
C516   H533    1.111   .     S
C516   H535    1.111   .     S
C517   H542    1.112   .     S
C517   C518    1.534   .     S
C517   H543    1.111   .     S
C517   C666    1.524   1_455 S
C518   C519    1.527   .     S
C518   H540    1.111   .     S
C518   H541    1.112   .     S
C519   H536    1.111   .     S
C519   H537    1.111   .     S
C519   H538    1.111   .     S
C520   H545    1.115   .     S
C520   H544    1.113   .     S
C521   H546    1.111   .     S
C521   H548    1.111   .     S
C521   C28     1.521   1_565 S
C521   H55     1.110   1_565 S
C522   C523    1.422   .     A
C522   C524    1.428   .     A
C523   C1265   1.402   .     S
C524   C1263   1.426   .     S
C525   C526    1.412   .     A
C525   C1262   1.426   1_554 S
C526   H529    1.077   .     S
C526   C527    1.396   .     A
C527   O561    1.385   .     S
C527   C1261   1.402   1_554 S
H539   C585    1.086   .     S
O556   Zn572   1.936   .     S
O556   Zn574   1.929   .     S
O556   Zn571   1.971   .     S
O556   Zn573   1.934   .     S
O557   Zn572   1.929   .     S
O558   Zn574   1.941   .     S
O559   Zn573   1.930   .     S
O560   Zn571   1.920   .     S
O562   C14     1.397   1_565 S
O562   C28     1.413   1_565 S
O563   Zn571   1.930   .     S
O564   Zn574   1.938   .     S
O565   Zn572   1.926   .     S
O566   Zn573   1.939   .     S
O567   Zn574   1.929   .     S
O568   Zn571   1.920   .     S
O569   Zn572   1.947   .     S
O570   Zn573   1.935   .     S
C575   C585    1.438   .     S
C575   O649    1.267   .     A
C575   O647    1.266   .     A
C576   C606    1.417   .     A
C576   H612    1.075   .     S
C576   C577    1.384   .     A
C577   H634    1.085   .     S
C577   C1317   1.388   .     S
C578   O648    1.283   .     A
C578   C584    1.465   .     S
C578   O650    1.288   .     A
C579   C580    1.421   .     A
C579   C581    1.402   .     A
C579   C1315   1.388   1_554 S
C580   C583    1.413   .     A
C580   C607    1.428   .     A
C581   H610    1.084   .     S
C581   C582    1.388   .     A
C582   C594    1.395   .     A
C582   H633    1.084   .     S
C583   H632    1.078   .     S
C583   C594    1.394   .     A
C584   C667    1.344   .     S
C584   C681    1.524   .     S
C586   C595    1.392   .     A
C586   H636    1.083   .     S
C586   C593    1.397   .     A
C587   C590    1.454   .     S
C587   C96     1.343   1_565 S
C587   H139    1.088   1_565 S
C588   C589    1.445   .     S
C589   O645    1.278   .     A
C589   O651    1.273   .     A
C590   O646    1.264   .     A
C590   O652    1.274   .     A
C591   C594    1.452   .     S
C591   O641    1.276   .     A
C591   O639    1.269   .     A
C592   O642    1.286   .     A
C592   C593    1.470   .     S
C592   O640    1.285   .     A
C593   C597    1.396   .     A
C595   C605    1.409   .     A
C595   H635    1.083   .     S
C596   O643    1.411   .     S
C596   H614    1.115   .     S
C596   H613    1.113   .     S
C596   C106    1.521   1_565 S
C597   H637    1.074   .     S
C597   C604    1.411   .     A
C598   H616    1.110   .     S
C598   H615    1.111   .     S
C598   H617    1.111   .     S
C599   H624    1.112   .     S
C599   C600    1.534   .     S
C599   H625    1.111   .     S
C600   C601    1.527   .     S
C600   H622    1.111   .     S
C600   H623    1.112   .     S
C601   H618    1.111   .     S
C601   H619    1.111   .     S
C601   H620    1.111   .     S
C602   H627    1.115   .     S
C602   H626    1.113   .     S
C603   H628    1.111   .     S
C603   H630    1.111   .     S
C603   C110    1.521   1_565 S
C603   H137    1.110   1_565 S
C604   C605    1.422   .     A
C604   C606    1.428   .     A
C605   C1347   1.402   .     S
C606   C1345   1.426   .     S
C607   C608    1.412   .     A
C607   C1344   1.426   1_554 S
C608   H611    1.077   .     S
C608   C609    1.396   .     A
C609   O643    1.385   .     S
C609   C1343   1.402   1_554 S
H621   C667    1.086   .     S
O638   Zn654   1.936   .     S
O638   Zn656   1.929   .     S
O638   Zn653   1.971   .     S
O638   Zn655   1.934   .     S
O639   Zn654   1.929   .     S
O640   Zn656   1.941   .     S
O641   Zn655   1.930   .     S
O642   Zn653   1.920   .     S
O644   C96     1.397   1_565 S
O644   C110    1.413   1_565 S
O645   Zn653   1.930   .     S
O646   Zn656   1.938   .     S
O647   Zn654   1.926   .     S
O648   Zn655   1.939   .     S
O649   Zn656   1.929   .     S
O650   Zn653   1.920   .     S
O651   Zn654   1.947   .     S
O652   Zn655   1.935   .     S
C657   C667    1.438   .     S
C657   O731    1.267   .     A
C657   O729    1.266   .     A
C658   C688    1.417   .     A
C658   H694    1.075   .     S
C658   C659    1.384   .     A
C659   H716    1.085   .     S
C659   C1399   1.388   .     S
C660   O730    1.283   .     A
C660   C666    1.465   .     S
C660   O732    1.288   .     A
C661   C662    1.421   .     A
C661   C663    1.402   .     A
C661   C1397   1.388   1_554 S
C662   C665    1.413   .     A
C662   C689    1.428   .     A
C663   H692    1.084   .     S
C663   C664    1.388   .     A
C664   C676    1.395   .     A
C664   H715    1.084   .     S
C665   H714    1.078   .     S
C665   C676    1.394   .     A
C666   C503    1.344   1_655 S
C666   C517    1.524   1_655 S
C668   C677    1.392   .     A
C668   H718    1.083   .     S
C668   C675    1.397   .     A
C669   C672    1.454   .     S
C669   C178    1.343   1_565 S
C669   H221    1.088   1_565 S
C670   C671    1.445   .     S
C671   O727    1.278   .     A
C671   O733    1.273   .     A
C672   O728    1.264   .     A
C672   O734    1.274   .     A
C673   C676    1.452   .     S
C673   O723    1.276   .     A
C673   O721    1.269   .     A
C674   O724    1.286   .     A
C674   C675    1.470   .     S
C674   O722    1.285   .     A
C675   C679    1.396   .     A
C677   C687    1.409   .     A
C677   H717    1.083   .     S
C678   O725    1.411   .     S
C678   H696    1.115   .     S
C678   H695    1.113   .     S
C678   C188    1.521   1_565 S
C679   H719    1.074   .     S
C679   C686    1.411   .     A
C680   H698    1.110   .     S
C680   H697    1.111   .     S
C680   H699    1.111   .     S
C681   H706    1.112   .     S
C681   C682    1.534   .     S
C681   H707    1.111   .     S
C682   C683    1.527   .     S
C682   H704    1.111   .     S
C682   H705    1.112   .     S
C683   H700    1.111   .     S
C683   H701    1.111   .     S
C683   H702    1.111   .     S
C684   H709    1.115   .     S
C684   H708    1.113   .     S
C685   H710    1.111   .     S
C685   H712    1.111   .     S
C685   C192    1.521   1_565 S
C685   H219    1.110   1_565 S
C686   C687    1.422   .     A
C686   C688    1.428   .     A
C687   C1429   1.402   .     S
C688   C1427   1.426   .     S
C689   C690    1.412   .     A
C689   C1426   1.426   1_554 S
C690   H693    1.077   .     S
C690   C691    1.396   .     A
C691   O725    1.385   .     S
C691   C1425   1.402   1_554 S
H703   C503    1.086   1_655 S
O720   Zn736   1.936   .     S
O720   Zn738   1.929   .     S
O720   Zn735   1.971   .     S
O720   Zn737   1.934   .     S
O721   Zn736   1.929   .     S
O722   Zn738   1.941   .     S
O723   Zn737   1.930   .     S
O724   Zn735   1.920   .     S
O726   C178    1.397   1_565 S
O726   C192    1.413   1_565 S
O727   Zn735   1.930   .     S
O728   Zn738   1.938   .     S
O729   Zn736   1.926   .     S
O730   Zn737   1.939   .     S
O731   Zn738   1.929   .     S
O732   Zn735   1.920   .     S
O733   Zn736   1.947   .     S
O734   Zn737   1.935   .     S
C739   C749    1.438   .     S
C739   O813    1.267   .     A
C739   O811    1.266   .     A
C740   C770    1.417   .     A
C740   H776    1.075   .     S
C740   C741    1.384   .     A
C741   H798    1.085   .     S
C741   C5      1.388   1_556 S
C742   O812    1.283   .     A
C742   C748    1.465   .     S
C742   O814    1.288   .     A
C743   C744    1.421   .     A
C743   C745    1.402   .     A
C744   C747    1.413   .     A
C744   C771    1.428   .     A
C745   H774    1.084   .     S
C745   C746    1.388   .     A
C746   C758    1.395   .     A
C746   H797    1.084   .     S
C747   H796    1.078   .     S
C747   C758    1.394   .     A
C748   C831    1.344   .     S
C748   C845    1.524   .     S
C749   C912    1.344   1_455 S
C749   H949    1.086   1_455 S
C750   C759    1.392   .     A
C750   H800    1.083   .     S
C750   C757    1.397   .     A
C751   C754    1.454   .     S
C751   C998    1.343   .     S
C751   H1041   1.088   .     S
C752   C753    1.445   .     S
C752   C1243   1.343   1_545 S
C752   O1300   1.397   1_545 S
C753   O809    1.278   .     A
C753   O815    1.273   .     A
C754   O810    1.264   .     A
C754   O816    1.274   .     A
C755   C758    1.452   .     S
C755   O805    1.276   .     A
C755   O803    1.269   .     A
C756   O806    1.286   .     A
C756   C757    1.470   .     S
C756   O804    1.285   .     A
C757   C761    1.396   .     A
C759   C769    1.409   .     A
C759   H799    1.083   .     S
C760   O807    1.411   .     S
C760   H778    1.115   .     S
C760   H777    1.113   .     S
C760   C1008   1.521   .     S
C761   H801    1.074   .     S
C761   C768    1.411   .     A
C762   H780    1.110   .     S
C762   H779    1.111   .     S
C762   H781    1.111   .     S
C762   C1252   1.521   1_545 S
C763   H788    1.112   .     S
C763   C764    1.534   .     S
C763   H789    1.111   .     S
C763   C912    1.524   1_455 S
C764   C765    1.527   .     S
C764   H786    1.111   .     S
C764   H787    1.112   .     S
C765   H782    1.111   .     S
C765   H783    1.111   .     S
C765   H784    1.111   .     S
C766   H791    1.115   .     S
C766   H790    1.113   .     S
C766   C1259   1.521   1_545 S
C766   O1300   1.413   1_545 S
C767   H792    1.111   .     S
C767   H794    1.111   .     S
C767   C1012   1.521   .     S
C767   H1039   1.110   .     S
C768   C769    1.422   .     A
C768   C770    1.428   .     A
C769   C35     1.402   1_556 S
C770   C33     1.426   1_556 S
C771   C772    1.412   .     A
C772   H775    1.077   .     S
C772   C773    1.396   .     A
C773   O807    1.385   .     S
H785   C831    1.086   .     S
H793   C1259   1.110   1_545 S
H795   C1243   1.088   1_545 S
O802   Zn818   1.936   .     S
O802   Zn820   1.929   .     S
O802   Zn817   1.971   .     S
O802   Zn819   1.934   .     S
O803   Zn818   1.929   .     S
O804   Zn820   1.941   .     S
O805   Zn819   1.930   .     S
O806   Zn817   1.920   .     S
O808   C998    1.397   .     S
O808   C1012   1.413   .     S
O809   Zn817   1.930   .     S
O810   Zn820   1.938   .     S
O811   Zn818   1.926   .     S
O812   Zn819   1.939   .     S
O813   Zn820   1.929   .     S
O814   Zn817   1.920   .     S
O815   Zn818   1.947   .     S
O816   Zn819   1.935   .     S
C821   C831    1.438   .     S
C821   O895    1.267   .     A
C821   O893    1.266   .     A
C822   C852    1.417   .     A
C822   H858    1.075   .     S
C822   C823    1.384   .     A
C823   H880    1.085   .     S
C823   C87     1.388   1_556 S
C824   O894    1.283   .     A
C824   C830    1.465   .     S
C824   O896    1.288   .     A
C825   C826    1.421   .     A
C825   C827    1.402   .     A
C826   C829    1.413   .     A
C826   C853    1.428   .     A
C827   H856    1.084   .     S
C827   C828    1.388   .     A
C828   C840    1.395   .     A
C828   H879    1.084   .     S
C829   H878    1.078   .     S
C829   C840    1.394   .     A
C830   C913    1.344   .     S
C830   C927    1.524   .     S
C832   C841    1.392   .     A
C832   H882    1.083   .     S
C832   C839    1.397   .     A
C833   C836    1.454   .     S
C833   C1080   1.343   .     S
C833   H1123   1.088   .     S
C834   C835    1.445   .     S
C834   C1325   1.343   1_545 S
C834   O1382   1.397   1_545 S
C835   O891    1.278   .     A
C835   O897    1.273   .     A
C836   O892    1.264   .     A
C836   O898    1.274   .     A
C837   C840    1.452   .     S
C837   O887    1.276   .     A
C837   O885    1.269   .     A
C838   O888    1.286   .     A
C838   C839    1.470   .     S
C838   O886    1.285   .     A
C839   C843    1.396   .     A
C841   C851    1.409   .     A
C841   H881    1.083   .     S
C842   O889    1.411   .     S
C842   H860    1.115   .     S
C842   H859    1.113   .     S
C842   C1090   1.521   .     S
C843   H883    1.074   .     S
C843   C850    1.411   .     A
C844   H862    1.110   .     S
C844   H861    1.111   .     S
C844   H863    1.111   .     S
C844   C1334   1.521   1_545 S
C845   H870    1.112   .     S
C845   C846    1.534   .     S
C845   H871    1.111   .     S
C846   C847    1.527   .     S
C846   H868    1.111   .     S
C846   H869    1.112   .     S
C847   H864    1.111   .     S
C847   H865    1.111   .     S
C847   H866    1.111   .     S
C848   H873    1.115   .     S
C848   H872    1.113   .     S
C848   C1341   1.521   1_545 S
C848   O1382   1.413   1_545 S
C849   H874    1.111   .     S
C849   H876    1.111   .     S
C849   C1094   1.521   .     S
C849   H1121   1.110   .     S
C850   C851    1.422   .     A
C850   C852    1.428   .     A
C851   C117    1.402   1_556 S
C852   C115    1.426   1_556 S
C853   C854    1.412   .     A
C854   H857    1.077   .     S
C854   C855    1.396   .     A
C855   O889    1.385   .     S
H867   C913    1.086   .     S
H875   C1341   1.110   1_545 S
H877   C1325   1.088   1_545 S
O884   Zn900   1.936   .     S
O884   Zn902   1.929   .     S
O884   Zn899   1.971   .     S
O884   Zn901   1.934   .     S
O885   Zn900   1.929   .     S
O886   Zn902   1.941   .     S
O887   Zn901   1.930   .     S
O888   Zn899   1.920   .     S
O890   C1080   1.397   .     S
O890   C1094   1.413   .     S
O891   Zn899   1.930   .     S
O892   Zn902   1.938   .     S
O893   Zn900   1.926   .     S
O894   Zn901   1.939   .     S
O895   Zn902   1.929   .     S
O896   Zn899   1.920   .     S
O897   Zn900   1.947   .     S
O898   Zn901   1.935   .     S
C903   C913    1.438   .     S
C903   O977    1.267   .     A
C903   O975    1.266   .     A
C904   C934    1.417   .     A
C904   H940    1.075   .     S
C904   C905    1.384   .     A
C905   H962    1.085   .     S
C905   C169    1.388   1_556 S
C906   O976    1.283   .     A
C906   C912    1.465   .     S
C906   O978    1.288   .     A
C907   C908    1.421   .     A
C907   C909    1.402   .     A
C908   C911    1.413   .     A
C908   C935    1.428   .     A
C909   H938    1.084   .     S
C909   C910    1.388   .     A
C910   C922    1.395   .     A
C910   H961    1.084   .     S
C911   H960    1.078   .     S
C911   C922    1.394   .     A
C912   C749    1.344   1_655 S
C912   C763    1.524   1_655 S
C914   C923    1.392   .     A
C914   H964    1.083   .     S
C914   C921    1.397   .     A
C915   C918    1.454   .     S
C915   C1162   1.343   .     S
C915   H1205   1.088   .     S
C916   C917    1.445   .     S
C916   C1407   1.343   1_545 S
C916   O1464   1.397   1_545 S
C917   O973    1.278   .     A
C917   O979    1.273   .     A
C918   O974    1.264   .     A
C918   O980    1.274   .     A
C919   C922    1.452   .     S
C919   O969    1.276   .     A
C919   O967    1.269   .     A
C920   O970    1.286   .     A
C920   C921    1.470   .     S
C920   O968    1.285   .     A
C921   C925    1.396   .     A
C923   C933    1.409   .     A
C923   H963    1.083   .     S
C924   O971    1.411   .     S
C924   H942    1.115   .     S
C924   H941    1.113   .     S
C924   C1172   1.521   .     S
C925   H965    1.074   .     S
C925   C932    1.411   .     A
C926   H944    1.110   .     S
C926   H943    1.111   .     S
C926   H945    1.111   .     S
C926   C1416   1.521   1_545 S
C927   H952    1.112   .     S
C927   C928    1.534   .     S
C927   H953    1.111   .     S
C928   C929    1.527   .     S
C928   H950    1.111   .     S
C928   H951    1.112   .     S
C929   H946    1.111   .     S
C929   H947    1.111   .     S
C929   H948    1.111   .     S
C930   H955    1.115   .     S
C930   H954    1.113   .     S
C930   C1423   1.521   1_545 S
C930   O1464   1.413   1_545 S
C931   H956    1.111   .     S
C931   H958    1.111   .     S
C931   C1176   1.521   .     S
C931   H1203   1.110   .     S
C932   C933    1.422   .     A
C932   C934    1.428   .     A
C933   C199    1.402   1_556 S
C934   C197    1.426   1_556 S
C935   C936    1.412   .     A
C936   H939    1.077   .     S
C936   C937    1.396   .     A
C937   O971    1.385   .     S
H949   C749    1.086   1_655 S
H957   C1423   1.110   1_545 S
H959   C1407   1.088   1_545 S
O966   Zn982   1.936   .     S
O966   Zn984   1.929   .     S
O966   Zn981   1.971   .     S
O966   Zn983   1.934   .     S
O967   Zn982   1.929   .     S
O968   Zn984   1.941   .     S
O969   Zn983   1.930   .     S
O970   Zn981   1.920   .     S
O972   C1162   1.397   .     S
O972   C1176   1.413   .     S
O973   Zn981   1.930   .     S
O974   Zn984   1.938   .     S
O975   Zn982   1.926   .     S
O976   Zn983   1.939   .     S
O977   Zn984   1.929   .     S
O978   Zn981   1.920   .     S
O979   Zn982   1.947   .     S
O980   Zn983   1.935   .     S
C985   C995    1.438   .     S
C985   O1059   1.267   .     A
C985   O1057   1.266   .     A
C986   C1016   1.417   .     A
C986   H1022   1.075   .     S
C986   C987    1.384   .     A
C987   H1044   1.085   .     S
C987   C251    1.388   1_556 S
C988   O1058   1.283   .     A
C988   C994    1.465   .     S
C988   O1060   1.288   .     A
C989   C990    1.421   .     A
C989   C991    1.402   .     A
C990   C993    1.413   .     A
C990   C1017   1.428   .     A
C991   H1020   1.084   .     S
C991   C992    1.388   .     A
C992   C1004   1.395   .     A
C992   H1043   1.084   .     S
C993   H1042   1.078   .     S
C993   C1004   1.394   .     A
C994   C1077   1.344   .     S
C994   C1091   1.524   .     S
C995   C1158   1.344   1_455 S
C995   H1195   1.086   1_455 S
C996   C1005   1.392   .     A
C996   H1046   1.083   .     S
C996   C1003   1.397   .     A
C997   C1000   1.454   .     S
C997   C1244   1.343   .     S
C997   H1287   1.088   .     S
C998   C999    1.445   .     S
C999   O1055   1.278   .     A
C999   O1061   1.273   .     A
C1000  O1056   1.264   .     A
C1000  O1062   1.274   .     A
C1001  C1004   1.452   .     S
C1001  O1051   1.276   .     A
C1001  O1049   1.269   .     A
C1002  O1052   1.286   .     A
C1002  C1003   1.470   .     S
C1002  O1050   1.285   .     A
C1003  C1007   1.396   .     A
C1005  C1015   1.409   .     A
C1005  H1045   1.083   .     S
C1006  O1053   1.411   .     S
C1006  H1024   1.115   .     S
C1006  H1023   1.113   .     S
C1006  C1254   1.521   .     S
C1007  H1047   1.074   .     S
C1007  C1014   1.411   .     A
C1008  H1026   1.110   .     S
C1008  H1025   1.111   .     S
C1008  H1027   1.111   .     S
C1009  H1034   1.112   .     S
C1009  C1010   1.534   .     S
C1009  H1035   1.111   .     S
C1009  C1158   1.524   1_455 S
C1010  C1011   1.527   .     S
C1010  H1032   1.111   .     S
C1010  H1033   1.112   .     S
C1011  H1028   1.111   .     S
C1011  H1029   1.111   .     S
C1011  H1030   1.111   .     S
C1012  H1037   1.115   .     S
C1012  H1036   1.113   .     S
C1013  H1038   1.111   .     S
C1013  H1040   1.111   .     S
C1013  C1258   1.521   .     S
C1013  H1285   1.110   .     S
C1014  C1015   1.422   .     A
C1014  C1016   1.428   .     A
C1015  C281    1.402   1_556 S
C1016  C279    1.426   1_556 S
C1017  C1018   1.412   .     A
C1018  H1021   1.077   .     S
C1018  C1019   1.396   .     A
C1019  O1053   1.385   .     S
H1031  C1077   1.086   .     S
O1048  Zn1064  1.936   .     S
O1048  Zn1066  1.929   .     S
O1048  Zn1063  1.971   .     S
O1048  Zn1065  1.934   .     S
O1049  Zn1064  1.929   .     S
O1050  Zn1066  1.941   .     S
O1051  Zn1065  1.930   .     S
O1052  Zn1063  1.920   .     S
O1054  C1244   1.397   .     S
O1054  C1258   1.413   .     S
O1055  Zn1063  1.930   .     S
O1056  Zn1066  1.938   .     S
O1057  Zn1064  1.926   .     S
O1058  Zn1065  1.939   .     S
O1059  Zn1066  1.929   .     S
O1060  Zn1063  1.920   .     S
O1061  Zn1064  1.947   .     S
O1062  Zn1065  1.935   .     S
C1067  C1077   1.438   .     S
C1067  O1141   1.267   .     A
C1067  O1139   1.266   .     A
C1068  C1098   1.417   .     A
C1068  H1104   1.075   .     S
C1068  C1069   1.384   .     A
C1069  H1126   1.085   .     S
C1069  C333    1.388   1_556 S
C1070  O1140   1.283   .     A
C1070  C1076   1.465   .     S
C1070  O1142   1.288   .     A
C1071  C1072   1.421   .     A
C1071  C1073   1.402   .     A
C1072  C1075   1.413   .     A
C1072  C1099   1.428   .     A
C1073  H1102   1.084   .     S
C1073  C1074   1.388   .     A
C1074  C1086   1.395   .     A
C1074  H1125   1.084   .     S
C1075  H1124   1.078   .     S
C1075  C1086   1.394   .     A
C1076  C1159   1.344   .     S
C1076  C1173   1.524   .     S
C1078  C1087   1.392   .     A
C1078  H1128   1.083   .     S
C1078  C1085   1.397   .     A
C1079  C1082   1.454   .     S
C1079  C1326   1.343   .     S
C1079  H1369   1.088   .     S
C1080  C1081   1.445   .     S
C1081  O1137   1.278   .     A
C1081  O1143   1.273   .     A
C1082  O1138   1.264   .     A
C1082  O1144   1.274   .     A
C1083  C1086   1.452   .     S
C1083  O1133   1.276   .     A
C1083  O1131   1.269   .     A
C1084  O1134   1.286   .     A
C1084  C1085   1.470   .     S
C1084  O1132   1.285   .     A
C1085  C1089   1.396   .     A
C1087  C1097   1.409   .     A
C1087  H1127   1.083   .     S
C1088  O1135   1.411   .     S
C1088  H1106   1.115   .     S
C1088  H1105   1.113   .     S
C1088  C1336   1.521   .     S
C1089  H1129   1.074   .     S
C1089  C1096   1.411   .     A
C1090  H1108   1.110   .     S
C1090  H1107   1.111   .     S
C1090  H1109   1.111   .     S
C1091  H1116   1.112   .     S
C1091  C1092   1.534   .     S
C1091  H1117   1.111   .     S
C1092  C1093   1.527   .     S
C1092  H1114   1.111   .     S
C1092  H1115   1.112   .     S
C1093  H1110   1.111   .     S
C1093  H1111   1.111   .     S
C1093  H1112   1.111   .     S
C1094  H1119   1.115   .     S
C1094  H1118   1.113   .     S
C1095  H1120   1.111   .     S
C1095  H1122   1.111   .     S
C1095  C1340   1.521   .     S
C1095  H1367   1.110   .     S
C1096  C1097   1.422   .     A
C1096  C1098   1.428   .     A
C1097  C363    1.402   1_556 S
C1098  C361    1.426   1_556 S
C1099  C1100   1.412   .     A
C1100  H1103   1.077   .     S
C1100  C1101   1.396   .     A
C1101  O1135   1.385   .     S
H1113  C1159   1.086   .     S
O1130  Zn1146  1.936   .     S
O1130  Zn1148  1.929   .     S
O1130  Zn1145  1.971   .     S
O1130  Zn1147  1.934   .     S
O1131  Zn1146  1.929   .     S
O1132  Zn1148  1.941   .     S
O1133  Zn1147  1.930   .     S
O1134  Zn1145  1.920   .     S
O1136  C1326   1.397   .     S
O1136  C1340   1.413   .     S
O1137  Zn1145  1.930   .     S
O1138  Zn1148  1.938   .     S
O1139  Zn1146  1.926   .     S
O1140  Zn1147  1.939   .     S
O1141  Zn1148  1.929   .     S
O1142  Zn1145  1.920   .     S
O1143  Zn1146  1.947   .     S
O1144  Zn1147  1.935   .     S
C1149  C1159   1.438   .     S
C1149  O1223   1.267   .     A
C1149  O1221   1.266   .     A
C1150  C1180   1.417   .     A
C1150  H1186   1.075   .     S
C1150  C1151   1.384   .     A
C1151  H1208   1.085   .     S
C1151  C415    1.388   1_556 S
C1152  O1222   1.283   .     A
C1152  C1158   1.465   .     S
C1152  O1224   1.288   .     A
C1153  C1154   1.421   .     A
C1153  C1155   1.402   .     A
C1154  C1157   1.413   .     A
C1154  C1181   1.428   .     A
C1155  H1184   1.084   .     S
C1155  C1156   1.388   .     A
C1156  C1168   1.395   .     A
C1156  H1207   1.084   .     S
C1157  H1206   1.078   .     S
C1157  C1168   1.394   .     A
C1158  C995    1.344   1_655 S
C1158  C1009   1.524   1_655 S
C1160  C1169   1.392   .     A
C1160  H1210   1.083   .     S
C1160  C1167   1.397   .     A
C1161  C1164   1.454   .     S
C1161  C1408   1.343   .     S
C1161  H1451   1.088   .     S
C1162  C1163   1.445   .     S
C1163  O1219   1.278   .     A
C1163  O1225   1.273   .     A
C1164  O1220   1.264   .     A
C1164  O1226   1.274   .     A
C1165  C1168   1.452   .     S
C1165  O1215   1.276   .     A
C1165  O1213   1.269   .     A
C1166  O1216   1.286   .     A
C1166  C1167   1.470   .     S
C1166  O1214   1.285   .     A
C1167  C1171   1.396   .     A
C1169  C1179   1.409   .     A
C1169  H1209   1.083   .     S
C1170  O1217   1.411   .     S
C1170  H1188   1.115   .     S
C1170  H1187   1.113   .     S
C1170  C1418   1.521   .     S
C1171  H1211   1.074   .     S
C1171  C1178   1.411   .     A
C1172  H1190   1.110   .     S
C1172  H1189   1.111   .     S
C1172  H1191   1.111   .     S
C1173  H1198   1.112   .     S
C1173  C1174   1.534   .     S
C1173  H1199   1.111   .     S
C1174  C1175   1.527   .     S
C1174  H1196   1.111   .     S
C1174  H1197   1.112   .     S
C1175  H1192   1.111   .     S
C1175  H1193   1.111   .     S
C1175  H1194   1.111   .     S
C1176  H1201   1.115   .     S
C1176  H1200   1.113   .     S
C1177  H1202   1.111   .     S
C1177  H1204   1.111   .     S
C1177  C1422   1.521   .     S
C1177  H1449   1.110   .     S
C1178  C1179   1.422   .     A
C1178  C1180   1.428   .     A
C1179  C445    1.402   1_556 S
C1180  C443    1.426   1_556 S
C1181  C1182   1.412   .     A
C1182  H1185   1.077   .     S
C1182  C1183   1.396   .     A
C1183  O1217   1.385   .     S
H1195  C995    1.086   1_655 S
O1212  Zn1228  1.936   .     S
O1212  Zn1230  1.929   .     S
O1212  Zn1227  1.971   .     S
O1212  Zn1229  1.934   .     S
O1213  Zn1228  1.929   .     S
O1214  Zn1230  1.941   .     S
O1215  Zn1229  1.930   .     S
O1216  Zn1227  1.920   .     S
O1218  C1408   1.397   .     S
O1218  C1422   1.413   .     S
O1219  Zn1227  1.930   .     S
O1220  Zn1230  1.938   .     S
O1221  Zn1228  1.926   .     S
O1222  Zn1229  1.939   .     S
O1223  Zn1230  1.929   .     S
O1224  Zn1227  1.920   .     S
O1225  Zn1228  1.947   .     S
O1226  Zn1229  1.935   .     S
C1231  C1241   1.438   .     S
C1231  O1305   1.267   .     A
C1231  O1303   1.266   .     A
C1232  C1262   1.417   .     A
C1232  H1268   1.075   .     S
C1232  C1233   1.384   .     A
C1233  H1290   1.085   .     S
C1233  C497    1.388   1_556 S
C1234  O1304   1.283   .     A
C1234  C1240   1.465   .     S
C1234  O1306   1.288   .     A
C1235  C1236   1.421   .     A
C1235  C1237   1.402   .     A
C1236  C1239   1.413   .     A
C1236  C1263   1.428   .     A
C1237  H1266   1.084   .     S
C1237  C1238   1.388   .     A
C1238  C1250   1.395   .     A
C1238  H1289   1.084   .     S
C1239  H1288   1.078   .     S
C1239  C1250   1.394   .     A
C1240  C1323   1.344   .     S
C1240  C1337   1.524   .     S
C1241  C1404   1.344   1_455 S
C1241  H1441   1.086   1_455 S
C1242  C1251   1.392   .     A
C1242  H1292   1.083   .     S
C1242  C1249   1.397   .     A
C1243  C1246   1.454   .     S
C1243  C752    1.343   1_565 S
C1243  H795    1.088   1_565 S
C1244  C1245   1.445   .     S
C1245  O1301   1.278   .     A
C1245  O1307   1.273   .     A
C1246  O1302   1.264   .     A
C1246  O1308   1.274   .     A
C1247  C1250   1.452   .     S
C1247  O1297   1.276   .     A
C1247  O1295   1.269   .     A
C1248  O1298   1.286   .     A
C1248  C1249   1.470   .     S
C1248  O1296   1.285   .     A
C1249  C1253   1.396   .     A
C1251  C1261   1.409   .     A
C1251  H1291   1.083   .     S
C1252  O1299   1.411   .     S
C1252  H1270   1.115   .     S
C1252  H1269   1.113   .     S
C1252  C762    1.521   1_565 S
C1253  H1293   1.074   .     S
C1253  C1260   1.411   .     A
C1254  H1272   1.110   .     S
C1254  H1271   1.111   .     S
C1254  H1273   1.111   .     S
C1255  H1280   1.112   .     S
C1255  C1256   1.534   .     S
C1255  H1281   1.111   .     S
C1255  C1404   1.524   1_455 S
C1256  C1257   1.527   .     S
C1256  H1278   1.111   .     S
C1256  H1279   1.112   .     S
C1257  H1274   1.111   .     S
C1257  H1275   1.111   .     S
C1257  H1276   1.111   .     S
C1258  H1283   1.115   .     S
C1258  H1282   1.113   .     S
C1259  H1284   1.111   .     S
C1259  H1286   1.111   .     S
C1259  C766    1.521   1_565 S
C1259  H793    1.110   1_565 S
C1260  C1261   1.422   .     A
C1260  C1262   1.428   .     A
C1261  C527    1.402   1_556 S
C1262  C525    1.426   1_556 S
C1263  C1264   1.412   .     A
C1264  H1267   1.077   .     S
C1264  C1265   1.396   .     A
C1265  O1299   1.385   .     S
H1277  C1323   1.086   .     S
O1294  Zn1310  1.936   .     S
O1294  Zn1312  1.929   .     S
O1294  Zn1309  1.971   .     S
O1294  Zn1311  1.934   .     S
O1295  Zn1310  1.929   .     S
O1296  Zn1312  1.941   .     S
O1297  Zn1311  1.930   .     S
O1298  Zn1309  1.920   .     S
O1300  C752    1.397   1_565 S
O1300  C766    1.413   1_565 S
O1301  Zn1309  1.930   .     S
O1302  Zn1312  1.938   .     S
O1303  Zn1310  1.926   .     S
O1304  Zn1311  1.939   .     S
O1305  Zn1312  1.929   .     S
O1306  Zn1309  1.920   .     S
O1307  Zn1310  1.947   .     S
O1308  Zn1311  1.935   .     S
C1313  C1323   1.438   .     S
C1313  O1387   1.267   .     A
C1313  O1385   1.266   .     A
C1314  C1344   1.417   .     A
C1314  H1350   1.075   .     S
C1314  C1315   1.384   .     A
C1315  H1372   1.085   .     S
C1315  C579    1.388   1_556 S
C1316  O1386   1.283   .     A
C1316  C1322   1.465   .     S
C1316  O1388   1.288   .     A
C1317  C1318   1.421   .     A
C1317  C1319   1.402   .     A
C1318  C1321   1.413   .     A
C1318  C1345   1.428   .     A
C1319  H1348   1.084   .     S
C1319  C1320   1.388   .     A
C1320  C1332   1.395   .     A
C1320  H1371   1.084   .     S
C1321  H1370   1.078   .     S
C1321  C1332   1.394   .     A
C1322  C1405   1.344   .     S
C1322  C1419   1.524   .     S
C1324  C1333   1.392   .     A
C1324  H1374   1.083   .     S
C1324  C1331   1.397   .     A
C1325  C1328   1.454   .     S
C1325  C834    1.343   1_565 S
C1325  H877    1.088   1_565 S
C1326  C1327   1.445   .     S
C1327  O1383   1.278   .     A
C1327  O1389   1.273   .     A
C1328  O1384   1.264   .     A
C1328  O1390   1.274   .     A
C1329  C1332   1.452   .     S
C1329  O1379   1.276   .     A
C1329  O1377   1.269   .     A
C1330  O1380   1.286   .     A
C1330  C1331   1.470   .     S
C1330  O1378   1.285   .     A
C1331  C1335   1.396   .     A
C1333  C1343   1.409   .     A
C1333  H1373   1.083   .     S
C1334  O1381   1.411   .     S
C1334  H1352   1.115   .     S
C1334  H1351   1.113   .     S
C1334  C844    1.521   1_565 S
C1335  H1375   1.074   .     S
C1335  C1342   1.411   .     A
C1336  H1354   1.110   .     S
C1336  H1353   1.111   .     S
C1336  H1355   1.111   .     S
C1337  H1362   1.112   .     S
C1337  C1338   1.534   .     S
C1337  H1363   1.111   .     S
C1338  C1339   1.527   .     S
C1338  H1360   1.111   .     S
C1338  H1361   1.112   .     S
C1339  H1356   1.111   .     S
C1339  H1357   1.111   .     S
C1339  H1358   1.111   .     S
C1340  H1365   1.115   .     S
C1340  H1364   1.113   .     S
C1341  H1366   1.111   .     S
C1341  H1368   1.111   .     S
C1341  C848    1.521   1_565 S
C1341  H875    1.110   1_565 S
C1342  C1343   1.422   .     A
C1342  C1344   1.428   .     A
C1343  C609    1.402   1_556 S
C1344  C607    1.426   1_556 S
C1345  C1346   1.412   .     A
C1346  H1349   1.077   .     S
C1346  C1347   1.396   .     A
C1347  O1381   1.385   .     S
H1359  C1405   1.086   .     S
O1376  Zn1392  1.936   .     S
O1376  Zn1394  1.929   .     S
O1376  Zn1391  1.971   .     S
O1376  Zn1393  1.934   .     S
O1377  Zn1392  1.929   .     S
O1378  Zn1394  1.941   .     S
O1379  Zn1393  1.930   .     S
O1380  Zn1391  1.920   .     S
O1382  C834    1.397   1_565 S
O1382  C848    1.413   1_565 S
O1383  Zn1391  1.930   .     S
O1384  Zn1394  1.938   .     S
O1385  Zn1392  1.926   .     S
O1386  Zn1393  1.939   .     S
O1387  Zn1394  1.929   .     S
O1388  Zn1391  1.920   .     S
O1389  Zn1392  1.947   .     S
O1390  Zn1393  1.935   .     S
C1395  C1405   1.438   .     S
C1395  O1469   1.267   .     A
C1395  O1467   1.266   .     A
C1396  C1426   1.417   .     A
C1396  H1432   1.075   .     S
C1396  C1397   1.384   .     A
C1397  H1454   1.085   .     S
C1397  C661    1.388   1_556 S
C1398  O1468   1.283   .     A
C1398  C1404   1.465   .     S
C1398  O1470   1.288   .     A
C1399  C1400   1.421   .     A
C1399  C1401   1.402   .     A
C1400  C1403   1.413   .     A
C1400  C1427   1.428   .     A
C1401  H1430   1.084   .     S
C1401  C1402   1.388   .     A
C1402  C1414   1.395   .     A
C1402  H1453   1.084   .     S
C1403  H1452   1.078   .     S
C1403  C1414   1.394   .     A
C1404  C1241   1.344   1_655 S
C1404  C1255   1.524   1_655 S
C1406  C1415   1.392   .     A
C1406  H1456   1.083   .     S
C1406  C1413   1.397   .     A
C1407  C1410   1.454   .     S
C1407  C916    1.343   1_565 S
C1407  H959    1.088   1_565 S
C1408  C1409   1.445   .     S
C1409  O1465   1.278   .     A
C1409  O1471   1.273   .     A
C1410  O1466   1.264   .     A
C1410  O1472   1.274   .     A
C1411  C1414   1.452   .     S
C1411  O1461   1.276   .     A
C1411  O1459   1.269   .     A
C1412  O1462   1.286   .     A
C1412  C1413   1.470   .     S
C1412  O1460   1.285   .     A
C1413  C1417   1.396   .     A
C1415  C1425   1.409   .     A
C1415  H1455   1.083   .     S
C1416  O1463   1.411   .     S
C1416  H1434   1.115   .     S
C1416  H1433   1.113   .     S
C1416  C926    1.521   1_565 S
C1417  H1457   1.074   .     S
C1417  C1424   1.411   .     A
C1418  H1436   1.110   .     S
C1418  H1435   1.111   .     S
C1418  H1437   1.111   .     S
C1419  H1444   1.112   .     S
C1419  C1420   1.534   .     S
C1419  H1445   1.111   .     S
C1420  C1421   1.527   .     S
C1420  H1442   1.111   .     S
C1420  H1443   1.112   .     S
C1421  H1438   1.111   .     S
C1421  H1439   1.111   .     S
C1421  H1440   1.111   .     S
C1422  H1447   1.115   .     S
C1422  H1446   1.113   .     S
C1423  H1448   1.111   .     S
C1423  H1450   1.111   .     S
C1423  C930    1.521   1_565 S
C1423  H957    1.110   1_565 S
C1424  C1425   1.422   .     A
C1424  C1426   1.428   .     A
C1425  C691    1.402   1_556 S
C1426  C689    1.426   1_556 S
C1427  C1428   1.412   .     A
C1428  H1431   1.077   .     S
C1428  C1429   1.396   .     A
C1429  O1463   1.385   .     S
H1441  C1241   1.086   1_655 S
O1458  Zn1474  1.936   .     S
O1458  Zn1476  1.929   .     S
O1458  Zn1473  1.971   .     S
O1458  Zn1475  1.934   .     S
O1459  Zn1474  1.929   .     S
O1460  Zn1476  1.941   .     S
O1461  Zn1475  1.930   .     S
O1462  Zn1473  1.920   .     S
O1464  C916    1.397   1_565 S
O1464  C930    1.413   1_565 S
O1465  Zn1473  1.930   .     S
O1466  Zn1476  1.938   .     S
O1467  Zn1474  1.926   .     S
O1468  Zn1475  1.939   .     S
O1469  Zn1476  1.929   .     S
O1470  Zn1473  1.920   .     S
O1471  Zn1474  1.947   .     S
O1472  Zn1475  1.935   .     S
