data_str_m2_o2_o10_pcu_sym.230
_audit_creation_date              2020-01-03
_audit_creation_method            'Materials Studio'
_symmetry_space_group_name_H-M    'P1'
_symmetry_Int_Tables_number       1
_symmetry_cell_setting            triclinic
loop_
_symmetry_equiv_pos_as_xyz
  x,y,z
_cell_length_a                    26.4146
_cell_length_b                    30.2201
_cell_length_c                    27.9214
_cell_angle_alpha                 89.2963
_cell_angle_beta                  96.4172
_cell_angle_gamma                 92.5261
loop_
_atom_site_label
_atom_site_type_symbol
_atom_site_fract_x
_atom_site_fract_y
_atom_site_fract_z
_atom_site_U_iso_or_equiv
_atom_site_adp_type
_atom_site_occupancy
C1     C     0.16695   0.16518   0.25005   0.00000  Uiso   1.00
C2     C     0.16784   0.33525   0.24998   0.00000  Uiso   1.00
C3     C     0.21322   0.25591   0.05877   0.00000  Uiso   1.00
C4     C     0.14127   0.21568   0.44607   0.00000  Uiso   1.00
C5     C     0.21012   0.26390   0.10857   0.00000  Uiso   1.00
C6     C     0.14058   0.21623   0.39431   0.00000  Uiso   1.00
C7     C     0.12215   0.24577   0.09946   0.00000  Uiso   1.00
C8     C     0.19182   0.28321   0.39738   0.00000  Uiso   1.00
C9     C     0.12151   0.25240   0.04935   0.00000  Uiso   1.00
C10    C     0.19045   0.28528   0.44761   0.00000  Uiso   1.00
C11    C     0.16718   0.25354   0.02747   0.00000  Uiso   1.00
C12    C     0.16594   0.25154   0.47296   0.00000  Uiso   1.00
C13    C     0.06828   0.24862   0.23834   0.00000  Uiso   1.00
C14    C     0.26499   0.25108   0.26166   0.00000  Uiso   1.00
C15    C     0.01393   0.23990   0.23416   0.00000  Uiso   1.00
C16    C     0.31936   0.25897   0.26608   0.00000  Uiso   1.00
C17    C     0.21180   0.05111   0.27729   0.00000  Uiso   1.00
C18    C     0.17153   0.45285   0.20378   0.00000  Uiso   1.00
C19    C     0.20746   0.09669   0.27927   0.00000  Uiso   1.00
C20    C     0.16810   0.40681   0.20540   0.00000  Uiso   1.00
C21    C     0.16931   0.11725   0.24931   0.00000  Uiso   1.00
C22    C     0.17149   0.38412   0.24984   0.00000  Uiso   1.00
C23    C     0.13536   0.09203   0.21685   0.00000  Uiso   1.00
C24    C     0.17967   0.40879   0.29311   0.00000  Uiso   1.00
C25    C     0.13937   0.04619   0.21570   0.00000  Uiso   1.00
C26    C     0.18389   0.45491   0.29089   0.00000  Uiso   1.00
C27    C     0.17760   0.02558   0.24566   0.00000  Uiso   1.00
C28    C     0.17891   0.47711   0.24658   0.00000  Uiso   1.00
Cu29   Cu    0.16667   0.25000   0.29822   0.00000  Uiso   1.00
Cu30   Cu    0.16667   0.25001   0.20179   0.00000  Uiso   1.00
H31    H     0.24177   0.03576   0.30053   0.00000  Uiso   1.00
H32    H     0.16811   0.46955   0.16910   0.00000  Uiso   1.00
H33    H     0.23436   0.11601   0.30363   0.00000  Uiso   1.00
H34    H     0.16230   0.38901   0.17165   0.00000  Uiso   1.00
H35    H     0.11179   0.02663   0.19224   0.00000  Uiso   1.00
H36    H     0.18888   0.47346   0.32418   0.00000  Uiso   1.00
H37    H     0.08627   0.24025   0.11409   0.00000  Uiso   1.00
H38    H     0.21251   0.30906   0.37966   0.00000  Uiso   1.00
H39    H     0.08522   0.25466   0.02754   0.00000  Uiso   1.00
H40    H     0.20891   0.31355   0.46682   0.00000  Uiso   1.00
N41    N     0.16667   0.25001   0.12935   0.00000  Uiso   1.00
N42    N     0.16667   0.24999   0.37066   0.00000  Uiso   1.00
O43    O     0.16667   0.18573   0.29072   0.00000  Uiso   1.00
O44    O     0.16666   0.31428   0.20929   0.00000  Uiso   1.00
O45    O     0.16667   0.18573   0.20928   0.00000  Uiso   1.00
O46    O     0.16666   0.31427   0.29072   0.00000  Uiso   1.00
O47    O     0.09161   0.24999   0.28132   0.00000  Uiso   1.00
O48    O     0.24172   0.25001   0.21868   0.00000  Uiso   1.00
O49    O     0.09161   0.25000   0.19989   0.00000  Uiso   1.00
O50    O     0.24172   0.25000   0.30012   0.00000  Uiso   1.00
C51    C     0.32661   0.20380   0.19802   0.00000  Uiso   1.00
C52    C     0.31096   0.16066   0.22312   0.00000  Uiso   1.00
C53    C     0.28546   0.12717   0.18652   0.00000  Uiso   1.00
H54    H     0.24846   0.13936   0.16981   0.00000  Uiso   1.00
H55    H     0.31024   0.12166   0.15772   0.00000  Uiso   1.00
H56    H     0.27829   0.09508   0.20484   0.00000  Uiso   1.00
H57    H     0.01204   0.14627   0.24282   0.00000  Uiso   1.00
H58    H     0.28399   0.16692   0.24971   0.00000  Uiso   1.00
H59    H     0.29501   0.21525   0.17222   0.00000  Uiso   1.00
H60    H     0.02298   0.19544   0.17477   0.00000  Uiso   1.00
C61    C     0.00668   0.29405   0.30320   0.00000  Uiso   1.00
C62    C     0.01259   0.27413   0.35439   0.00000  Uiso   1.00
C63    C     0.04580   0.30381   0.38994   0.00000  Uiso   1.00
H64    H     0.08527   0.30599   0.38004   0.00000  Uiso   1.00
H65    H     0.03048   0.33745   0.39001   0.00000  Uiso   1.00
H66    H     0.04668   0.28937   0.42678   0.00000  Uiso   1.00
H67    H     0.30802   0.26903   0.36769   0.00000  Uiso   1.00
H68    H     0.02986   0.24151   0.35393   0.00000  Uiso   1.00
H69    H     0.04268   0.31086   0.29436   0.00000  Uiso   1.00
H70    H     0.31280   0.32122   0.30218   0.00000  Uiso   1.00
N71    N     0.09489   0.11229   0.18799   0.00000  Uiso   1.00
H72    H     0.05999   0.09666   0.19145   0.00000  Uiso   1.00
C73    C     0.10316   0.11807   0.13794   0.00000  Uiso   1.00
H74    H     0.07203   0.13741   0.11905   0.00000  Uiso   1.00
H75    H     0.10324   0.08530   0.12035   0.00000  Uiso   1.00
H76    H     0.14000   0.13640   0.13459   0.00000  Uiso   1.00
N77    N     0.18329   0.38791   0.33915   0.00000  Uiso   1.00
H78    H     0.21513   0.39871   0.36142   0.00000  Uiso   1.00
C79    C     0.13738   0.38976   0.36270   0.00000  Uiso   1.00
H80    H     0.12982   0.42459   0.37094   0.00000  Uiso   1.00
H81    H     0.14207   0.37084   0.39711   0.00000  Uiso   1.00
H82    H     0.10428   0.37512   0.33924   0.00000  Uiso   1.00
C83    C     0.26500   0.25097   0.04055   0.00000  Uiso   1.00
C84    C     0.27033   0.20421   0.02158   0.00000  Uiso   1.00
C85    C     0.32460   0.19684   0.01117   0.00000  Uiso   1.00
H86    H     0.00320   0.22180   0.48463   0.00000  Uiso   1.00
H87    H     0.01759   0.19916   0.04505   0.00000  Uiso   1.00
H88    H     0.32663   0.16329   0.49591   0.00000  Uiso   1.00
H89    H     0.25991   0.17922   0.04874   0.00000  Uiso   1.00
H90    H     0.24505   0.19915   0.48754   0.00000  Uiso   1.00
H91    H     0.27149   0.27588   0.01222   0.00000  Uiso   1.00
H92    H     0.29631   0.25684   0.06993   0.00000  Uiso   1.00
C93    C     0.11554   0.17729   0.47276   0.00000  Uiso   1.00
C94    C     0.15385   0.14754   0.00157   0.00000  Uiso   1.00
C95    C     0.12815   0.10388   0.01593   0.00000  Uiso   1.00
H96    H     0.09420   0.11027   0.03451   0.00000  Uiso   1.00
H97    H     0.11591   0.08353   0.48350   0.00000  Uiso   1.00
H98    H     0.15540   0.08499   0.04056   0.00000  Uiso   1.00
H99    H     0.18512   0.13999   0.47989   0.00000  Uiso   1.00
H100   H     0.17038   0.16458   0.03500   0.00000  Uiso   1.00
H101   H     0.08975   0.18958   0.49707   0.00000  Uiso   1.00
H102   H     0.08845   0.15618   0.44949   0.00000  Uiso   1.00
C103   C     0.24807   0.29822   0.13332   0.00000  Uiso   1.00
C104   C     0.25052   0.34182   0.10438   0.00000  Uiso   1.00
C105   C     0.28461   0.37704   0.13237   0.00000  Uiso   1.00
H106   H     0.26939   0.38458   0.16674   0.00000  Uiso   1.00
H107   H     0.32399   0.36540   0.14034   0.00000  Uiso   1.00
H108   H     0.28590   0.40794   0.11052   0.00000  Uiso   1.00
H109   H     0.26593   0.33659   0.06963   0.00000  Uiso   1.00
H110   H     0.21151   0.35442   0.09651   0.00000  Uiso   1.00
H111   H     0.23641   0.30809   0.16777   0.00000  Uiso   1.00
H112   H     0.28667   0.28500   0.14053   0.00000  Uiso   1.00
C113   C     0.10712   0.18048   0.36639   0.00000  Uiso   1.00
C114   C     0.13017   0.13421   0.36913   0.00000  Uiso   1.00
C115   C     0.09475   0.10036   0.34039   0.00000  Uiso   1.00
H116   H     0.05895   0.09497   0.35746   0.00000  Uiso   1.00
H117   H     0.08503   0.11202   0.30279   0.00000  Uiso   1.00
H118   H     0.11370   0.06832   0.33968   0.00000  Uiso   1.00
H119   H     0.16816   0.13547   0.35605   0.00000  Uiso   1.00
H120   H     0.13693   0.12147   0.40630   0.00000  Uiso   1.00
H121   H     0.06886   0.17837   0.37920   0.00000  Uiso   1.00
H122   H     0.09659   0.18951   0.32892   0.00000  Uiso   1.00
C123   C     0.50029   0.16518   0.25005   0.00000  Uiso   1.00
C124   C     0.50118   0.33525   0.24998   0.00000  Uiso   1.00
C125   C     0.54656   0.25591   0.05877   0.00000  Uiso   1.00
C126   C     0.47460   0.21568   0.44607   0.00000  Uiso   1.00
C127   C     0.54345   0.26390   0.10857   0.00000  Uiso   1.00
C128   C     0.47391   0.21623   0.39431   0.00000  Uiso   1.00
C129   C     0.45548   0.24577   0.09946   0.00000  Uiso   1.00
C130   C     0.52515   0.28321   0.39738   0.00000  Uiso   1.00
C131   C     0.45484   0.25240   0.04935   0.00000  Uiso   1.00
C132   C     0.52378   0.28528   0.44761   0.00000  Uiso   1.00
C133   C     0.50051   0.25354   0.02747   0.00000  Uiso   1.00
C134   C     0.49927   0.25154   0.47296   0.00000  Uiso   1.00
C135   C     0.40162   0.24862   0.23834   0.00000  Uiso   1.00
C136   C     0.59833   0.25108   0.26166   0.00000  Uiso   1.00
C137   C     0.34726   0.23990   0.23416   0.00000  Uiso   1.00
C138   C     0.65270   0.25897   0.26608   0.00000  Uiso   1.00
C139   C     0.54513   0.05111   0.27729   0.00000  Uiso   1.00
C140   C     0.50487   0.45285   0.20378   0.00000  Uiso   1.00
C141   C     0.54080   0.09669   0.27927   0.00000  Uiso   1.00
C142   C     0.50144   0.40681   0.20540   0.00000  Uiso   1.00
C143   C     0.50264   0.11725   0.24931   0.00000  Uiso   1.00
C144   C     0.50482   0.38412   0.24984   0.00000  Uiso   1.00
C145   C     0.46869   0.09203   0.21685   0.00000  Uiso   1.00
C146   C     0.51300   0.40879   0.29311   0.00000  Uiso   1.00
C147   C     0.47270   0.04619   0.21570   0.00000  Uiso   1.00
C148   C     0.51723   0.45491   0.29089   0.00000  Uiso   1.00
C149   C     0.51093   0.02558   0.24566   0.00000  Uiso   1.00
C150   C     0.51225   0.47711   0.24658   0.00000  Uiso   1.00
Cu151  Cu    0.50000   0.25000   0.29822   0.00000  Uiso   1.00
Cu152  Cu    0.50000   0.25001   0.20179   0.00000  Uiso   1.00
H153   H     0.57510   0.03576   0.30053   0.00000  Uiso   1.00
H154   H     0.50145   0.46955   0.16910   0.00000  Uiso   1.00
H155   H     0.56770   0.11601   0.30363   0.00000  Uiso   1.00
H156   H     0.49563   0.38901   0.17165   0.00000  Uiso   1.00
H157   H     0.44512   0.02663   0.19224   0.00000  Uiso   1.00
H158   H     0.52221   0.47346   0.32418   0.00000  Uiso   1.00
H159   H     0.41960   0.24025   0.11409   0.00000  Uiso   1.00
H160   H     0.54584   0.30906   0.37966   0.00000  Uiso   1.00
H161   H     0.41856   0.25466   0.02754   0.00000  Uiso   1.00
H162   H     0.54224   0.31355   0.46682   0.00000  Uiso   1.00
N163   N     0.50000   0.25001   0.12935   0.00000  Uiso   1.00
N164   N     0.50000   0.24999   0.37066   0.00000  Uiso   1.00
O165   O     0.50000   0.18573   0.29072   0.00000  Uiso   1.00
O166   O     0.50000   0.31428   0.20929   0.00000  Uiso   1.00
O167   O     0.50000   0.18573   0.20928   0.00000  Uiso   1.00
O168   O     0.50000   0.31427   0.29072   0.00000  Uiso   1.00
O169   O     0.42495   0.24999   0.28132   0.00000  Uiso   1.00
O170   O     0.57505   0.25001   0.21868   0.00000  Uiso   1.00
O171   O     0.42495   0.25000   0.19989   0.00000  Uiso   1.00
O172   O     0.57505   0.25000   0.30012   0.00000  Uiso   1.00
C173   C     0.65994   0.20380   0.19802   0.00000  Uiso   1.00
C174   C     0.64429   0.16066   0.22312   0.00000  Uiso   1.00
C175   C     0.61880   0.12717   0.18652   0.00000  Uiso   1.00
H176   H     0.58179   0.13936   0.16981   0.00000  Uiso   1.00
H177   H     0.64357   0.12166   0.15772   0.00000  Uiso   1.00
H178   H     0.61162   0.09508   0.20484   0.00000  Uiso   1.00
H179   H     0.34537   0.14627   0.24282   0.00000  Uiso   1.00
H180   H     0.61732   0.16692   0.24971   0.00000  Uiso   1.00
H181   H     0.62835   0.21525   0.17222   0.00000  Uiso   1.00
H182   H     0.35631   0.19544   0.17477   0.00000  Uiso   1.00
C183   C     0.34002   0.29405   0.30320   0.00000  Uiso   1.00
C184   C     0.34593   0.27413   0.35439   0.00000  Uiso   1.00
C185   C     0.37913   0.30381   0.38994   0.00000  Uiso   1.00
H186   H     0.41860   0.30599   0.38004   0.00000  Uiso   1.00
H187   H     0.36382   0.33745   0.39001   0.00000  Uiso   1.00
H188   H     0.38001   0.28937   0.42678   0.00000  Uiso   1.00
H189   H     0.64136   0.26903   0.36769   0.00000  Uiso   1.00
H190   H     0.36320   0.24151   0.35393   0.00000  Uiso   1.00
H191   H     0.37601   0.31086   0.29436   0.00000  Uiso   1.00
H192   H     0.64614   0.32122   0.30218   0.00000  Uiso   1.00
N193   N     0.42822   0.11229   0.18799   0.00000  Uiso   1.00
H194   H     0.39333   0.09666   0.19145   0.00000  Uiso   1.00
C195   C     0.43649   0.11807   0.13794   0.00000  Uiso   1.00
H196   H     0.40536   0.13741   0.11905   0.00000  Uiso   1.00
H197   H     0.43657   0.08530   0.12035   0.00000  Uiso   1.00
H198   H     0.47333   0.13640   0.13459   0.00000  Uiso   1.00
N199   N     0.51662   0.38791   0.33915   0.00000  Uiso   1.00
H200   H     0.54847   0.39871   0.36142   0.00000  Uiso   1.00
C201   C     0.47071   0.38976   0.36270   0.00000  Uiso   1.00
H202   H     0.46316   0.42459   0.37094   0.00000  Uiso   1.00
H203   H     0.47540   0.37084   0.39711   0.00000  Uiso   1.00
H204   H     0.43762   0.37512   0.33924   0.00000  Uiso   1.00
C205   C     0.59834   0.25097   0.04055   0.00000  Uiso   1.00
C206   C     0.60367   0.20421   0.02158   0.00000  Uiso   1.00
C207   C     0.65793   0.19684   0.01117   0.00000  Uiso   1.00
H208   H     0.33654   0.22180   0.48463   0.00000  Uiso   1.00
H209   H     0.35092   0.19916   0.04505   0.00000  Uiso   1.00
H210   H     0.65996   0.16329   0.49591   0.00000  Uiso   1.00
H211   H     0.59325   0.17922   0.04874   0.00000  Uiso   1.00
H212   H     0.57839   0.19915   0.48754   0.00000  Uiso   1.00
H213   H     0.60482   0.27588   0.01222   0.00000  Uiso   1.00
H214   H     0.62964   0.25684   0.06993   0.00000  Uiso   1.00
C215   C     0.44888   0.17729   0.47276   0.00000  Uiso   1.00
C216   C     0.48718   0.14754   0.00157   0.00000  Uiso   1.00
C217   C     0.46148   0.10388   0.01593   0.00000  Uiso   1.00
H218   H     0.42754   0.11027   0.03451   0.00000  Uiso   1.00
H219   H     0.44924   0.08353   0.48350   0.00000  Uiso   1.00
H220   H     0.48873   0.08499   0.04056   0.00000  Uiso   1.00
H221   H     0.51845   0.13999   0.47989   0.00000  Uiso   1.00
H222   H     0.50371   0.16458   0.03500   0.00000  Uiso   1.00
H223   H     0.42308   0.18958   0.49707   0.00000  Uiso   1.00
H224   H     0.42178   0.15618   0.44949   0.00000  Uiso   1.00
C225   C     0.58141   0.29822   0.13332   0.00000  Uiso   1.00
C226   C     0.58385   0.34182   0.10438   0.00000  Uiso   1.00
C227   C     0.61794   0.37704   0.13237   0.00000  Uiso   1.00
H228   H     0.60272   0.38458   0.16674   0.00000  Uiso   1.00
H229   H     0.65733   0.36540   0.14034   0.00000  Uiso   1.00
H230   H     0.61923   0.40794   0.11052   0.00000  Uiso   1.00
H231   H     0.59927   0.33659   0.06963   0.00000  Uiso   1.00
H232   H     0.54484   0.35442   0.09651   0.00000  Uiso   1.00
H233   H     0.56974   0.30809   0.16777   0.00000  Uiso   1.00
H234   H     0.62000   0.28500   0.14053   0.00000  Uiso   1.00
C235   C     0.44045   0.18048   0.36639   0.00000  Uiso   1.00
C236   C     0.46350   0.13421   0.36913   0.00000  Uiso   1.00
C237   C     0.42809   0.10036   0.34039   0.00000  Uiso   1.00
H238   H     0.39228   0.09497   0.35746   0.00000  Uiso   1.00
H239   H     0.41836   0.11202   0.30279   0.00000  Uiso   1.00
H240   H     0.44703   0.06832   0.33968   0.00000  Uiso   1.00
H241   H     0.50149   0.13547   0.35605   0.00000  Uiso   1.00
H242   H     0.47027   0.12147   0.40630   0.00000  Uiso   1.00
H243   H     0.40220   0.17837   0.37920   0.00000  Uiso   1.00
H244   H     0.42993   0.18951   0.32892   0.00000  Uiso   1.00
C245   C     0.83362   0.16518   0.25005   0.00000  Uiso   1.00
C246   C     0.83451   0.33525   0.24998   0.00000  Uiso   1.00
C247   C     0.87989   0.25591   0.05877   0.00000  Uiso   1.00
C248   C     0.80793   0.21568   0.44607   0.00000  Uiso   1.00
C249   C     0.87678   0.26390   0.10857   0.00000  Uiso   1.00
C250   C     0.80725   0.21623   0.39431   0.00000  Uiso   1.00
C251   C     0.78882   0.24577   0.09946   0.00000  Uiso   1.00
C252   C     0.85849   0.28321   0.39738   0.00000  Uiso   1.00
C253   C     0.78818   0.25240   0.04935   0.00000  Uiso   1.00
C254   C     0.85712   0.28528   0.44761   0.00000  Uiso   1.00
C255   C     0.83384   0.25354   0.02747   0.00000  Uiso   1.00
C256   C     0.83260   0.25154   0.47296   0.00000  Uiso   1.00
C257   C     0.73495   0.24862   0.23834   0.00000  Uiso   1.00
C258   C     0.93166   0.25108   0.26166   0.00000  Uiso   1.00
C259   C     0.68060   0.23990   0.23416   0.00000  Uiso   1.00
C260   C     0.98603   0.25897   0.26608   0.00000  Uiso   1.00
C261   C     0.87847   0.05111   0.27729   0.00000  Uiso   1.00
C262   C     0.83820   0.45285   0.20378   0.00000  Uiso   1.00
C263   C     0.87413   0.09669   0.27927   0.00000  Uiso   1.00
C264   C     0.83477   0.40681   0.20540   0.00000  Uiso   1.00
C265   C     0.83597   0.11725   0.24931   0.00000  Uiso   1.00
C266   C     0.83816   0.38412   0.24984   0.00000  Uiso   1.00
C267   C     0.80202   0.09203   0.21685   0.00000  Uiso   1.00
C268   C     0.84633   0.40879   0.29311   0.00000  Uiso   1.00
C269   C     0.80603   0.04619   0.21570   0.00000  Uiso   1.00
C270   C     0.85056   0.45491   0.29089   0.00000  Uiso   1.00
C271   C     0.84427   0.02558   0.24566   0.00000  Uiso   1.00
C272   C     0.84558   0.47711   0.24658   0.00000  Uiso   1.00
Cu273  Cu    0.83333   0.25000   0.29822   0.00000  Uiso   1.00
Cu274  Cu    0.83333   0.25001   0.20179   0.00000  Uiso   1.00
H275   H     0.90844   0.03576   0.30053   0.00000  Uiso   1.00
H276   H     0.83478   0.46955   0.16910   0.00000  Uiso   1.00
H277   H     0.90103   0.11601   0.30363   0.00000  Uiso   1.00
H278   H     0.82896   0.38901   0.17165   0.00000  Uiso   1.00
H279   H     0.77845   0.02663   0.19224   0.00000  Uiso   1.00
H280   H     0.85555   0.47346   0.32418   0.00000  Uiso   1.00
H281   H     0.75294   0.24025   0.11409   0.00000  Uiso   1.00
H282   H     0.87917   0.30906   0.37966   0.00000  Uiso   1.00
H283   H     0.75189   0.25466   0.02754   0.00000  Uiso   1.00
H284   H     0.87557   0.31355   0.46682   0.00000  Uiso   1.00
N285   N     0.83333   0.25001   0.12935   0.00000  Uiso   1.00
N286   N     0.83333   0.24999   0.37066   0.00000  Uiso   1.00
O287   O     0.83334   0.18573   0.29072   0.00000  Uiso   1.00
O288   O     0.83333   0.31428   0.20929   0.00000  Uiso   1.00
O289   O     0.83334   0.18573   0.20928   0.00000  Uiso   1.00
O290   O     0.83333   0.31427   0.29072   0.00000  Uiso   1.00
O291   O     0.75828   0.24999   0.28132   0.00000  Uiso   1.00
O292   O     0.90839   0.25001   0.21868   0.00000  Uiso   1.00
O293   O     0.75828   0.25000   0.19989   0.00000  Uiso   1.00
O294   O     0.90839   0.25000   0.30012   0.00000  Uiso   1.00
C295   C     0.99327   0.20380   0.19802   0.00000  Uiso   1.00
C296   C     0.97763   0.16066   0.22312   0.00000  Uiso   1.00
C297   C     0.95213   0.12717   0.18652   0.00000  Uiso   1.00
H298   H     0.91512   0.13936   0.16981   0.00000  Uiso   1.00
H299   H     0.97690   0.12166   0.15772   0.00000  Uiso   1.00
H300   H     0.94496   0.09508   0.20484   0.00000  Uiso   1.00
H301   H     0.67871   0.14627   0.24282   0.00000  Uiso   1.00
H302   H     0.95066   0.16692   0.24971   0.00000  Uiso   1.00
H303   H     0.96168   0.21525   0.17222   0.00000  Uiso   1.00
H304   H     0.68965   0.19544   0.17477   0.00000  Uiso   1.00
C305   C     0.67335   0.29405   0.30320   0.00000  Uiso   1.00
C306   C     0.67926   0.27413   0.35439   0.00000  Uiso   1.00
C307   C     0.71247   0.30381   0.38994   0.00000  Uiso   1.00
H308   H     0.75194   0.30599   0.38004   0.00000  Uiso   1.00
H309   H     0.69715   0.33745   0.39001   0.00000  Uiso   1.00
H310   H     0.71335   0.28937   0.42678   0.00000  Uiso   1.00
H311   H     0.97469   0.26903   0.36769   0.00000  Uiso   1.00
H312   H     0.69653   0.24151   0.35393   0.00000  Uiso   1.00
H313   H     0.70935   0.31086   0.29436   0.00000  Uiso   1.00
H314   H     0.97947   0.32122   0.30218   0.00000  Uiso   1.00
N315   N     0.76156   0.11229   0.18799   0.00000  Uiso   1.00
H316   H     0.72666   0.09666   0.19145   0.00000  Uiso   1.00
C317   C     0.76982   0.11807   0.13794   0.00000  Uiso   1.00
H318   H     0.73869   0.13741   0.11905   0.00000  Uiso   1.00
H319   H     0.76990   0.08530   0.12035   0.00000  Uiso   1.00
H320   H     0.80666   0.13640   0.13459   0.00000  Uiso   1.00
N321   N     0.84995   0.38791   0.33915   0.00000  Uiso   1.00
H322   H     0.88180   0.39871   0.36142   0.00000  Uiso   1.00
C323   C     0.80405   0.38976   0.36270   0.00000  Uiso   1.00
H324   H     0.79649   0.42459   0.37094   0.00000  Uiso   1.00
H325   H     0.80874   0.37084   0.39711   0.00000  Uiso   1.00
H326   H     0.77095   0.37512   0.33924   0.00000  Uiso   1.00
C327   C     0.93167   0.25097   0.04055   0.00000  Uiso   1.00
C328   C     0.93700   0.20421   0.02158   0.00000  Uiso   1.00
C329   C     0.99127   0.19684   0.01117   0.00000  Uiso   1.00
H330   H     0.66987   0.22180   0.48463   0.00000  Uiso   1.00
H331   H     0.68425   0.19916   0.04505   0.00000  Uiso   1.00
H332   H     0.99329   0.16329   0.49591   0.00000  Uiso   1.00
H333   H     0.92658   0.17922   0.04874   0.00000  Uiso   1.00
H334   H     0.91172   0.19915   0.48754   0.00000  Uiso   1.00
H335   H     0.93816   0.27588   0.01222   0.00000  Uiso   1.00
H336   H     0.96298   0.25684   0.06993   0.00000  Uiso   1.00
C337   C     0.78221   0.17729   0.47276   0.00000  Uiso   1.00
C338   C     0.82051   0.14754   0.00157   0.00000  Uiso   1.00
C339   C     0.79481   0.10388   0.01593   0.00000  Uiso   1.00
H340   H     0.76087   0.11027   0.03451   0.00000  Uiso   1.00
H341   H     0.78257   0.08353   0.48350   0.00000  Uiso   1.00
H342   H     0.82206   0.08499   0.04056   0.00000  Uiso   1.00
H343   H     0.85178   0.13999   0.47989   0.00000  Uiso   1.00
H344   H     0.83705   0.16458   0.03500   0.00000  Uiso   1.00
H345   H     0.75641   0.18958   0.49707   0.00000  Uiso   1.00
H346   H     0.75512   0.15618   0.44949   0.00000  Uiso   1.00
C347   C     0.91474   0.29822   0.13332   0.00000  Uiso   1.00
C348   C     0.91719   0.34182   0.10438   0.00000  Uiso   1.00
C349   C     0.95127   0.37704   0.13237   0.00000  Uiso   1.00
H350   H     0.93605   0.38458   0.16674   0.00000  Uiso   1.00
H351   H     0.99066   0.36540   0.14034   0.00000  Uiso   1.00
H352   H     0.95257   0.40794   0.11052   0.00000  Uiso   1.00
H353   H     0.93260   0.33659   0.06963   0.00000  Uiso   1.00
H354   H     0.87817   0.35442   0.09651   0.00000  Uiso   1.00
H355   H     0.90308   0.30809   0.16777   0.00000  Uiso   1.00
H356   H     0.95333   0.28500   0.14053   0.00000  Uiso   1.00
C357   C     0.77378   0.18048   0.36639   0.00000  Uiso   1.00
C358   C     0.79684   0.13421   0.36913   0.00000  Uiso   1.00
C359   C     0.76142   0.10036   0.34039   0.00000  Uiso   1.00
H360   H     0.72561   0.09497   0.35746   0.00000  Uiso   1.00
H361   H     0.75169   0.11202   0.30279   0.00000  Uiso   1.00
H362   H     0.78036   0.06832   0.33968   0.00000  Uiso   1.00
H363   H     0.83482   0.13547   0.35605   0.00000  Uiso   1.00
H364   H     0.80360   0.12147   0.40630   0.00000  Uiso   1.00
H365   H     0.73553   0.17837   0.37920   0.00000  Uiso   1.00
H366   H     0.76326   0.18951   0.32892   0.00000  Uiso   1.00
C367   C     0.16695   0.66518   0.25005   0.00000  Uiso   1.00
C368   C     0.16784   0.83525   0.24998   0.00000  Uiso   1.00
C369   C     0.21322   0.75591   0.05877   0.00000  Uiso   1.00
C370   C     0.14127   0.71568   0.44607   0.00000  Uiso   1.00
C371   C     0.21012   0.76390   0.10857   0.00000  Uiso   1.00
C372   C     0.14058   0.71623   0.39431   0.00000  Uiso   1.00
C373   C     0.12215   0.74577   0.09946   0.00000  Uiso   1.00
C374   C     0.19182   0.78321   0.39738   0.00000  Uiso   1.00
C375   C     0.12151   0.75240   0.04935   0.00000  Uiso   1.00
C376   C     0.19045   0.78528   0.44761   0.00000  Uiso   1.00
C377   C     0.16718   0.75354   0.02747   0.00000  Uiso   1.00
C378   C     0.16594   0.75154   0.47296   0.00000  Uiso   1.00
C379   C     0.06828   0.74862   0.23834   0.00000  Uiso   1.00
C380   C     0.26499   0.75108   0.26166   0.00000  Uiso   1.00
C381   C     0.01393   0.73990   0.23416   0.00000  Uiso   1.00
C382   C     0.31936   0.75897   0.26608   0.00000  Uiso   1.00
C383   C     0.21180   0.55111   0.27729   0.00000  Uiso   1.00
C384   C     0.17153   0.95285   0.20378   0.00000  Uiso   1.00
C385   C     0.20746   0.59669   0.27927   0.00000  Uiso   1.00
C386   C     0.16810   0.90681   0.20540   0.00000  Uiso   1.00
C387   C     0.16931   0.61725   0.24931   0.00000  Uiso   1.00
C388   C     0.17149   0.88412   0.24984   0.00000  Uiso   1.00
C389   C     0.13536   0.59203   0.21685   0.00000  Uiso   1.00
C390   C     0.17967   0.90879   0.29311   0.00000  Uiso   1.00
C391   C     0.13937   0.54619   0.21570   0.00000  Uiso   1.00
C392   C     0.18389   0.95491   0.29089   0.00000  Uiso   1.00
C393   C     0.17760   0.52558   0.24566   0.00000  Uiso   1.00
C394   C     0.17891   0.97711   0.24658   0.00000  Uiso   1.00
Cu395  Cu    0.16667   0.75000   0.29822   0.00000  Uiso   1.00
Cu396  Cu    0.16667   0.75001   0.20179   0.00000  Uiso   1.00
H397   H     0.24177   0.53576   0.30053   0.00000  Uiso   1.00
H398   H     0.16811   0.96955   0.16910   0.00000  Uiso   1.00
H399   H     0.23436   0.61601   0.30363   0.00000  Uiso   1.00
H400   H     0.16230   0.88901   0.17165   0.00000  Uiso   1.00
H401   H     0.11179   0.52663   0.19224   0.00000  Uiso   1.00
H402   H     0.18888   0.97346   0.32418   0.00000  Uiso   1.00
H403   H     0.08627   0.74025   0.11409   0.00000  Uiso   1.00
H404   H     0.21251   0.80906   0.37966   0.00000  Uiso   1.00
H405   H     0.08522   0.75466   0.02754   0.00000  Uiso   1.00
H406   H     0.20891   0.81355   0.46682   0.00000  Uiso   1.00
N407   N     0.16667   0.75001   0.12935   0.00000  Uiso   1.00
N408   N     0.16667   0.74999   0.37066   0.00000  Uiso   1.00
O409   O     0.16667   0.68573   0.29072   0.00000  Uiso   1.00
O410   O     0.16666   0.81428   0.20929   0.00000  Uiso   1.00
O411   O     0.16667   0.68573   0.20928   0.00000  Uiso   1.00
O412   O     0.16666   0.81427   0.29072   0.00000  Uiso   1.00
O413   O     0.09161   0.74999   0.28132   0.00000  Uiso   1.00
O414   O     0.24172   0.75001   0.21868   0.00000  Uiso   1.00
O415   O     0.09161   0.75000   0.19989   0.00000  Uiso   1.00
O416   O     0.24172   0.75000   0.30012   0.00000  Uiso   1.00
C417   C     0.32661   0.70380   0.19802   0.00000  Uiso   1.00
C418   C     0.31096   0.66066   0.22312   0.00000  Uiso   1.00
C419   C     0.28546   0.62717   0.18652   0.00000  Uiso   1.00
H420   H     0.24846   0.63936   0.16981   0.00000  Uiso   1.00
H421   H     0.31024   0.62166   0.15772   0.00000  Uiso   1.00
H422   H     0.27829   0.59508   0.20484   0.00000  Uiso   1.00
H423   H     0.01204   0.64627   0.24282   0.00000  Uiso   1.00
H424   H     0.28399   0.66692   0.24971   0.00000  Uiso   1.00
H425   H     0.29501   0.71525   0.17222   0.00000  Uiso   1.00
H426   H     0.02298   0.69544   0.17477   0.00000  Uiso   1.00
C427   C     0.00668   0.79405   0.30320   0.00000  Uiso   1.00
C428   C     0.01259   0.77413   0.35439   0.00000  Uiso   1.00
C429   C     0.04580   0.80381   0.38994   0.00000  Uiso   1.00
H430   H     0.08527   0.80599   0.38004   0.00000  Uiso   1.00
H431   H     0.03048   0.83745   0.39001   0.00000  Uiso   1.00
H432   H     0.04668   0.78937   0.42678   0.00000  Uiso   1.00
H433   H     0.30802   0.76903   0.36769   0.00000  Uiso   1.00
H434   H     0.02986   0.74151   0.35393   0.00000  Uiso   1.00
H435   H     0.04268   0.81086   0.29436   0.00000  Uiso   1.00
H436   H     0.31280   0.82122   0.30218   0.00000  Uiso   1.00
N437   N     0.09489   0.61229   0.18799   0.00000  Uiso   1.00
H438   H     0.05999   0.59666   0.19145   0.00000  Uiso   1.00
C439   C     0.10316   0.61807   0.13794   0.00000  Uiso   1.00
H440   H     0.07203   0.63741   0.11905   0.00000  Uiso   1.00
H441   H     0.10324   0.58530   0.12035   0.00000  Uiso   1.00
H442   H     0.14000   0.63640   0.13459   0.00000  Uiso   1.00
N443   N     0.18329   0.88791   0.33915   0.00000  Uiso   1.00
H444   H     0.21513   0.89871   0.36142   0.00000  Uiso   1.00
C445   C     0.13738   0.88976   0.36270   0.00000  Uiso   1.00
H446   H     0.12982   0.92459   0.37094   0.00000  Uiso   1.00
H447   H     0.14207   0.87084   0.39711   0.00000  Uiso   1.00
H448   H     0.10428   0.87512   0.33924   0.00000  Uiso   1.00
C449   C     0.26500   0.75097   0.04055   0.00000  Uiso   1.00
C450   C     0.27033   0.70421   0.02158   0.00000  Uiso   1.00
C451   C     0.32460   0.69684   0.01117   0.00000  Uiso   1.00
H452   H     0.00320   0.72180   0.48463   0.00000  Uiso   1.00
H453   H     0.01759   0.69916   0.04505   0.00000  Uiso   1.00
H454   H     0.32663   0.66329   0.49591   0.00000  Uiso   1.00
H455   H     0.25991   0.67922   0.04874   0.00000  Uiso   1.00
H456   H     0.24505   0.69915   0.48754   0.00000  Uiso   1.00
H457   H     0.27149   0.77588   0.01222   0.00000  Uiso   1.00
H458   H     0.29631   0.75684   0.06993   0.00000  Uiso   1.00
C459   C     0.11554   0.67729   0.47276   0.00000  Uiso   1.00
C460   C     0.15385   0.64754   0.00157   0.00000  Uiso   1.00
C461   C     0.12815   0.60388   0.01593   0.00000  Uiso   1.00
H462   H     0.09420   0.61027   0.03451   0.00000  Uiso   1.00
H463   H     0.11591   0.58353   0.48350   0.00000  Uiso   1.00
H464   H     0.15540   0.58499   0.04056   0.00000  Uiso   1.00
H465   H     0.18512   0.63999   0.47989   0.00000  Uiso   1.00
H466   H     0.17038   0.66458   0.03500   0.00000  Uiso   1.00
H467   H     0.08975   0.68958   0.49707   0.00000  Uiso   1.00
H468   H     0.08845   0.65618   0.44949   0.00000  Uiso   1.00
C469   C     0.24807   0.79822   0.13332   0.00000  Uiso   1.00
C470   C     0.25052   0.84182   0.10438   0.00000  Uiso   1.00
C471   C     0.28461   0.87704   0.13237   0.00000  Uiso   1.00
H472   H     0.26939   0.88458   0.16674   0.00000  Uiso   1.00
H473   H     0.32399   0.86540   0.14034   0.00000  Uiso   1.00
H474   H     0.28590   0.90794   0.11052   0.00000  Uiso   1.00
H475   H     0.26593   0.83659   0.06963   0.00000  Uiso   1.00
H476   H     0.21151   0.85442   0.09651   0.00000  Uiso   1.00
H477   H     0.23641   0.80809   0.16777   0.00000  Uiso   1.00
H478   H     0.28667   0.78500   0.14053   0.00000  Uiso   1.00
C479   C     0.10712   0.68048   0.36639   0.00000  Uiso   1.00
C480   C     0.13017   0.63421   0.36913   0.00000  Uiso   1.00
C481   C     0.09475   0.60036   0.34039   0.00000  Uiso   1.00
H482   H     0.05895   0.59497   0.35746   0.00000  Uiso   1.00
H483   H     0.08503   0.61202   0.30279   0.00000  Uiso   1.00
H484   H     0.11370   0.56832   0.33968   0.00000  Uiso   1.00
H485   H     0.16816   0.63547   0.35605   0.00000  Uiso   1.00
H486   H     0.13693   0.62147   0.40630   0.00000  Uiso   1.00
H487   H     0.06886   0.67837   0.37920   0.00000  Uiso   1.00
H488   H     0.09659   0.68951   0.32892   0.00000  Uiso   1.00
C489   C     0.50029   0.66518   0.25005   0.00000  Uiso   1.00
C490   C     0.50118   0.83525   0.24998   0.00000  Uiso   1.00
C491   C     0.54656   0.75591   0.05877   0.00000  Uiso   1.00
C492   C     0.47460   0.71568   0.44607   0.00000  Uiso   1.00
C493   C     0.54345   0.76390   0.10857   0.00000  Uiso   1.00
C494   C     0.47391   0.71623   0.39431   0.00000  Uiso   1.00
C495   C     0.45548   0.74577   0.09946   0.00000  Uiso   1.00
C496   C     0.52515   0.78321   0.39738   0.00000  Uiso   1.00
C497   C     0.45484   0.75240   0.04935   0.00000  Uiso   1.00
C498   C     0.52378   0.78528   0.44761   0.00000  Uiso   1.00
C499   C     0.50051   0.75354   0.02747   0.00000  Uiso   1.00
C500   C     0.49927   0.75154   0.47296   0.00000  Uiso   1.00
C501   C     0.40162   0.74862   0.23834   0.00000  Uiso   1.00
C502   C     0.59833   0.75108   0.26166   0.00000  Uiso   1.00
C503   C     0.34726   0.73990   0.23416   0.00000  Uiso   1.00
C504   C     0.65270   0.75897   0.26608   0.00000  Uiso   1.00
C505   C     0.54513   0.55111   0.27729   0.00000  Uiso   1.00
C506   C     0.50487   0.95285   0.20378   0.00000  Uiso   1.00
C507   C     0.54080   0.59669   0.27927   0.00000  Uiso   1.00
C508   C     0.50144   0.90681   0.20540   0.00000  Uiso   1.00
C509   C     0.50264   0.61725   0.24931   0.00000  Uiso   1.00
C510   C     0.50482   0.88412   0.24984   0.00000  Uiso   1.00
C511   C     0.46869   0.59203   0.21685   0.00000  Uiso   1.00
C512   C     0.51300   0.90879   0.29311   0.00000  Uiso   1.00
C513   C     0.47270   0.54619   0.21570   0.00000  Uiso   1.00
C514   C     0.51723   0.95491   0.29089   0.00000  Uiso   1.00
C515   C     0.51093   0.52558   0.24566   0.00000  Uiso   1.00
C516   C     0.51225   0.97711   0.24658   0.00000  Uiso   1.00
Cu517  Cu    0.50000   0.75000   0.29822   0.00000  Uiso   1.00
Cu518  Cu    0.50000   0.75001   0.20179   0.00000  Uiso   1.00
H519   H     0.57510   0.53576   0.30053   0.00000  Uiso   1.00
H520   H     0.50145   0.96955   0.16910   0.00000  Uiso   1.00
H521   H     0.56770   0.61601   0.30363   0.00000  Uiso   1.00
H522   H     0.49563   0.88901   0.17165   0.00000  Uiso   1.00
H523   H     0.44512   0.52663   0.19224   0.00000  Uiso   1.00
H524   H     0.52221   0.97346   0.32418   0.00000  Uiso   1.00
H525   H     0.41960   0.74025   0.11409   0.00000  Uiso   1.00
H526   H     0.54584   0.80906   0.37966   0.00000  Uiso   1.00
H527   H     0.41856   0.75466   0.02754   0.00000  Uiso   1.00
H528   H     0.54224   0.81355   0.46682   0.00000  Uiso   1.00
N529   N     0.50000   0.75001   0.12935   0.00000  Uiso   1.00
N530   N     0.50000   0.74999   0.37066   0.00000  Uiso   1.00
O531   O     0.50000   0.68573   0.29072   0.00000  Uiso   1.00
O532   O     0.50000   0.81428   0.20929   0.00000  Uiso   1.00
O533   O     0.50000   0.68573   0.20928   0.00000  Uiso   1.00
O534   O     0.50000   0.81427   0.29072   0.00000  Uiso   1.00
O535   O     0.42495   0.74999   0.28132   0.00000  Uiso   1.00
O536   O     0.57505   0.75001   0.21868   0.00000  Uiso   1.00
O537   O     0.42495   0.75000   0.19989   0.00000  Uiso   1.00
O538   O     0.57505   0.75000   0.30012   0.00000  Uiso   1.00
C539   C     0.65994   0.70380   0.19802   0.00000  Uiso   1.00
C540   C     0.64429   0.66066   0.22312   0.00000  Uiso   1.00
C541   C     0.61880   0.62717   0.18652   0.00000  Uiso   1.00
H542   H     0.58179   0.63936   0.16981   0.00000  Uiso   1.00
H543   H     0.64357   0.62166   0.15772   0.00000  Uiso   1.00
H544   H     0.61162   0.59508   0.20484   0.00000  Uiso   1.00
H545   H     0.34537   0.64627   0.24282   0.00000  Uiso   1.00
H546   H     0.61732   0.66692   0.24971   0.00000  Uiso   1.00
H547   H     0.62835   0.71525   0.17222   0.00000  Uiso   1.00
H548   H     0.35631   0.69544   0.17477   0.00000  Uiso   1.00
C549   C     0.34002   0.79405   0.30320   0.00000  Uiso   1.00
C550   C     0.34593   0.77413   0.35439   0.00000  Uiso   1.00
C551   C     0.37913   0.80381   0.38994   0.00000  Uiso   1.00
H552   H     0.41860   0.80599   0.38004   0.00000  Uiso   1.00
H553   H     0.36382   0.83745   0.39001   0.00000  Uiso   1.00
H554   H     0.38001   0.78937   0.42678   0.00000  Uiso   1.00
H555   H     0.64136   0.76903   0.36769   0.00000  Uiso   1.00
H556   H     0.36320   0.74151   0.35393   0.00000  Uiso   1.00
H557   H     0.37601   0.81086   0.29436   0.00000  Uiso   1.00
H558   H     0.64614   0.82122   0.30218   0.00000  Uiso   1.00
N559   N     0.42822   0.61229   0.18799   0.00000  Uiso   1.00
H560   H     0.39333   0.59666   0.19145   0.00000  Uiso   1.00
C561   C     0.43649   0.61807   0.13794   0.00000  Uiso   1.00
H562   H     0.40536   0.63741   0.11905   0.00000  Uiso   1.00
H563   H     0.43657   0.58530   0.12035   0.00000  Uiso   1.00
H564   H     0.47333   0.63640   0.13459   0.00000  Uiso   1.00
N565   N     0.51662   0.88791   0.33915   0.00000  Uiso   1.00
H566   H     0.54847   0.89871   0.36142   0.00000  Uiso   1.00
C567   C     0.47071   0.88976   0.36270   0.00000  Uiso   1.00
H568   H     0.46316   0.92459   0.37094   0.00000  Uiso   1.00
H569   H     0.47540   0.87084   0.39711   0.00000  Uiso   1.00
H570   H     0.43762   0.87512   0.33924   0.00000  Uiso   1.00
C571   C     0.59834   0.75097   0.04055   0.00000  Uiso   1.00
C572   C     0.60367   0.70421   0.02158   0.00000  Uiso   1.00
C573   C     0.65793   0.69684   0.01117   0.00000  Uiso   1.00
H574   H     0.33654   0.72180   0.48463   0.00000  Uiso   1.00
H575   H     0.35092   0.69916   0.04505   0.00000  Uiso   1.00
H576   H     0.65996   0.66329   0.49591   0.00000  Uiso   1.00
H577   H     0.59325   0.67922   0.04874   0.00000  Uiso   1.00
H578   H     0.57839   0.69915   0.48754   0.00000  Uiso   1.00
H579   H     0.60482   0.77588   0.01222   0.00000  Uiso   1.00
H580   H     0.62964   0.75684   0.06993   0.00000  Uiso   1.00
C581   C     0.44888   0.67729   0.47276   0.00000  Uiso   1.00
C582   C     0.48718   0.64754   0.00157   0.00000  Uiso   1.00
C583   C     0.46148   0.60388   0.01593   0.00000  Uiso   1.00
H584   H     0.42754   0.61027   0.03451   0.00000  Uiso   1.00
H585   H     0.44924   0.58353   0.48350   0.00000  Uiso   1.00
H586   H     0.48873   0.58499   0.04056   0.00000  Uiso   1.00
H587   H     0.51845   0.63999   0.47989   0.00000  Uiso   1.00
H588   H     0.50371   0.66458   0.03500   0.00000  Uiso   1.00
H589   H     0.42308   0.68958   0.49707   0.00000  Uiso   1.00
H590   H     0.42178   0.65618   0.44949   0.00000  Uiso   1.00
C591   C     0.58141   0.79822   0.13332   0.00000  Uiso   1.00
C592   C     0.58385   0.84182   0.10438   0.00000  Uiso   1.00
C593   C     0.61794   0.87704   0.13237   0.00000  Uiso   1.00
H594   H     0.60272   0.88458   0.16674   0.00000  Uiso   1.00
H595   H     0.65733   0.86540   0.14034   0.00000  Uiso   1.00
H596   H     0.61923   0.90794   0.11052   0.00000  Uiso   1.00
H597   H     0.59927   0.83659   0.06963   0.00000  Uiso   1.00
H598   H     0.54484   0.85442   0.09651   0.00000  Uiso   1.00
H599   H     0.56974   0.80809   0.16777   0.00000  Uiso   1.00
H600   H     0.62000   0.78500   0.14053   0.00000  Uiso   1.00
C601   C     0.44045   0.68048   0.36639   0.00000  Uiso   1.00
C602   C     0.46350   0.63421   0.36913   0.00000  Uiso   1.00
C603   C     0.42809   0.60036   0.34039   0.00000  Uiso   1.00
H604   H     0.39228   0.59497   0.35746   0.00000  Uiso   1.00
H605   H     0.41836   0.61202   0.30279   0.00000  Uiso   1.00
H606   H     0.44703   0.56832   0.33968   0.00000  Uiso   1.00
H607   H     0.50149   0.63547   0.35605   0.00000  Uiso   1.00
H608   H     0.47027   0.62147   0.40630   0.00000  Uiso   1.00
H609   H     0.40220   0.67837   0.37920   0.00000  Uiso   1.00
H610   H     0.42993   0.68951   0.32892   0.00000  Uiso   1.00
C611   C     0.83362   0.66518   0.25005   0.00000  Uiso   1.00
C612   C     0.83451   0.83525   0.24998   0.00000  Uiso   1.00
C613   C     0.87989   0.75591   0.05877   0.00000  Uiso   1.00
C614   C     0.80793   0.71568   0.44607   0.00000  Uiso   1.00
C615   C     0.87678   0.76390   0.10857   0.00000  Uiso   1.00
C616   C     0.80725   0.71623   0.39431   0.00000  Uiso   1.00
C617   C     0.78882   0.74577   0.09946   0.00000  Uiso   1.00
C618   C     0.85849   0.78321   0.39738   0.00000  Uiso   1.00
C619   C     0.78818   0.75240   0.04935   0.00000  Uiso   1.00
C620   C     0.85712   0.78528   0.44761   0.00000  Uiso   1.00
C621   C     0.83384   0.75354   0.02747   0.00000  Uiso   1.00
C622   C     0.83260   0.75154   0.47296   0.00000  Uiso   1.00
C623   C     0.73495   0.74862   0.23834   0.00000  Uiso   1.00
C624   C     0.93166   0.75108   0.26166   0.00000  Uiso   1.00
C625   C     0.68060   0.73990   0.23416   0.00000  Uiso   1.00
C626   C     0.98603   0.75897   0.26608   0.00000  Uiso   1.00
C627   C     0.87847   0.55111   0.27729   0.00000  Uiso   1.00
C628   C     0.83820   0.95285   0.20378   0.00000  Uiso   1.00
C629   C     0.87413   0.59669   0.27927   0.00000  Uiso   1.00
C630   C     0.83477   0.90681   0.20540   0.00000  Uiso   1.00
C631   C     0.83597   0.61725   0.24931   0.00000  Uiso   1.00
C632   C     0.83816   0.88412   0.24984   0.00000  Uiso   1.00
C633   C     0.80202   0.59203   0.21685   0.00000  Uiso   1.00
C634   C     0.84633   0.90879   0.29311   0.00000  Uiso   1.00
C635   C     0.80603   0.54619   0.21570   0.00000  Uiso   1.00
C636   C     0.85056   0.95491   0.29089   0.00000  Uiso   1.00
C637   C     0.84427   0.52558   0.24566   0.00000  Uiso   1.00
C638   C     0.84558   0.97711   0.24658   0.00000  Uiso   1.00
Cu639  Cu    0.83333   0.75000   0.29822   0.00000  Uiso   1.00
Cu640  Cu    0.83333   0.75001   0.20179   0.00000  Uiso   1.00
H641   H     0.90844   0.53576   0.30053   0.00000  Uiso   1.00
H642   H     0.83478   0.96955   0.16910   0.00000  Uiso   1.00
H643   H     0.90103   0.61601   0.30363   0.00000  Uiso   1.00
H644   H     0.82896   0.88901   0.17165   0.00000  Uiso   1.00
H645   H     0.77845   0.52663   0.19224   0.00000  Uiso   1.00
H646   H     0.85555   0.97346   0.32418   0.00000  Uiso   1.00
H647   H     0.75294   0.74025   0.11409   0.00000  Uiso   1.00
H648   H     0.87917   0.80906   0.37966   0.00000  Uiso   1.00
H649   H     0.75189   0.75466   0.02754   0.00000  Uiso   1.00
H650   H     0.87557   0.81355   0.46682   0.00000  Uiso   1.00
N651   N     0.83333   0.75001   0.12935   0.00000  Uiso   1.00
N652   N     0.83333   0.74999   0.37066   0.00000  Uiso   1.00
O653   O     0.83334   0.68573   0.29072   0.00000  Uiso   1.00
O654   O     0.83333   0.81428   0.20929   0.00000  Uiso   1.00
O655   O     0.83334   0.68573   0.20928   0.00000  Uiso   1.00
O656   O     0.83333   0.81427   0.29072   0.00000  Uiso   1.00
O657   O     0.75828   0.74999   0.28132   0.00000  Uiso   1.00
O658   O     0.90839   0.75001   0.21868   0.00000  Uiso   1.00
O659   O     0.75828   0.75000   0.19989   0.00000  Uiso   1.00
O660   O     0.90839   0.75000   0.30012   0.00000  Uiso   1.00
C661   C     0.99327   0.70380   0.19802   0.00000  Uiso   1.00
C662   C     0.97763   0.66066   0.22312   0.00000  Uiso   1.00
C663   C     0.95213   0.62717   0.18652   0.00000  Uiso   1.00
H664   H     0.91512   0.63936   0.16981   0.00000  Uiso   1.00
H665   H     0.97690   0.62166   0.15772   0.00000  Uiso   1.00
H666   H     0.94496   0.59508   0.20484   0.00000  Uiso   1.00
H667   H     0.67871   0.64627   0.24282   0.00000  Uiso   1.00
H668   H     0.95066   0.66692   0.24971   0.00000  Uiso   1.00
H669   H     0.96168   0.71525   0.17222   0.00000  Uiso   1.00
H670   H     0.68965   0.69544   0.17477   0.00000  Uiso   1.00
C671   C     0.67335   0.79405   0.30320   0.00000  Uiso   1.00
C672   C     0.67926   0.77413   0.35439   0.00000  Uiso   1.00
C673   C     0.71247   0.80381   0.38994   0.00000  Uiso   1.00
H674   H     0.75194   0.80599   0.38004   0.00000  Uiso   1.00
H675   H     0.69715   0.83745   0.39001   0.00000  Uiso   1.00
H676   H     0.71335   0.78937   0.42678   0.00000  Uiso   1.00
H677   H     0.97469   0.76903   0.36769   0.00000  Uiso   1.00
H678   H     0.69653   0.74151   0.35393   0.00000  Uiso   1.00
H679   H     0.70935   0.81086   0.29436   0.00000  Uiso   1.00
H680   H     0.97947   0.82122   0.30218   0.00000  Uiso   1.00
N681   N     0.76156   0.61229   0.18799   0.00000  Uiso   1.00
H682   H     0.72666   0.59666   0.19145   0.00000  Uiso   1.00
C683   C     0.76982   0.61807   0.13794   0.00000  Uiso   1.00
H684   H     0.73869   0.63741   0.11905   0.00000  Uiso   1.00
H685   H     0.76990   0.58530   0.12035   0.00000  Uiso   1.00
H686   H     0.80666   0.63640   0.13459   0.00000  Uiso   1.00
N687   N     0.84995   0.88791   0.33915   0.00000  Uiso   1.00
H688   H     0.88180   0.89871   0.36142   0.00000  Uiso   1.00
C689   C     0.80405   0.88976   0.36270   0.00000  Uiso   1.00
H690   H     0.79649   0.92459   0.37094   0.00000  Uiso   1.00
H691   H     0.80874   0.87084   0.39711   0.00000  Uiso   1.00
H692   H     0.77095   0.87512   0.33924   0.00000  Uiso   1.00
C693   C     0.93167   0.75097   0.04055   0.00000  Uiso   1.00
C694   C     0.93700   0.70421   0.02158   0.00000  Uiso   1.00
C695   C     0.99127   0.69684   0.01117   0.00000  Uiso   1.00
H696   H     0.66987   0.72180   0.48463   0.00000  Uiso   1.00
H697   H     0.68425   0.69916   0.04505   0.00000  Uiso   1.00
H698   H     0.99329   0.66329   0.49591   0.00000  Uiso   1.00
H699   H     0.92658   0.67922   0.04874   0.00000  Uiso   1.00
H700   H     0.91172   0.69915   0.48754   0.00000  Uiso   1.00
H701   H     0.93816   0.77588   0.01222   0.00000  Uiso   1.00
H702   H     0.96298   0.75684   0.06993   0.00000  Uiso   1.00
C703   C     0.78221   0.67729   0.47276   0.00000  Uiso   1.00
C704   C     0.82051   0.64754   0.00157   0.00000  Uiso   1.00
C705   C     0.79481   0.60388   0.01593   0.00000  Uiso   1.00
H706   H     0.76087   0.61027   0.03451   0.00000  Uiso   1.00
H707   H     0.78257   0.58353   0.48350   0.00000  Uiso   1.00
H708   H     0.82206   0.58499   0.04056   0.00000  Uiso   1.00
H709   H     0.85178   0.63999   0.47989   0.00000  Uiso   1.00
H710   H     0.83705   0.66458   0.03500   0.00000  Uiso   1.00
H711   H     0.75641   0.68958   0.49707   0.00000  Uiso   1.00
H712   H     0.75512   0.65618   0.44949   0.00000  Uiso   1.00
C713   C     0.91474   0.79822   0.13332   0.00000  Uiso   1.00
C714   C     0.91719   0.84182   0.10438   0.00000  Uiso   1.00
C715   C     0.95127   0.87704   0.13237   0.00000  Uiso   1.00
H716   H     0.93605   0.88458   0.16674   0.00000  Uiso   1.00
H717   H     0.99066   0.86540   0.14034   0.00000  Uiso   1.00
H718   H     0.95257   0.90794   0.11052   0.00000  Uiso   1.00
H719   H     0.93260   0.83659   0.06963   0.00000  Uiso   1.00
H720   H     0.87817   0.85442   0.09651   0.00000  Uiso   1.00
H721   H     0.90308   0.80809   0.16777   0.00000  Uiso   1.00
H722   H     0.95333   0.78500   0.14053   0.00000  Uiso   1.00
C723   C     0.77378   0.68048   0.36639   0.00000  Uiso   1.00
C724   C     0.79684   0.63421   0.36913   0.00000  Uiso   1.00
C725   C     0.76142   0.60036   0.34039   0.00000  Uiso   1.00
H726   H     0.72561   0.59497   0.35746   0.00000  Uiso   1.00
H727   H     0.75169   0.61202   0.30279   0.00000  Uiso   1.00
H728   H     0.78036   0.56832   0.33968   0.00000  Uiso   1.00
H729   H     0.83482   0.63547   0.35605   0.00000  Uiso   1.00
H730   H     0.80360   0.62147   0.40630   0.00000  Uiso   1.00
H731   H     0.73553   0.67837   0.37920   0.00000  Uiso   1.00
H732   H     0.76326   0.68951   0.32892   0.00000  Uiso   1.00
C733   C     0.16695   0.16518   0.75005   0.00000  Uiso   1.00
C734   C     0.16784   0.33525   0.74998   0.00000  Uiso   1.00
C735   C     0.21322   0.25591   0.55877   0.00000  Uiso   1.00
C736   C     0.14127   0.21568   0.94607   0.00000  Uiso   1.00
C737   C     0.21012   0.26390   0.60857   0.00000  Uiso   1.00
C738   C     0.14058   0.21623   0.89431   0.00000  Uiso   1.00
C739   C     0.12215   0.24577   0.59946   0.00000  Uiso   1.00
C740   C     0.19182   0.28321   0.89738   0.00000  Uiso   1.00
C741   C     0.12151   0.25240   0.54935   0.00000  Uiso   1.00
C742   C     0.19045   0.28528   0.94761   0.00000  Uiso   1.00
C743   C     0.16718   0.25354   0.52747   0.00000  Uiso   1.00
C744   C     0.16594   0.25154   0.97296   0.00000  Uiso   1.00
C745   C     0.06828   0.24862   0.73834   0.00000  Uiso   1.00
C746   C     0.26499   0.25108   0.76166   0.00000  Uiso   1.00
C747   C     0.01393   0.23990   0.73416   0.00000  Uiso   1.00
C748   C     0.31936   0.25897   0.76608   0.00000  Uiso   1.00
C749   C     0.21180   0.05111   0.77729   0.00000  Uiso   1.00
C750   C     0.17153   0.45285   0.70378   0.00000  Uiso   1.00
C751   C     0.20746   0.09669   0.77927   0.00000  Uiso   1.00
C752   C     0.16810   0.40681   0.70540   0.00000  Uiso   1.00
C753   C     0.16931   0.11725   0.74931   0.00000  Uiso   1.00
C754   C     0.17149   0.38412   0.74984   0.00000  Uiso   1.00
C755   C     0.13536   0.09203   0.71685   0.00000  Uiso   1.00
C756   C     0.17967   0.40879   0.79311   0.00000  Uiso   1.00
C757   C     0.13937   0.04619   0.71570   0.00000  Uiso   1.00
C758   C     0.18389   0.45491   0.79089   0.00000  Uiso   1.00
C759   C     0.17760   0.02558   0.74566   0.00000  Uiso   1.00
C760   C     0.17891   0.47711   0.74658   0.00000  Uiso   1.00
Cu761  Cu    0.16667   0.25000   0.79822   0.00000  Uiso   1.00
Cu762  Cu    0.16667   0.25001   0.70179   0.00000  Uiso   1.00
H763   H     0.24177   0.03576   0.80053   0.00000  Uiso   1.00
H764   H     0.16811   0.46955   0.66910   0.00000  Uiso   1.00
H765   H     0.23436   0.11601   0.80363   0.00000  Uiso   1.00
H766   H     0.16230   0.38901   0.67165   0.00000  Uiso   1.00
H767   H     0.11179   0.02663   0.69224   0.00000  Uiso   1.00
H768   H     0.18888   0.47346   0.82418   0.00000  Uiso   1.00
H769   H     0.08627   0.24025   0.61409   0.00000  Uiso   1.00
H770   H     0.21251   0.30906   0.87966   0.00000  Uiso   1.00
H771   H     0.08522   0.25466   0.52754   0.00000  Uiso   1.00
H772   H     0.20891   0.31355   0.96682   0.00000  Uiso   1.00
N773   N     0.16667   0.25001   0.62935   0.00000  Uiso   1.00
N774   N     0.16667   0.24999   0.87066   0.00000  Uiso   1.00
O775   O     0.16667   0.18573   0.79072   0.00000  Uiso   1.00
O776   O     0.16666   0.31428   0.70929   0.00000  Uiso   1.00
O777   O     0.16667   0.18573   0.70928   0.00000  Uiso   1.00
O778   O     0.16666   0.31427   0.79072   0.00000  Uiso   1.00
O779   O     0.09161   0.24999   0.78132   0.00000  Uiso   1.00
O780   O     0.24172   0.25001   0.71868   0.00000  Uiso   1.00
O781   O     0.09161   0.25000   0.69989   0.00000  Uiso   1.00
O782   O     0.24172   0.25000   0.80012   0.00000  Uiso   1.00
C783   C     0.32661   0.20380   0.69802   0.00000  Uiso   1.00
C784   C     0.31096   0.16066   0.72312   0.00000  Uiso   1.00
C785   C     0.28546   0.12717   0.68652   0.00000  Uiso   1.00
H786   H     0.24846   0.13936   0.66981   0.00000  Uiso   1.00
H787   H     0.31024   0.12166   0.65772   0.00000  Uiso   1.00
H788   H     0.27829   0.09508   0.70484   0.00000  Uiso   1.00
H789   H     0.01204   0.14627   0.74282   0.00000  Uiso   1.00
H790   H     0.28399   0.16692   0.74971   0.00000  Uiso   1.00
H791   H     0.29501   0.21525   0.67222   0.00000  Uiso   1.00
H792   H     0.02298   0.19544   0.67477   0.00000  Uiso   1.00
C793   C     0.00668   0.29405   0.80320   0.00000  Uiso   1.00
C794   C     0.01259   0.27413   0.85439   0.00000  Uiso   1.00
C795   C     0.04580   0.30381   0.88994   0.00000  Uiso   1.00
H796   H     0.08527   0.30599   0.88004   0.00000  Uiso   1.00
H797   H     0.03048   0.33745   0.89001   0.00000  Uiso   1.00
H798   H     0.04668   0.28937   0.92678   0.00000  Uiso   1.00
H799   H     0.30802   0.26903   0.86769   0.00000  Uiso   1.00
H800   H     0.02986   0.24151   0.85393   0.00000  Uiso   1.00
H801   H     0.04268   0.31086   0.79436   0.00000  Uiso   1.00
H802   H     0.31280   0.32122   0.80218   0.00000  Uiso   1.00
N803   N     0.09489   0.11229   0.68799   0.00000  Uiso   1.00
H804   H     0.05999   0.09666   0.69145   0.00000  Uiso   1.00
C805   C     0.10316   0.11807   0.63794   0.00000  Uiso   1.00
H806   H     0.07203   0.13741   0.61905   0.00000  Uiso   1.00
H807   H     0.10324   0.08530   0.62035   0.00000  Uiso   1.00
H808   H     0.14000   0.13640   0.63459   0.00000  Uiso   1.00
N809   N     0.18329   0.38791   0.83915   0.00000  Uiso   1.00
H810   H     0.21513   0.39871   0.86142   0.00000  Uiso   1.00
C811   C     0.13738   0.38976   0.86270   0.00000  Uiso   1.00
H812   H     0.12982   0.42459   0.87094   0.00000  Uiso   1.00
H813   H     0.14207   0.37084   0.89711   0.00000  Uiso   1.00
H814   H     0.10428   0.37512   0.83924   0.00000  Uiso   1.00
C815   C     0.26500   0.25097   0.54055   0.00000  Uiso   1.00
C816   C     0.27033   0.20421   0.52158   0.00000  Uiso   1.00
C817   C     0.32460   0.19684   0.51117   0.00000  Uiso   1.00
H818   H     0.00320   0.22180   0.98463   0.00000  Uiso   1.00
H819   H     0.01759   0.19916   0.54505   0.00000  Uiso   1.00
H820   H     0.32663   0.16329   0.99591   0.00000  Uiso   1.00
H821   H     0.25991   0.17922   0.54874   0.00000  Uiso   1.00
H822   H     0.24505   0.19915   0.98754   0.00000  Uiso   1.00
H823   H     0.27149   0.27588   0.51222   0.00000  Uiso   1.00
H824   H     0.29631   0.25684   0.56993   0.00000  Uiso   1.00
C825   C     0.11554   0.17729   0.97276   0.00000  Uiso   1.00
C826   C     0.15385   0.14754   0.50157   0.00000  Uiso   1.00
C827   C     0.12815   0.10388   0.51593   0.00000  Uiso   1.00
H828   H     0.09420   0.11027   0.53451   0.00000  Uiso   1.00
H829   H     0.11591   0.08353   0.98350   0.00000  Uiso   1.00
H830   H     0.15540   0.08499   0.54056   0.00000  Uiso   1.00
H831   H     0.18512   0.13999   0.97989   0.00000  Uiso   1.00
H832   H     0.17038   0.16458   0.53500   0.00000  Uiso   1.00
H833   H     0.08975   0.18958   0.99707   0.00000  Uiso   1.00
H834   H     0.08845   0.15618   0.94949   0.00000  Uiso   1.00
C835   C     0.24807   0.29822   0.63332   0.00000  Uiso   1.00
C836   C     0.25052   0.34182   0.60438   0.00000  Uiso   1.00
C837   C     0.28461   0.37704   0.63237   0.00000  Uiso   1.00
H838   H     0.26939   0.38458   0.66674   0.00000  Uiso   1.00
H839   H     0.32399   0.36540   0.64034   0.00000  Uiso   1.00
H840   H     0.28590   0.40794   0.61052   0.00000  Uiso   1.00
H841   H     0.26593   0.33659   0.56963   0.00000  Uiso   1.00
H842   H     0.21151   0.35442   0.59651   0.00000  Uiso   1.00
H843   H     0.23641   0.30809   0.66777   0.00000  Uiso   1.00
H844   H     0.28667   0.28500   0.64053   0.00000  Uiso   1.00
C845   C     0.10712   0.18048   0.86639   0.00000  Uiso   1.00
C846   C     0.13017   0.13421   0.86913   0.00000  Uiso   1.00
C847   C     0.09475   0.10036   0.84039   0.00000  Uiso   1.00
H848   H     0.05895   0.09497   0.85746   0.00000  Uiso   1.00
H849   H     0.08503   0.11202   0.80279   0.00000  Uiso   1.00
H850   H     0.11370   0.06832   0.83968   0.00000  Uiso   1.00
H851   H     0.16816   0.13547   0.85605   0.00000  Uiso   1.00
H852   H     0.13693   0.12147   0.90630   0.00000  Uiso   1.00
H853   H     0.06886   0.17837   0.87920   0.00000  Uiso   1.00
H854   H     0.09659   0.18951   0.82892   0.00000  Uiso   1.00
C855   C     0.50029   0.16518   0.75005   0.00000  Uiso   1.00
C856   C     0.50118   0.33525   0.74998   0.00000  Uiso   1.00
C857   C     0.54656   0.25591   0.55877   0.00000  Uiso   1.00
C858   C     0.47460   0.21568   0.94607   0.00000  Uiso   1.00
C859   C     0.54345   0.26390   0.60857   0.00000  Uiso   1.00
C860   C     0.47391   0.21623   0.89431   0.00000  Uiso   1.00
C861   C     0.45548   0.24577   0.59946   0.00000  Uiso   1.00
C862   C     0.52515   0.28321   0.89738   0.00000  Uiso   1.00
C863   C     0.45484   0.25240   0.54935   0.00000  Uiso   1.00
C864   C     0.52378   0.28528   0.94761   0.00000  Uiso   1.00
C865   C     0.50051   0.25354   0.52747   0.00000  Uiso   1.00
C866   C     0.49927   0.25154   0.97296   0.00000  Uiso   1.00
C867   C     0.40162   0.24862   0.73834   0.00000  Uiso   1.00
C868   C     0.59833   0.25108   0.76166   0.00000  Uiso   1.00
C869   C     0.34726   0.23990   0.73416   0.00000  Uiso   1.00
C870   C     0.65270   0.25897   0.76608   0.00000  Uiso   1.00
C871   C     0.54513   0.05111   0.77729   0.00000  Uiso   1.00
C872   C     0.50487   0.45285   0.70378   0.00000  Uiso   1.00
C873   C     0.54080   0.09669   0.77927   0.00000  Uiso   1.00
C874   C     0.50144   0.40681   0.70540   0.00000  Uiso   1.00
C875   C     0.50264   0.11725   0.74931   0.00000  Uiso   1.00
C876   C     0.50482   0.38412   0.74984   0.00000  Uiso   1.00
C877   C     0.46869   0.09203   0.71685   0.00000  Uiso   1.00
C878   C     0.51300   0.40879   0.79311   0.00000  Uiso   1.00
C879   C     0.47270   0.04619   0.71570   0.00000  Uiso   1.00
C880   C     0.51723   0.45491   0.79089   0.00000  Uiso   1.00
C881   C     0.51093   0.02558   0.74566   0.00000  Uiso   1.00
C882   C     0.51225   0.47711   0.74658   0.00000  Uiso   1.00
Cu883  Cu    0.50000   0.25000   0.79822   0.00000  Uiso   1.00
Cu884  Cu    0.50000   0.25001   0.70179   0.00000  Uiso   1.00
H885   H     0.57510   0.03576   0.80053   0.00000  Uiso   1.00
H886   H     0.50145   0.46955   0.66910   0.00000  Uiso   1.00
H887   H     0.56770   0.11601   0.80363   0.00000  Uiso   1.00
H888   H     0.49563   0.38901   0.67165   0.00000  Uiso   1.00
H889   H     0.44512   0.02663   0.69224   0.00000  Uiso   1.00
H890   H     0.52221   0.47346   0.82418   0.00000  Uiso   1.00
H891   H     0.41960   0.24025   0.61409   0.00000  Uiso   1.00
H892   H     0.54584   0.30906   0.87966   0.00000  Uiso   1.00
H893   H     0.41856   0.25466   0.52754   0.00000  Uiso   1.00
H894   H     0.54224   0.31355   0.96682   0.00000  Uiso   1.00
N895   N     0.50000   0.25001   0.62935   0.00000  Uiso   1.00
N896   N     0.50000   0.24999   0.87066   0.00000  Uiso   1.00
O897   O     0.50000   0.18573   0.79072   0.00000  Uiso   1.00
O898   O     0.50000   0.31428   0.70929   0.00000  Uiso   1.00
O899   O     0.50000   0.18573   0.70928   0.00000  Uiso   1.00
O900   O     0.50000   0.31427   0.79072   0.00000  Uiso   1.00
O901   O     0.42495   0.24999   0.78132   0.00000  Uiso   1.00
O902   O     0.57505   0.25001   0.71868   0.00000  Uiso   1.00
O903   O     0.42495   0.25000   0.69989   0.00000  Uiso   1.00
O904   O     0.57505   0.25000   0.80012   0.00000  Uiso   1.00
C905   C     0.65994   0.20380   0.69802   0.00000  Uiso   1.00
C906   C     0.64429   0.16066   0.72312   0.00000  Uiso   1.00
C907   C     0.61880   0.12717   0.68652   0.00000  Uiso   1.00
H908   H     0.58179   0.13936   0.66981   0.00000  Uiso   1.00
H909   H     0.64357   0.12166   0.65772   0.00000  Uiso   1.00
H910   H     0.61162   0.09508   0.70484   0.00000  Uiso   1.00
H911   H     0.34537   0.14627   0.74282   0.00000  Uiso   1.00
H912   H     0.61732   0.16692   0.74971   0.00000  Uiso   1.00
H913   H     0.62835   0.21525   0.67222   0.00000  Uiso   1.00
H914   H     0.35631   0.19544   0.67477   0.00000  Uiso   1.00
C915   C     0.34002   0.29405   0.80320   0.00000  Uiso   1.00
C916   C     0.34593   0.27413   0.85439   0.00000  Uiso   1.00
C917   C     0.37913   0.30381   0.88994   0.00000  Uiso   1.00
H918   H     0.41860   0.30599   0.88004   0.00000  Uiso   1.00
H919   H     0.36382   0.33745   0.89001   0.00000  Uiso   1.00
H920   H     0.38001   0.28937   0.92678   0.00000  Uiso   1.00
H921   H     0.64136   0.26903   0.86769   0.00000  Uiso   1.00
H922   H     0.36320   0.24151   0.85393   0.00000  Uiso   1.00
H923   H     0.37601   0.31086   0.79436   0.00000  Uiso   1.00
H924   H     0.64614   0.32122   0.80218   0.00000  Uiso   1.00
N925   N     0.42822   0.11229   0.68799   0.00000  Uiso   1.00
H926   H     0.39333   0.09666   0.69145   0.00000  Uiso   1.00
C927   C     0.43649   0.11807   0.63794   0.00000  Uiso   1.00
H928   H     0.40536   0.13741   0.61905   0.00000  Uiso   1.00
H929   H     0.43657   0.08530   0.62035   0.00000  Uiso   1.00
H930   H     0.47333   0.13640   0.63459   0.00000  Uiso   1.00
N931   N     0.51662   0.38791   0.83915   0.00000  Uiso   1.00
H932   H     0.54847   0.39871   0.86142   0.00000  Uiso   1.00
C933   C     0.47071   0.38976   0.86270   0.00000  Uiso   1.00
H934   H     0.46316   0.42459   0.87094   0.00000  Uiso   1.00
H935   H     0.47540   0.37084   0.89711   0.00000  Uiso   1.00
H936   H     0.43762   0.37512   0.83924   0.00000  Uiso   1.00
C937   C     0.59834   0.25097   0.54055   0.00000  Uiso   1.00
C938   C     0.60367   0.20421   0.52158   0.00000  Uiso   1.00
C939   C     0.65793   0.19684   0.51117   0.00000  Uiso   1.00
H940   H     0.33654   0.22180   0.98463   0.00000  Uiso   1.00
H941   H     0.35092   0.19916   0.54505   0.00000  Uiso   1.00
H942   H     0.65996   0.16329   0.99591   0.00000  Uiso   1.00
H943   H     0.59325   0.17922   0.54874   0.00000  Uiso   1.00
H944   H     0.57839   0.19915   0.98754   0.00000  Uiso   1.00
H945   H     0.60482   0.27588   0.51222   0.00000  Uiso   1.00
H946   H     0.62964   0.25684   0.56993   0.00000  Uiso   1.00
C947   C     0.44888   0.17729   0.97276   0.00000  Uiso   1.00
C948   C     0.48718   0.14754   0.50157   0.00000  Uiso   1.00
C949   C     0.46148   0.10388   0.51593   0.00000  Uiso   1.00
H950   H     0.42754   0.11027   0.53451   0.00000  Uiso   1.00
H951   H     0.44924   0.08353   0.98350   0.00000  Uiso   1.00
H952   H     0.48873   0.08499   0.54056   0.00000  Uiso   1.00
H953   H     0.51845   0.13999   0.97989   0.00000  Uiso   1.00
H954   H     0.50371   0.16458   0.53500   0.00000  Uiso   1.00
H955   H     0.42308   0.18958   0.99707   0.00000  Uiso   1.00
H956   H     0.42178   0.15618   0.94949   0.00000  Uiso   1.00
C957   C     0.58141   0.29822   0.63332   0.00000  Uiso   1.00
C958   C     0.58385   0.34182   0.60438   0.00000  Uiso   1.00
C959   C     0.61794   0.37704   0.63237   0.00000  Uiso   1.00
H960   H     0.60272   0.38458   0.66674   0.00000  Uiso   1.00
H961   H     0.65733   0.36540   0.64034   0.00000  Uiso   1.00
H962   H     0.61923   0.40794   0.61052   0.00000  Uiso   1.00
H963   H     0.59927   0.33659   0.56963   0.00000  Uiso   1.00
H964   H     0.54484   0.35442   0.59651   0.00000  Uiso   1.00
H965   H     0.56974   0.30809   0.66777   0.00000  Uiso   1.00
H966   H     0.62000   0.28500   0.64053   0.00000  Uiso   1.00
C967   C     0.44045   0.18048   0.86639   0.00000  Uiso   1.00
C968   C     0.46350   0.13421   0.86913   0.00000  Uiso   1.00
C969   C     0.42809   0.10036   0.84039   0.00000  Uiso   1.00
H970   H     0.39228   0.09497   0.85746   0.00000  Uiso   1.00
H971   H     0.41836   0.11202   0.80279   0.00000  Uiso   1.00
H972   H     0.44703   0.06832   0.83968   0.00000  Uiso   1.00
H973   H     0.50149   0.13547   0.85605   0.00000  Uiso   1.00
H974   H     0.47027   0.12147   0.90630   0.00000  Uiso   1.00
H975   H     0.40220   0.17837   0.87920   0.00000  Uiso   1.00
H976   H     0.42993   0.18951   0.82892   0.00000  Uiso   1.00
C977   C     0.83362   0.16518   0.75005   0.00000  Uiso   1.00
C978   C     0.83451   0.33525   0.74998   0.00000  Uiso   1.00
C979   C     0.87989   0.25591   0.55877   0.00000  Uiso   1.00
C980   C     0.80793   0.21568   0.94607   0.00000  Uiso   1.00
C981   C     0.87678   0.26390   0.60857   0.00000  Uiso   1.00
C982   C     0.80725   0.21623   0.89431   0.00000  Uiso   1.00
C983   C     0.78882   0.24577   0.59946   0.00000  Uiso   1.00
C984   C     0.85849   0.28321   0.89738   0.00000  Uiso   1.00
C985   C     0.78818   0.25240   0.54935   0.00000  Uiso   1.00
C986   C     0.85712   0.28528   0.94761   0.00000  Uiso   1.00
C987   C     0.83384   0.25354   0.52747   0.00000  Uiso   1.00
C988   C     0.83260   0.25154   0.97296   0.00000  Uiso   1.00
C989   C     0.73495   0.24862   0.73834   0.00000  Uiso   1.00
C990   C     0.93166   0.25108   0.76166   0.00000  Uiso   1.00
C991   C     0.68060   0.23990   0.73416   0.00000  Uiso   1.00
C992   C     0.98603   0.25897   0.76608   0.00000  Uiso   1.00
C993   C     0.87847   0.05111   0.77729   0.00000  Uiso   1.00
C994   C     0.83820   0.45285   0.70378   0.00000  Uiso   1.00
C995   C     0.87413   0.09669   0.77927   0.00000  Uiso   1.00
C996   C     0.83477   0.40681   0.70540   0.00000  Uiso   1.00
C997   C     0.83597   0.11725   0.74931   0.00000  Uiso   1.00
C998   C     0.83816   0.38412   0.74984   0.00000  Uiso   1.00
C999   C     0.80202   0.09203   0.71685   0.00000  Uiso   1.00
C1000  C     0.84633   0.40879   0.79311   0.00000  Uiso   1.00
C1001  C     0.80603   0.04619   0.71570   0.00000  Uiso   1.00
C1002  C     0.85056   0.45491   0.79089   0.00000  Uiso   1.00
C1003  C     0.84427   0.02558   0.74566   0.00000  Uiso   1.00
C1004  C     0.84558   0.47711   0.74658   0.00000  Uiso   1.00
Cu1005 Cu    0.83333   0.25000   0.79822   0.00000  Uiso   1.00
Cu1006 Cu    0.83333   0.25001   0.70179   0.00000  Uiso   1.00
H1007  H     0.90844   0.03576   0.80053   0.00000  Uiso   1.00
H1008  H     0.83478   0.46955   0.66910   0.00000  Uiso   1.00
H1009  H     0.90103   0.11601   0.80363   0.00000  Uiso   1.00
H1010  H     0.82896   0.38901   0.67165   0.00000  Uiso   1.00
H1011  H     0.77845   0.02663   0.69224   0.00000  Uiso   1.00
H1012  H     0.85555   0.47346   0.82418   0.00000  Uiso   1.00
H1013  H     0.75294   0.24025   0.61409   0.00000  Uiso   1.00
H1014  H     0.87917   0.30906   0.87966   0.00000  Uiso   1.00
H1015  H     0.75189   0.25466   0.52754   0.00000  Uiso   1.00
H1016  H     0.87557   0.31355   0.96682   0.00000  Uiso   1.00
N1017  N     0.83333   0.25001   0.62935   0.00000  Uiso   1.00
N1018  N     0.83333   0.24999   0.87066   0.00000  Uiso   1.00
O1019  O     0.83334   0.18573   0.79072   0.00000  Uiso   1.00
O1020  O     0.83333   0.31428   0.70929   0.00000  Uiso   1.00
O1021  O     0.83334   0.18573   0.70928   0.00000  Uiso   1.00
O1022  O     0.83333   0.31427   0.79072   0.00000  Uiso   1.00
O1023  O     0.75828   0.24999   0.78132   0.00000  Uiso   1.00
O1024  O     0.90839   0.25001   0.71868   0.00000  Uiso   1.00
O1025  O     0.75828   0.25000   0.69989   0.00000  Uiso   1.00
O1026  O     0.90839   0.25000   0.80012   0.00000  Uiso   1.00
C1027  C     0.99327   0.20380   0.69802   0.00000  Uiso   1.00
C1028  C     0.97763   0.16066   0.72312   0.00000  Uiso   1.00
C1029  C     0.95213   0.12717   0.68652   0.00000  Uiso   1.00
H1030  H     0.91512   0.13936   0.66981   0.00000  Uiso   1.00
H1031  H     0.97690   0.12166   0.65772   0.00000  Uiso   1.00
H1032  H     0.94496   0.09508   0.70484   0.00000  Uiso   1.00
H1033  H     0.67871   0.14627   0.74282   0.00000  Uiso   1.00
H1034  H     0.95066   0.16692   0.74971   0.00000  Uiso   1.00
H1035  H     0.96168   0.21525   0.67222   0.00000  Uiso   1.00
H1036  H     0.68965   0.19544   0.67477   0.00000  Uiso   1.00
C1037  C     0.67335   0.29405   0.80320   0.00000  Uiso   1.00
C1038  C     0.67926   0.27413   0.85439   0.00000  Uiso   1.00
C1039  C     0.71247   0.30381   0.88994   0.00000  Uiso   1.00
H1040  H     0.75194   0.30599   0.88004   0.00000  Uiso   1.00
H1041  H     0.69715   0.33745   0.89001   0.00000  Uiso   1.00
H1042  H     0.71335   0.28937   0.92678   0.00000  Uiso   1.00
H1043  H     0.97469   0.26903   0.86769   0.00000  Uiso   1.00
H1044  H     0.69653   0.24151   0.85393   0.00000  Uiso   1.00
H1045  H     0.70935   0.31086   0.79436   0.00000  Uiso   1.00
H1046  H     0.97947   0.32122   0.80218   0.00000  Uiso   1.00
N1047  N     0.76156   0.11229   0.68799   0.00000  Uiso   1.00
H1048  H     0.72666   0.09666   0.69145   0.00000  Uiso   1.00
C1049  C     0.76982   0.11807   0.63794   0.00000  Uiso   1.00
H1050  H     0.73869   0.13741   0.61905   0.00000  Uiso   1.00
H1051  H     0.76990   0.08530   0.62035   0.00000  Uiso   1.00
H1052  H     0.80666   0.13640   0.63459   0.00000  Uiso   1.00
N1053  N     0.84995   0.38791   0.83915   0.00000  Uiso   1.00
H1054  H     0.88180   0.39871   0.86142   0.00000  Uiso   1.00
C1055  C     0.80405   0.38976   0.86270   0.00000  Uiso   1.00
H1056  H     0.79649   0.42459   0.87094   0.00000  Uiso   1.00
H1057  H     0.80874   0.37084   0.89711   0.00000  Uiso   1.00
H1058  H     0.77095   0.37512   0.83924   0.00000  Uiso   1.00
C1059  C     0.93167   0.25097   0.54055   0.00000  Uiso   1.00
C1060  C     0.93700   0.20421   0.52158   0.00000  Uiso   1.00
C1061  C     0.99127   0.19684   0.51117   0.00000  Uiso   1.00
H1062  H     0.66987   0.22180   0.98463   0.00000  Uiso   1.00
H1063  H     0.68425   0.19916   0.54505   0.00000  Uiso   1.00
H1064  H     0.99329   0.16329   0.99591   0.00000  Uiso   1.00
H1065  H     0.92658   0.17922   0.54874   0.00000  Uiso   1.00
H1066  H     0.91172   0.19915   0.98754   0.00000  Uiso   1.00
H1067  H     0.93816   0.27588   0.51222   0.00000  Uiso   1.00
H1068  H     0.96298   0.25684   0.56993   0.00000  Uiso   1.00
C1069  C     0.78221   0.17729   0.97276   0.00000  Uiso   1.00
C1070  C     0.82051   0.14754   0.50157   0.00000  Uiso   1.00
C1071  C     0.79481   0.10388   0.51593   0.00000  Uiso   1.00
H1072  H     0.76087   0.11027   0.53451   0.00000  Uiso   1.00
H1073  H     0.78257   0.08353   0.98350   0.00000  Uiso   1.00
H1074  H     0.82206   0.08499   0.54056   0.00000  Uiso   1.00
H1075  H     0.85178   0.13999   0.97989   0.00000  Uiso   1.00
H1076  H     0.83705   0.16458   0.53500   0.00000  Uiso   1.00
H1077  H     0.75641   0.18958   0.99707   0.00000  Uiso   1.00
H1078  H     0.75512   0.15618   0.94949   0.00000  Uiso   1.00
C1079  C     0.91474   0.29822   0.63332   0.00000  Uiso   1.00
C1080  C     0.91719   0.34182   0.60438   0.00000  Uiso   1.00
C1081  C     0.95127   0.37704   0.63237   0.00000  Uiso   1.00
H1082  H     0.93605   0.38458   0.66674   0.00000  Uiso   1.00
H1083  H     0.99066   0.36540   0.64034   0.00000  Uiso   1.00
H1084  H     0.95257   0.40794   0.61052   0.00000  Uiso   1.00
H1085  H     0.93260   0.33659   0.56963   0.00000  Uiso   1.00
H1086  H     0.87817   0.35442   0.59651   0.00000  Uiso   1.00
H1087  H     0.90308   0.30809   0.66777   0.00000  Uiso   1.00
H1088  H     0.95333   0.28500   0.64053   0.00000  Uiso   1.00
C1089  C     0.77378   0.18048   0.86639   0.00000  Uiso   1.00
C1090  C     0.79684   0.13421   0.86913   0.00000  Uiso   1.00
C1091  C     0.76142   0.10036   0.84039   0.00000  Uiso   1.00
H1092  H     0.72561   0.09497   0.85746   0.00000  Uiso   1.00
H1093  H     0.75169   0.11202   0.80279   0.00000  Uiso   1.00
H1094  H     0.78036   0.06832   0.83968   0.00000  Uiso   1.00
H1095  H     0.83482   0.13547   0.85605   0.00000  Uiso   1.00
H1096  H     0.80360   0.12147   0.90630   0.00000  Uiso   1.00
H1097  H     0.73553   0.17837   0.87920   0.00000  Uiso   1.00
H1098  H     0.76326   0.18951   0.82892   0.00000  Uiso   1.00
C1099  C     0.16695   0.66518   0.75005   0.00000  Uiso   1.00
C1100  C     0.16784   0.83525   0.74998   0.00000  Uiso   1.00
C1101  C     0.21322   0.75591   0.55877   0.00000  Uiso   1.00
C1102  C     0.14127   0.71568   0.94607   0.00000  Uiso   1.00
C1103  C     0.21012   0.76390   0.60857   0.00000  Uiso   1.00
C1104  C     0.14058   0.71623   0.89431   0.00000  Uiso   1.00
C1105  C     0.12215   0.74577   0.59946   0.00000  Uiso   1.00
C1106  C     0.19182   0.78321   0.89738   0.00000  Uiso   1.00
C1107  C     0.12151   0.75240   0.54935   0.00000  Uiso   1.00
C1108  C     0.19045   0.78528   0.94761   0.00000  Uiso   1.00
C1109  C     0.16718   0.75354   0.52747   0.00000  Uiso   1.00
C1110  C     0.16594   0.75154   0.97296   0.00000  Uiso   1.00
C1111  C     0.06828   0.74862   0.73834   0.00000  Uiso   1.00
C1112  C     0.26499   0.75108   0.76166   0.00000  Uiso   1.00
C1113  C     0.01393   0.73990   0.73416   0.00000  Uiso   1.00
C1114  C     0.31936   0.75897   0.76608   0.00000  Uiso   1.00
C1115  C     0.21180   0.55111   0.77729   0.00000  Uiso   1.00
C1116  C     0.17153   0.95285   0.70378   0.00000  Uiso   1.00
C1117  C     0.20746   0.59669   0.77927   0.00000  Uiso   1.00
C1118  C     0.16810   0.90681   0.70540   0.00000  Uiso   1.00
C1119  C     0.16931   0.61725   0.74931   0.00000  Uiso   1.00
C1120  C     0.17149   0.88412   0.74984   0.00000  Uiso   1.00
C1121  C     0.13536   0.59203   0.71685   0.00000  Uiso   1.00
C1122  C     0.17967   0.90879   0.79311   0.00000  Uiso   1.00
C1123  C     0.13937   0.54619   0.71570   0.00000  Uiso   1.00
C1124  C     0.18389   0.95491   0.79089   0.00000  Uiso   1.00
C1125  C     0.17760   0.52558   0.74566   0.00000  Uiso   1.00
C1126  C     0.17891   0.97711   0.74658   0.00000  Uiso   1.00
Cu1127 Cu    0.16667   0.75000   0.79822   0.00000  Uiso   1.00
Cu1128 Cu    0.16667   0.75001   0.70179   0.00000  Uiso   1.00
H1129  H     0.24177   0.53576   0.80053   0.00000  Uiso   1.00
H1130  H     0.16811   0.96955   0.66910   0.00000  Uiso   1.00
H1131  H     0.23436   0.61601   0.80363   0.00000  Uiso   1.00
H1132  H     0.16230   0.88901   0.67165   0.00000  Uiso   1.00
H1133  H     0.11179   0.52663   0.69224   0.00000  Uiso   1.00
H1134  H     0.18888   0.97346   0.82418   0.00000  Uiso   1.00
H1135  H     0.08627   0.74025   0.61409   0.00000  Uiso   1.00
H1136  H     0.21251   0.80906   0.87966   0.00000  Uiso   1.00
H1137  H     0.08522   0.75466   0.52754   0.00000  Uiso   1.00
H1138  H     0.20891   0.81355   0.96682   0.00000  Uiso   1.00
N1139  N     0.16667   0.75001   0.62935   0.00000  Uiso   1.00
N1140  N     0.16667   0.74999   0.87066   0.00000  Uiso   1.00
O1141  O     0.16667   0.68573   0.79072   0.00000  Uiso   1.00
O1142  O     0.16666   0.81428   0.70929   0.00000  Uiso   1.00
O1143  O     0.16667   0.68573   0.70928   0.00000  Uiso   1.00
O1144  O     0.16666   0.81427   0.79072   0.00000  Uiso   1.00
O1145  O     0.09161   0.74999   0.78132   0.00000  Uiso   1.00
O1146  O     0.24172   0.75001   0.71868   0.00000  Uiso   1.00
O1147  O     0.09161   0.75000   0.69989   0.00000  Uiso   1.00
O1148  O     0.24172   0.75000   0.80012   0.00000  Uiso   1.00
C1149  C     0.32661   0.70380   0.69802   0.00000  Uiso   1.00
C1150  C     0.31096   0.66066   0.72312   0.00000  Uiso   1.00
C1151  C     0.28546   0.62717   0.68652   0.00000  Uiso   1.00
H1152  H     0.24846   0.63936   0.66981   0.00000  Uiso   1.00
H1153  H     0.31024   0.62166   0.65772   0.00000  Uiso   1.00
H1154  H     0.27829   0.59508   0.70484   0.00000  Uiso   1.00
H1155  H     0.01204   0.64627   0.74282   0.00000  Uiso   1.00
H1156  H     0.28399   0.66692   0.74971   0.00000  Uiso   1.00
H1157  H     0.29501   0.71525   0.67222   0.00000  Uiso   1.00
H1158  H     0.02298   0.69544   0.67477   0.00000  Uiso   1.00
C1159  C     0.00668   0.79405   0.80320   0.00000  Uiso   1.00
C1160  C     0.01259   0.77413   0.85439   0.00000  Uiso   1.00
C1161  C     0.04580   0.80381   0.88994   0.00000  Uiso   1.00
H1162  H     0.08527   0.80599   0.88004   0.00000  Uiso   1.00
H1163  H     0.03048   0.83745   0.89001   0.00000  Uiso   1.00
H1164  H     0.04668   0.78937   0.92678   0.00000  Uiso   1.00
H1165  H     0.30802   0.76903   0.86769   0.00000  Uiso   1.00
H1166  H     0.02986   0.74151   0.85393   0.00000  Uiso   1.00
H1167  H     0.04268   0.81086   0.79436   0.00000  Uiso   1.00
H1168  H     0.31280   0.82122   0.80218   0.00000  Uiso   1.00
N1169  N     0.09489   0.61229   0.68799   0.00000  Uiso   1.00
H1170  H     0.05999   0.59666   0.69145   0.00000  Uiso   1.00
C1171  C     0.10316   0.61807   0.63794   0.00000  Uiso   1.00
H1172  H     0.07203   0.63741   0.61905   0.00000  Uiso   1.00
H1173  H     0.10324   0.58530   0.62035   0.00000  Uiso   1.00
H1174  H     0.14000   0.63640   0.63459   0.00000  Uiso   1.00
N1175  N     0.18329   0.88791   0.83915   0.00000  Uiso   1.00
H1176  H     0.21513   0.89871   0.86142   0.00000  Uiso   1.00
C1177  C     0.13738   0.88976   0.86270   0.00000  Uiso   1.00
H1178  H     0.12982   0.92459   0.87094   0.00000  Uiso   1.00
H1179  H     0.14207   0.87084   0.89711   0.00000  Uiso   1.00
H1180  H     0.10428   0.87512   0.83924   0.00000  Uiso   1.00
C1181  C     0.26500   0.75097   0.54055   0.00000  Uiso   1.00
C1182  C     0.27033   0.70421   0.52158   0.00000  Uiso   1.00
C1183  C     0.32460   0.69684   0.51117   0.00000  Uiso   1.00
H1184  H     0.00320   0.72180   0.98463   0.00000  Uiso   1.00
H1185  H     0.01759   0.69916   0.54505   0.00000  Uiso   1.00
H1186  H     0.32663   0.66329   0.99591   0.00000  Uiso   1.00
H1187  H     0.25991   0.67922   0.54874   0.00000  Uiso   1.00
H1188  H     0.24505   0.69915   0.98754   0.00000  Uiso   1.00
H1189  H     0.27149   0.77588   0.51222   0.00000  Uiso   1.00
H1190  H     0.29631   0.75684   0.56993   0.00000  Uiso   1.00
C1191  C     0.11554   0.67729   0.97276   0.00000  Uiso   1.00
C1192  C     0.15385   0.64754   0.50157   0.00000  Uiso   1.00
C1193  C     0.12815   0.60388   0.51593   0.00000  Uiso   1.00
H1194  H     0.09420   0.61027   0.53451   0.00000  Uiso   1.00
H1195  H     0.11591   0.58353   0.98350   0.00000  Uiso   1.00
H1196  H     0.15540   0.58499   0.54056   0.00000  Uiso   1.00
H1197  H     0.18512   0.63999   0.97989   0.00000  Uiso   1.00
H1198  H     0.17038   0.66458   0.53500   0.00000  Uiso   1.00
H1199  H     0.08975   0.68958   0.99707   0.00000  Uiso   1.00
H1200  H     0.08845   0.65618   0.94949   0.00000  Uiso   1.00
C1201  C     0.24807   0.79822   0.63332   0.00000  Uiso   1.00
C1202  C     0.25052   0.84182   0.60438   0.00000  Uiso   1.00
C1203  C     0.28461   0.87704   0.63237   0.00000  Uiso   1.00
H1204  H     0.26939   0.88458   0.66674   0.00000  Uiso   1.00
H1205  H     0.32399   0.86540   0.64034   0.00000  Uiso   1.00
H1206  H     0.28590   0.90794   0.61052   0.00000  Uiso   1.00
H1207  H     0.26593   0.83659   0.56963   0.00000  Uiso   1.00
H1208  H     0.21151   0.85442   0.59651   0.00000  Uiso   1.00
H1209  H     0.23641   0.80809   0.66777   0.00000  Uiso   1.00
H1210  H     0.28667   0.78500   0.64053   0.00000  Uiso   1.00
C1211  C     0.10712   0.68048   0.86639   0.00000  Uiso   1.00
C1212  C     0.13017   0.63421   0.86913   0.00000  Uiso   1.00
C1213  C     0.09475   0.60036   0.84039   0.00000  Uiso   1.00
H1214  H     0.05895   0.59497   0.85746   0.00000  Uiso   1.00
H1215  H     0.08503   0.61202   0.80279   0.00000  Uiso   1.00
H1216  H     0.11370   0.56832   0.83968   0.00000  Uiso   1.00
H1217  H     0.16816   0.63547   0.85605   0.00000  Uiso   1.00
H1218  H     0.13693   0.62147   0.90630   0.00000  Uiso   1.00
H1219  H     0.06886   0.67837   0.87920   0.00000  Uiso   1.00
H1220  H     0.09659   0.68951   0.82892   0.00000  Uiso   1.00
C1221  C     0.50029   0.66518   0.75005   0.00000  Uiso   1.00
C1222  C     0.50118   0.83525   0.74998   0.00000  Uiso   1.00
C1223  C     0.54656   0.75591   0.55877   0.00000  Uiso   1.00
C1224  C     0.47460   0.71568   0.94607   0.00000  Uiso   1.00
C1225  C     0.54345   0.76390   0.60857   0.00000  Uiso   1.00
C1226  C     0.47391   0.71623   0.89431   0.00000  Uiso   1.00
C1227  C     0.45548   0.74577   0.59946   0.00000  Uiso   1.00
C1228  C     0.52515   0.78321   0.89738   0.00000  Uiso   1.00
C1229  C     0.45484   0.75240   0.54935   0.00000  Uiso   1.00
C1230  C     0.52378   0.78528   0.94761   0.00000  Uiso   1.00
C1231  C     0.50051   0.75354   0.52747   0.00000  Uiso   1.00
C1232  C     0.49927   0.75154   0.97296   0.00000  Uiso   1.00
C1233  C     0.40162   0.74862   0.73834   0.00000  Uiso   1.00
C1234  C     0.59833   0.75108   0.76166   0.00000  Uiso   1.00
C1235  C     0.34726   0.73990   0.73416   0.00000  Uiso   1.00
C1236  C     0.65270   0.75897   0.76608   0.00000  Uiso   1.00
C1237  C     0.54513   0.55111   0.77729   0.00000  Uiso   1.00
C1238  C     0.50487   0.95285   0.70378   0.00000  Uiso   1.00
C1239  C     0.54080   0.59669   0.77927   0.00000  Uiso   1.00
C1240  C     0.50144   0.90681   0.70540   0.00000  Uiso   1.00
C1241  C     0.50264   0.61725   0.74931   0.00000  Uiso   1.00
C1242  C     0.50482   0.88412   0.74984   0.00000  Uiso   1.00
C1243  C     0.46869   0.59203   0.71685   0.00000  Uiso   1.00
C1244  C     0.51300   0.90879   0.79311   0.00000  Uiso   1.00
C1245  C     0.47270   0.54619   0.71570   0.00000  Uiso   1.00
C1246  C     0.51723   0.95491   0.79089   0.00000  Uiso   1.00
C1247  C     0.51093   0.52558   0.74566   0.00000  Uiso   1.00
C1248  C     0.51225   0.97711   0.74658   0.00000  Uiso   1.00
Cu1249 Cu    0.50000   0.75000   0.79822   0.00000  Uiso   1.00
Cu1250 Cu    0.50000   0.75001   0.70179   0.00000  Uiso   1.00
H1251  H     0.57510   0.53576   0.80053   0.00000  Uiso   1.00
H1252  H     0.50145   0.96955   0.66910   0.00000  Uiso   1.00
H1253  H     0.56770   0.61601   0.80363   0.00000  Uiso   1.00
H1254  H     0.49563   0.88901   0.67165   0.00000  Uiso   1.00
H1255  H     0.44512   0.52663   0.69224   0.00000  Uiso   1.00
H1256  H     0.52221   0.97346   0.82418   0.00000  Uiso   1.00
H1257  H     0.41960   0.74025   0.61409   0.00000  Uiso   1.00
H1258  H     0.54584   0.80906   0.87966   0.00000  Uiso   1.00
H1259  H     0.41856   0.75466   0.52754   0.00000  Uiso   1.00
H1260  H     0.54224   0.81355   0.96682   0.00000  Uiso   1.00
N1261  N     0.50000   0.75001   0.62935   0.00000  Uiso   1.00
N1262  N     0.50000   0.74999   0.87066   0.00000  Uiso   1.00
O1263  O     0.50000   0.68573   0.79072   0.00000  Uiso   1.00
O1264  O     0.50000   0.81428   0.70929   0.00000  Uiso   1.00
O1265  O     0.50000   0.68573   0.70928   0.00000  Uiso   1.00
O1266  O     0.50000   0.81427   0.79072   0.00000  Uiso   1.00
O1267  O     0.42495   0.74999   0.78132   0.00000  Uiso   1.00
O1268  O     0.57505   0.75001   0.71868   0.00000  Uiso   1.00
O1269  O     0.42495   0.75000   0.69989   0.00000  Uiso   1.00
O1270  O     0.57505   0.75000   0.80012   0.00000  Uiso   1.00
C1271  C     0.65994   0.70380   0.69802   0.00000  Uiso   1.00
C1272  C     0.64429   0.66066   0.72312   0.00000  Uiso   1.00
C1273  C     0.61880   0.62717   0.68652   0.00000  Uiso   1.00
H1274  H     0.58179   0.63936   0.66981   0.00000  Uiso   1.00
H1275  H     0.64357   0.62166   0.65772   0.00000  Uiso   1.00
H1276  H     0.61162   0.59508   0.70484   0.00000  Uiso   1.00
H1277  H     0.34537   0.64627   0.74282   0.00000  Uiso   1.00
H1278  H     0.61732   0.66692   0.74971   0.00000  Uiso   1.00
H1279  H     0.62835   0.71525   0.67222   0.00000  Uiso   1.00
H1280  H     0.35631   0.69544   0.67477   0.00000  Uiso   1.00
C1281  C     0.34002   0.79405   0.80320   0.00000  Uiso   1.00
C1282  C     0.34593   0.77413   0.85439   0.00000  Uiso   1.00
C1283  C     0.37913   0.80381   0.88994   0.00000  Uiso   1.00
H1284  H     0.41860   0.80599   0.88004   0.00000  Uiso   1.00
H1285  H     0.36382   0.83745   0.89001   0.00000  Uiso   1.00
H1286  H     0.38001   0.78937   0.92678   0.00000  Uiso   1.00
H1287  H     0.64136   0.76903   0.86769   0.00000  Uiso   1.00
H1288  H     0.36320   0.74151   0.85393   0.00000  Uiso   1.00
H1289  H     0.37601   0.81086   0.79436   0.00000  Uiso   1.00
H1290  H     0.64614   0.82122   0.80218   0.00000  Uiso   1.00
N1291  N     0.42822   0.61229   0.68799   0.00000  Uiso   1.00
H1292  H     0.39333   0.59666   0.69145   0.00000  Uiso   1.00
C1293  C     0.43649   0.61807   0.63794   0.00000  Uiso   1.00
H1294  H     0.40536   0.63741   0.61905   0.00000  Uiso   1.00
H1295  H     0.43657   0.58530   0.62035   0.00000  Uiso   1.00
H1296  H     0.47333   0.63640   0.63459   0.00000  Uiso   1.00
N1297  N     0.51662   0.88791   0.83915   0.00000  Uiso   1.00
H1298  H     0.54847   0.89871   0.86142   0.00000  Uiso   1.00
C1299  C     0.47071   0.88976   0.86270   0.00000  Uiso   1.00
H1300  H     0.46316   0.92459   0.87094   0.00000  Uiso   1.00
H1301  H     0.47540   0.87084   0.89711   0.00000  Uiso   1.00
H1302  H     0.43762   0.87512   0.83924   0.00000  Uiso   1.00
C1303  C     0.59834   0.75097   0.54055   0.00000  Uiso   1.00
C1304  C     0.60367   0.70421   0.52158   0.00000  Uiso   1.00
C1305  C     0.65793   0.69684   0.51117   0.00000  Uiso   1.00
H1306  H     0.33654   0.72180   0.98463   0.00000  Uiso   1.00
H1307  H     0.35092   0.69916   0.54505   0.00000  Uiso   1.00
H1308  H     0.65996   0.66329   0.99591   0.00000  Uiso   1.00
H1309  H     0.59325   0.67922   0.54874   0.00000  Uiso   1.00
H1310  H     0.57839   0.69915   0.98754   0.00000  Uiso   1.00
H1311  H     0.60482   0.77588   0.51222   0.00000  Uiso   1.00
H1312  H     0.62964   0.75684   0.56993   0.00000  Uiso   1.00
C1313  C     0.44888   0.67729   0.97276   0.00000  Uiso   1.00
C1314  C     0.48718   0.64754   0.50157   0.00000  Uiso   1.00
C1315  C     0.46148   0.60388   0.51593   0.00000  Uiso   1.00
H1316  H     0.42754   0.61027   0.53451   0.00000  Uiso   1.00
H1317  H     0.44924   0.58353   0.98350   0.00000  Uiso   1.00
H1318  H     0.48873   0.58499   0.54056   0.00000  Uiso   1.00
H1319  H     0.51845   0.63999   0.97989   0.00000  Uiso   1.00
H1320  H     0.50371   0.66458   0.53500   0.00000  Uiso   1.00
H1321  H     0.42308   0.68958   0.99707   0.00000  Uiso   1.00
H1322  H     0.42178   0.65618   0.94949   0.00000  Uiso   1.00
C1323  C     0.58141   0.79822   0.63332   0.00000  Uiso   1.00
C1324  C     0.58385   0.84182   0.60438   0.00000  Uiso   1.00
C1325  C     0.61794   0.87704   0.63237   0.00000  Uiso   1.00
H1326  H     0.60272   0.88458   0.66674   0.00000  Uiso   1.00
H1327  H     0.65733   0.86540   0.64034   0.00000  Uiso   1.00
H1328  H     0.61923   0.90794   0.61052   0.00000  Uiso   1.00
H1329  H     0.59927   0.83659   0.56963   0.00000  Uiso   1.00
H1330  H     0.54484   0.85442   0.59651   0.00000  Uiso   1.00
H1331  H     0.56974   0.80809   0.66777   0.00000  Uiso   1.00
H1332  H     0.62000   0.78500   0.64053   0.00000  Uiso   1.00
C1333  C     0.44045   0.68048   0.86639   0.00000  Uiso   1.00
C1334  C     0.46350   0.63421   0.86913   0.00000  Uiso   1.00
C1335  C     0.42809   0.60036   0.84039   0.00000  Uiso   1.00
H1336  H     0.39228   0.59497   0.85746   0.00000  Uiso   1.00
H1337  H     0.41836   0.61202   0.80279   0.00000  Uiso   1.00
H1338  H     0.44703   0.56832   0.83968   0.00000  Uiso   1.00
H1339  H     0.50149   0.63547   0.85605   0.00000  Uiso   1.00
H1340  H     0.47027   0.62147   0.90630   0.00000  Uiso   1.00
H1341  H     0.40220   0.67837   0.87920   0.00000  Uiso   1.00
H1342  H     0.42993   0.68951   0.82892   0.00000  Uiso   1.00
C1343  C     0.83362   0.66518   0.75005   0.00000  Uiso   1.00
C1344  C     0.83451   0.83525   0.74998   0.00000  Uiso   1.00
C1345  C     0.87989   0.75591   0.55877   0.00000  Uiso   1.00
C1346  C     0.80793   0.71568   0.94607   0.00000  Uiso   1.00
C1347  C     0.87678   0.76390   0.60857   0.00000  Uiso   1.00
C1348  C     0.80725   0.71623   0.89431   0.00000  Uiso   1.00
C1349  C     0.78882   0.74577   0.59946   0.00000  Uiso   1.00
C1350  C     0.85849   0.78321   0.89738   0.00000  Uiso   1.00
C1351  C     0.78818   0.75240   0.54935   0.00000  Uiso   1.00
C1352  C     0.85712   0.78528   0.94761   0.00000  Uiso   1.00
C1353  C     0.83384   0.75354   0.52747   0.00000  Uiso   1.00
C1354  C     0.83260   0.75154   0.97296   0.00000  Uiso   1.00
C1355  C     0.73495   0.74862   0.73834   0.00000  Uiso   1.00
C1356  C     0.93166   0.75108   0.76166   0.00000  Uiso   1.00
C1357  C     0.68060   0.73990   0.73416   0.00000  Uiso   1.00
C1358  C     0.98603   0.75897   0.76608   0.00000  Uiso   1.00
C1359  C     0.87847   0.55111   0.77729   0.00000  Uiso   1.00
C1360  C     0.83820   0.95285   0.70378   0.00000  Uiso   1.00
C1361  C     0.87413   0.59669   0.77927   0.00000  Uiso   1.00
C1362  C     0.83477   0.90681   0.70540   0.00000  Uiso   1.00
C1363  C     0.83597   0.61725   0.74931   0.00000  Uiso   1.00
C1364  C     0.83816   0.88412   0.74984   0.00000  Uiso   1.00
C1365  C     0.80202   0.59203   0.71685   0.00000  Uiso   1.00
C1366  C     0.84633   0.90879   0.79311   0.00000  Uiso   1.00
C1367  C     0.80603   0.54619   0.71570   0.00000  Uiso   1.00
C1368  C     0.85056   0.95491   0.79089   0.00000  Uiso   1.00
C1369  C     0.84427   0.52558   0.74566   0.00000  Uiso   1.00
C1370  C     0.84558   0.97711   0.74658   0.00000  Uiso   1.00
Cu1371 Cu    0.83333   0.75000   0.79822   0.00000  Uiso   1.00
Cu1372 Cu    0.83333   0.75001   0.70179   0.00000  Uiso   1.00
H1373  H     0.90844   0.53576   0.80053   0.00000  Uiso   1.00
H1374  H     0.83478   0.96955   0.66910   0.00000  Uiso   1.00
H1375  H     0.90103   0.61601   0.80363   0.00000  Uiso   1.00
H1376  H     0.82896   0.88901   0.67165   0.00000  Uiso   1.00
H1377  H     0.77845   0.52663   0.69224   0.00000  Uiso   1.00
H1378  H     0.85555   0.97346   0.82418   0.00000  Uiso   1.00
H1379  H     0.75294   0.74025   0.61409   0.00000  Uiso   1.00
H1380  H     0.87917   0.80906   0.87966   0.00000  Uiso   1.00
H1381  H     0.75189   0.75466   0.52754   0.00000  Uiso   1.00
H1382  H     0.87557   0.81355   0.96682   0.00000  Uiso   1.00
N1383  N     0.83333   0.75001   0.62935   0.00000  Uiso   1.00
N1384  N     0.83333   0.74999   0.87066   0.00000  Uiso   1.00
O1385  O     0.83334   0.68573   0.79072   0.00000  Uiso   1.00
O1386  O     0.83333   0.81428   0.70929   0.00000  Uiso   1.00
O1387  O     0.83334   0.68573   0.70928   0.00000  Uiso   1.00
O1388  O     0.83333   0.81427   0.79072   0.00000  Uiso   1.00
O1389  O     0.75828   0.74999   0.78132   0.00000  Uiso   1.00
O1390  O     0.90839   0.75001   0.71868   0.00000  Uiso   1.00
O1391  O     0.75828   0.75000   0.69989   0.00000  Uiso   1.00
O1392  O     0.90839   0.75000   0.80012   0.00000  Uiso   1.00
C1393  C     0.99327   0.70380   0.69802   0.00000  Uiso   1.00
C1394  C     0.97763   0.66066   0.72312   0.00000  Uiso   1.00
C1395  C     0.95213   0.62717   0.68652   0.00000  Uiso   1.00
H1396  H     0.91512   0.63936   0.66981   0.00000  Uiso   1.00
H1397  H     0.97690   0.62166   0.65772   0.00000  Uiso   1.00
H1398  H     0.94496   0.59508   0.70484   0.00000  Uiso   1.00
H1399  H     0.67871   0.64627   0.74282   0.00000  Uiso   1.00
H1400  H     0.95066   0.66692   0.74971   0.00000  Uiso   1.00
H1401  H     0.96168   0.71525   0.67222   0.00000  Uiso   1.00
H1402  H     0.68965   0.69544   0.67477   0.00000  Uiso   1.00
C1403  C     0.67335   0.79405   0.80320   0.00000  Uiso   1.00
C1404  C     0.67926   0.77413   0.85439   0.00000  Uiso   1.00
C1405  C     0.71247   0.80381   0.88994   0.00000  Uiso   1.00
H1406  H     0.75194   0.80599   0.88004   0.00000  Uiso   1.00
H1407  H     0.69715   0.83745   0.89001   0.00000  Uiso   1.00
H1408  H     0.71335   0.78937   0.92678   0.00000  Uiso   1.00
H1409  H     0.97469   0.76903   0.86769   0.00000  Uiso   1.00
H1410  H     0.69653   0.74151   0.85393   0.00000  Uiso   1.00
H1411  H     0.70935   0.81086   0.79436   0.00000  Uiso   1.00
H1412  H     0.97947   0.82122   0.80218   0.00000  Uiso   1.00
N1413  N     0.76156   0.61229   0.68799   0.00000  Uiso   1.00
H1414  H     0.72666   0.59666   0.69145   0.00000  Uiso   1.00
C1415  C     0.76982   0.61807   0.63794   0.00000  Uiso   1.00
H1416  H     0.73869   0.63741   0.61905   0.00000  Uiso   1.00
H1417  H     0.76990   0.58530   0.62035   0.00000  Uiso   1.00
H1418  H     0.80666   0.63640   0.63459   0.00000  Uiso   1.00
N1419  N     0.84995   0.88791   0.83915   0.00000  Uiso   1.00
H1420  H     0.88180   0.89871   0.86142   0.00000  Uiso   1.00
C1421  C     0.80405   0.88976   0.86270   0.00000  Uiso   1.00
H1422  H     0.79649   0.92459   0.87094   0.00000  Uiso   1.00
H1423  H     0.80874   0.87084   0.89711   0.00000  Uiso   1.00
H1424  H     0.77095   0.87512   0.83924   0.00000  Uiso   1.00
C1425  C     0.93167   0.75097   0.54055   0.00000  Uiso   1.00
C1426  C     0.93700   0.70421   0.52158   0.00000  Uiso   1.00
C1427  C     0.99127   0.69684   0.51117   0.00000  Uiso   1.00
H1428  H     0.66987   0.72180   0.98463   0.00000  Uiso   1.00
H1429  H     0.68425   0.69916   0.54505   0.00000  Uiso   1.00
H1430  H     0.99329   0.66329   0.99591   0.00000  Uiso   1.00
H1431  H     0.92658   0.67922   0.54874   0.00000  Uiso   1.00
H1432  H     0.91172   0.69915   0.98754   0.00000  Uiso   1.00
H1433  H     0.93816   0.77588   0.51222   0.00000  Uiso   1.00
H1434  H     0.96298   0.75684   0.56993   0.00000  Uiso   1.00
C1435  C     0.78221   0.67729   0.97276   0.00000  Uiso   1.00
C1436  C     0.82051   0.64754   0.50157   0.00000  Uiso   1.00
C1437  C     0.79481   0.60388   0.51593   0.00000  Uiso   1.00
H1438  H     0.76087   0.61027   0.53451   0.00000  Uiso   1.00
H1439  H     0.78257   0.58353   0.98350   0.00000  Uiso   1.00
H1440  H     0.82206   0.58499   0.54056   0.00000  Uiso   1.00
H1441  H     0.85178   0.63999   0.97989   0.00000  Uiso   1.00
H1442  H     0.83705   0.66458   0.53500   0.00000  Uiso   1.00
H1443  H     0.75641   0.68958   0.99707   0.00000  Uiso   1.00
H1444  H     0.75512   0.65618   0.94949   0.00000  Uiso   1.00
C1445  C     0.91474   0.79822   0.63332   0.00000  Uiso   1.00
C1446  C     0.91719   0.84182   0.60438   0.00000  Uiso   1.00
C1447  C     0.95127   0.87704   0.63237   0.00000  Uiso   1.00
H1448  H     0.93605   0.88458   0.66674   0.00000  Uiso   1.00
H1449  H     0.99066   0.86540   0.64034   0.00000  Uiso   1.00
H1450  H     0.95257   0.90794   0.61052   0.00000  Uiso   1.00
H1451  H     0.93260   0.83659   0.56963   0.00000  Uiso   1.00
H1452  H     0.87817   0.85442   0.59651   0.00000  Uiso   1.00
H1453  H     0.90308   0.80809   0.66777   0.00000  Uiso   1.00
H1454  H     0.95333   0.78500   0.64053   0.00000  Uiso   1.00
C1455  C     0.77378   0.68048   0.86639   0.00000  Uiso   1.00
C1456  C     0.79684   0.63421   0.86913   0.00000  Uiso   1.00
C1457  C     0.76142   0.60036   0.84039   0.00000  Uiso   1.00
H1458  H     0.72561   0.59497   0.85746   0.00000  Uiso   1.00
H1459  H     0.75169   0.61202   0.80279   0.00000  Uiso   1.00
H1460  H     0.78036   0.56832   0.83968   0.00000  Uiso   1.00
H1461  H     0.83482   0.63547   0.85605   0.00000  Uiso   1.00
H1462  H     0.80360   0.62147   0.90630   0.00000  Uiso   1.00
H1463  H     0.73553   0.67837   0.87920   0.00000  Uiso   1.00
H1464  H     0.76326   0.68951   0.82892   0.00000  Uiso   1.00
loop_
_geom_bond_atom_site_label_1
_geom_bond_atom_site_label_2
_geom_bond_distance
_geom_bond_site_symmetry_2
_ccdc_geom_bond_type
C1     C21     1.453   .     S
C1     O43     1.302   .     A
C1     O45     1.289   .     A
C2     O46     1.298   .     A
C2     O44     1.305   .     A
C2     C22     1.476   .     S
C3     C83     1.526   .     S
C3     C5      1.426   .     A
C3     C11     1.416   .     A
C4     C12     1.418   .     A
C4     C6      1.443   .     A
C4     C93     1.545   .     S
C5     C103    1.526   .     S
C5     N41     1.389   .     A
C6     N42     1.405   .     A
C6     C113    1.529   .     S
C7     H37     1.079   .     S
C7     C9      1.409   .     A
C7     N41     1.366   .     A
C8     H38     1.080   .     S
C8     N42     1.362   .     A
C8     C10     1.409   .     A
C9     H39     1.081   .     S
C9     C11     1.411   .     A
C10    C12     1.409   .     A
C10    H40     1.082   .     S
C11    C744    1.521   1_554 S
C12    C743    1.521   .     S
C13    O49     1.296   .     A
C13    C15     1.440   .     S
C13    O47     1.287   .     A
C14    O48     1.286   .     A
C14    C16     1.437   .     S
C14    O50     1.295   .     A
C15    C260    1.366   1_455 S
C15    C295    1.536   1_455 S
C16    C137    1.366   .     S
C16    C183    1.532   .     S
C17    C27     1.403   .     A
C17    H31     1.083   .     S
C17    C19     1.389   .     A
C18    C20     1.391   .     A
C18    C28     1.400   .     A
C18    H32     1.083   .     S
C19    C21     1.398   .     A
C19    H33     1.083   .     S
C20    H34     1.083   .     S
C20    C22     1.406   .     A
C21    C23     1.408   .     A
C22    C24     1.418   .     A
C23    N71     1.421   .     S
C23    C25     1.395   .     A
C24    C26     1.394   .     A
C24    N77     1.420   .     S
C25    H35     1.084   .     S
C25    C27     1.400   .     A
C26    H36     1.084   .     S
C26    C28     1.396   .     A
C27    C394    1.466   1_545 S
C28    C393    1.466   .     S
Cu29   N42     2.023   .     S
Cu29   O47     1.986   .     S
Cu29   O43     1.956   .     S
Cu29   O50     1.977   .     S
Cu29   Cu30    2.692   .     S
Cu29   O46     1.951   .     S
Cu30   O45     1.951   .     S
Cu30   O48     1.986   .     S
Cu30   N41     2.023   .     S
Cu30   O44     1.956   .     S
Cu30   O49     1.977   .     S
C51    C52     1.535   .     S
C51    H59     1.104   .     S
C51    C137    1.536   .     S
C51    H182    1.112   .     S
C52    H58     1.108   .     S
C52    C53     1.528   .     S
C52    H179    1.111   .     S
C53    H55     1.110   .     S
C53    H56     1.110   .     S
C53    H54     1.111   .     S
H57    C296    1.111   1_455 S
H60    C295    1.112   1_455 S
C61    C62     1.538   .     S
C61    H69     1.109   .     S
C61    C260    1.532   1_455 S
C61    H314    1.113   1_455 S
C62    C63     1.522   .     S
C62    H68     1.105   .     S
C62    H311    1.110   1_455 S
C63    H65     1.111   .     S
C63    H66     1.111   .     S
C63    H64     1.107   .     S
H67    C184    1.110   .     S
H70    C183    1.113   .     S
N71    H72     1.031   .     S
N71    C73     1.446   .     S
C73    H74     1.111   .     S
C73    H75     1.111   .     S
C73    H76     1.111   .     S
N77    C79     1.446   .     S
N77    H78     1.032   .     S
C79    H81     1.110   .     S
C79    H80     1.111   .     S
C79    H82     1.111   .     S
C83    H92     1.108   .     S
C83    C84     1.533   .     S
C83    H91     1.107   .     S
C84    C85     1.520   .     S
C84    H89     1.112   .     S
C84    H822    1.107   1_554 S
C85    H940    1.111   1_554 S
C85    H209    1.111   .     S
C85    H820    1.111   1_554 S
H86    C1061   1.111   1_455 S
H87    C329    1.111   1_455 S
H88    C817    1.111   .     S
H90    C816    1.107   .     S
C93    H101    1.093   .     S
C93    H102    1.099   .     S
C93    C826    1.536   .     S
C94    H100    1.108   .     S
C94    C95     1.527   .     S
C94    C825    1.536   1_554 S
C94    H831    1.110   1_554 S
C95    H96     1.110   .     S
C95    H98     1.110   .     S
C95    H829    1.111   1_554 S
H97    C827    1.111   .     S
H99    C826    1.110   .     S
C103   H111    1.091   .     S
C103   H112    1.108   .     S
C103   C104    1.540   .     S
C104   H109    1.109   .     S
C104   C105    1.528   .     S
C104   H110    1.112   .     S
C105   H107    1.111   .     S
C105   H108    1.110   .     S
C105   H106    1.111   .     S
C113   H122    1.087   .     S
C113   H121    1.108   .     S
C113   C114    1.547   .     S
C114   C115    1.528   .     S
C114   H119    1.104   .     S
C114   H120    1.101   .     S
C115   H116    1.111   .     S
C115   H117    1.109   .     S
C115   H118    1.111   .     S
C123   C143    1.453   .     S
C123   O165    1.302   .     A
C123   O167    1.289   .     A
C124   O168    1.298   .     A
C124   O166    1.305   .     A
C124   C144    1.476   .     S
C125   C205    1.526   .     S
C125   C127    1.426   .     A
C125   C133    1.416   .     A
C126   C134    1.418   .     A
C126   C128    1.443   .     A
C126   C215    1.545   .     S
C127   C225    1.526   .     S
C127   N163    1.389   .     A
C128   N164    1.405   .     A
C128   C235    1.529   .     S
C129   H159    1.079   .     S
C129   C131    1.409   .     A
C129   N163    1.366   .     A
C130   H160    1.080   .     S
C130   N164    1.362   .     A
C130   C132    1.409   .     A
C131   H161    1.081   .     S
C131   C133    1.411   .     A
C132   C134    1.409   .     A
C132   H162    1.082   .     S
C133   C866    1.521   1_554 S
C134   C865    1.521   .     S
C135   O171    1.296   .     A
C135   C137    1.440   .     S
C135   O169    1.287   .     A
C136   O170    1.286   .     A
C136   C138    1.437   .     S
C136   O172    1.295   .     A
C138   C259    1.366   .     S
C138   C305    1.532   .     S
C139   C149    1.403   .     A
C139   H153    1.083   .     S
C139   C141    1.389   .     A
C140   C142    1.391   .     A
C140   C150    1.400   .     A
C140   H154    1.083   .     S
C141   C143    1.398   .     A
C141   H155    1.083   .     S
C142   H156    1.083   .     S
C142   C144    1.406   .     A
C143   C145    1.408   .     A
C144   C146    1.418   .     A
C145   N193    1.421   .     S
C145   C147    1.395   .     A
C146   C148    1.394   .     A
C146   N199    1.420   .     S
C147   H157    1.084   .     S
C147   C149    1.400   .     A
C148   H158    1.084   .     S
C148   C150    1.396   .     A
C149   C516    1.466   1_545 S
C150   C515    1.466   .     S
Cu151  N164    2.023   .     S
Cu151  O169    1.986   .     S
Cu151  O165    1.956   .     S
Cu151  O172    1.977   .     S
Cu151  Cu152   2.692   .     S
Cu151  O168    1.951   .     S
Cu152  O167    1.951   .     S
Cu152  O170    1.986   .     S
Cu152  N163    2.023   .     S
Cu152  O166    1.956   .     S
Cu152  O171    1.977   .     S
C173   C174    1.535   .     S
C173   H181    1.104   .     S
C173   C259    1.536   .     S
C173   H304    1.112   .     S
C174   H180    1.108   .     S
C174   C175    1.528   .     S
C174   H301    1.111   .     S
C175   H177    1.110   .     S
C175   H178    1.110   .     S
C175   H176    1.111   .     S
C183   C184    1.538   .     S
C183   H191    1.109   .     S
C184   C185    1.522   .     S
C184   H190    1.105   .     S
C185   H187    1.111   .     S
C185   H188    1.111   .     S
C185   H186    1.107   .     S
H189   C306    1.110   .     S
H192   C305    1.113   .     S
N193   H194    1.031   .     S
N193   C195    1.446   .     S
C195   H196    1.111   .     S
C195   H197    1.111   .     S
C195   H198    1.111   .     S
N199   C201    1.446   .     S
N199   H200    1.032   .     S
C201   H203    1.110   .     S
C201   H202    1.111   .     S
C201   H204    1.111   .     S
C205   H214    1.108   .     S
C205   C206    1.533   .     S
C205   H213    1.107   .     S
C206   C207    1.520   .     S
C206   H211    1.112   .     S
C206   H944    1.107   1_554 S
C207   H1062   1.111   1_554 S
C207   H331    1.111   .     S
C207   H942    1.111   1_554 S
H208   C817    1.111   .     S
H210   C939    1.111   .     S
H212   C938    1.107   .     S
C215   H223    1.093   .     S
C215   H224    1.099   .     S
C215   C948    1.536   .     S
C216   H222    1.108   .     S
C216   C217    1.527   .     S
C216   C947    1.536   1_554 S
C216   H953    1.110   1_554 S
C217   H218    1.110   .     S
C217   H220    1.110   .     S
C217   H951    1.111   1_554 S
H219   C949    1.111   .     S
H221   C948    1.110   .     S
C225   H233    1.091   .     S
C225   H234    1.108   .     S
C225   C226    1.540   .     S
C226   H231    1.109   .     S
C226   C227    1.528   .     S
C226   H232    1.112   .     S
C227   H229    1.111   .     S
C227   H230    1.110   .     S
C227   H228    1.111   .     S
C235   H244    1.087   .     S
C235   H243    1.108   .     S
C235   C236    1.547   .     S
C236   C237    1.528   .     S
C236   H241    1.104   .     S
C236   H242    1.101   .     S
C237   H238    1.111   .     S
C237   H239    1.109   .     S
C237   H240    1.111   .     S
C245   C265    1.453   .     S
C245   O287    1.302   .     A
C245   O289    1.289   .     A
C246   O290    1.298   .     A
C246   O288    1.305   .     A
C246   C266    1.476   .     S
C247   C327    1.526   .     S
C247   C249    1.426   .     A
C247   C255    1.416   .     A
C248   C256    1.418   .     A
C248   C250    1.443   .     A
C248   C337    1.545   .     S
C249   C347    1.526   .     S
C249   N285    1.389   .     A
C250   N286    1.405   .     A
C250   C357    1.529   .     S
C251   H281    1.079   .     S
C251   C253    1.409   .     A
C251   N285    1.366   .     A
C252   H282    1.080   .     S
C252   N286    1.362   .     A
C252   C254    1.409   .     A
C253   H283    1.081   .     S
C253   C255    1.411   .     A
C254   C256    1.409   .     A
C254   H284    1.082   .     S
C255   C988    1.521   1_554 S
C256   C987    1.521   .     S
C257   O293    1.296   .     A
C257   C259    1.440   .     S
C257   O291    1.287   .     A
C258   O292    1.286   .     A
C258   C260    1.437   .     S
C258   O294    1.295   .     A
C260   C15     1.366   1_655 S
C260   C61     1.532   1_655 S
C261   C271    1.403   .     A
C261   H275    1.083   .     S
C261   C263    1.389   .     A
C262   C264    1.391   .     A
C262   C272    1.400   .     A
C262   H276    1.083   .     S
C263   C265    1.398   .     A
C263   H277    1.083   .     S
C264   H278    1.083   .     S
C264   C266    1.406   .     A
C265   C267    1.408   .     A
C266   C268    1.418   .     A
C267   N315    1.421   .     S
C267   C269    1.395   .     A
C268   C270    1.394   .     A
C268   N321    1.420   .     S
C269   H279    1.084   .     S
C269   C271    1.400   .     A
C270   H280    1.084   .     S
C270   C272    1.396   .     A
C271   C638    1.466   1_545 S
C272   C637    1.466   .     S
Cu273  N286    2.023   .     S
Cu273  O291    1.986   .     S
Cu273  O287    1.956   .     S
Cu273  O294    1.977   .     S
Cu273  Cu274   2.692   .     S
Cu273  O290    1.951   .     S
Cu274  O289    1.951   .     S
Cu274  O292    1.986   .     S
Cu274  N285    2.023   .     S
Cu274  O288    1.956   .     S
Cu274  O293    1.977   .     S
C295   C296    1.535   .     S
C295   H303    1.104   .     S
C295   C15     1.536   1_655 S
C295   H60     1.112   1_655 S
C296   H302    1.108   .     S
C296   C297    1.528   .     S
C296   H57     1.111   1_655 S
C297   H299    1.110   .     S
C297   H300    1.110   .     S
C297   H298    1.111   .     S
C305   C306    1.538   .     S
C305   H313    1.109   .     S
C306   C307    1.522   .     S
C306   H312    1.105   .     S
C307   H309    1.111   .     S
C307   H310    1.111   .     S
C307   H308    1.107   .     S
H311   C62     1.110   1_655 S
H314   C61     1.113   1_655 S
N315   H316    1.031   .     S
N315   C317    1.446   .     S
C317   H318    1.111   .     S
C317   H319    1.111   .     S
C317   H320    1.111   .     S
N321   C323    1.446   .     S
N321   H322    1.032   .     S
C323   H325    1.110   .     S
C323   H324    1.111   .     S
C323   H326    1.111   .     S
C327   H336    1.108   .     S
C327   C328    1.533   .     S
C327   H335    1.107   .     S
C328   C329    1.520   .     S
C328   H333    1.112   .     S
C328   H1066   1.107   1_554 S
C329   H818    1.111   1_654 S
C329   H87     1.111   1_655 S
C329   H1064   1.111   1_554 S
H330   C939    1.111   .     S
H332   C1061   1.111   .     S
H334   C1060   1.107   .     S
C337   H345    1.093   .     S
C337   H346    1.099   .     S
C337   C1070   1.536   .     S
C338   H344    1.108   .     S
C338   C339    1.527   .     S
C338   C1069   1.536   1_554 S
C338   H1075   1.110   1_554 S
C339   H340    1.110   .     S
C339   H342    1.110   .     S
C339   H1073   1.111   1_554 S
H341   C1071   1.111   .     S
H343   C1070   1.110   .     S
C347   H355    1.091   .     S
C347   H356    1.108   .     S
C347   C348    1.540   .     S
C348   H353    1.109   .     S
C348   C349    1.528   .     S
C348   H354    1.112   .     S
C349   H351    1.111   .     S
C349   H352    1.110   .     S
C349   H350    1.111   .     S
C357   H366    1.087   .     S
C357   H365    1.108   .     S
C357   C358    1.547   .     S
C358   C359    1.528   .     S
C358   H363    1.104   .     S
C358   H364    1.101   .     S
C359   H360    1.111   .     S
C359   H361    1.109   .     S
C359   H362    1.111   .     S
C367   C387    1.453   .     S
C367   O409    1.302   .     A
C367   O411    1.289   .     A
C368   O412    1.298   .     A
C368   O410    1.305   .     A
C368   C388    1.476   .     S
C369   C449    1.526   .     S
C369   C371    1.426   .     A
C369   C377    1.416   .     A
C370   C378    1.418   .     A
C370   C372    1.443   .     A
C370   C459    1.545   .     S
C371   C469    1.526   .     S
C371   N407    1.389   .     A
C372   N408    1.405   .     A
C372   C479    1.529   .     S
C373   H403    1.079   .     S
C373   C375    1.409   .     A
C373   N407    1.366   .     A
C374   H404    1.080   .     S
C374   N408    1.362   .     A
C374   C376    1.409   .     A
C375   H405    1.081   .     S
C375   C377    1.411   .     A
C376   C378    1.409   .     A
C376   H406    1.082   .     S
C377   C1110   1.521   1_554 S
C378   C1109   1.521   .     S
C379   O415    1.296   .     A
C379   C381    1.440   .     S
C379   O413    1.287   .     A
C380   O414    1.286   .     A
C380   C382    1.437   .     S
C380   O416    1.295   .     A
C381   C626    1.366   1_455 S
C381   C661    1.536   1_455 S
C382   C503    1.366   .     S
C382   C549    1.532   .     S
C383   C393    1.403   .     A
C383   H397    1.083   .     S
C383   C385    1.389   .     A
C384   C386    1.391   .     A
C384   C394    1.400   .     A
C384   H398    1.083   .     S
C385   C387    1.398   .     A
C385   H399    1.083   .     S
C386   H400    1.083   .     S
C386   C388    1.406   .     A
C387   C389    1.408   .     A
C388   C390    1.418   .     A
C389   N437    1.421   .     S
C389   C391    1.395   .     A
C390   C392    1.394   .     A
C390   N443    1.420   .     S
C391   H401    1.084   .     S
C391   C393    1.400   .     A
C392   H402    1.084   .     S
C392   C394    1.396   .     A
C394   C27     1.466   1_565 S
Cu395  N408    2.023   .     S
Cu395  O413    1.986   .     S
Cu395  O409    1.956   .     S
Cu395  O416    1.977   .     S
Cu395  Cu396   2.692   .     S
Cu395  O412    1.951   .     S
Cu396  O411    1.951   .     S
Cu396  O414    1.986   .     S
Cu396  N407    2.023   .     S
Cu396  O410    1.956   .     S
Cu396  O415    1.977   .     S
C417   C418    1.535   .     S
C417   H425    1.104   .     S
C417   C503    1.536   .     S
C417   H548    1.112   .     S
C418   H424    1.108   .     S
C418   C419    1.528   .     S
C418   H545    1.111   .     S
C419   H421    1.110   .     S
C419   H422    1.110   .     S
C419   H420    1.111   .     S
H423   C662    1.111   1_455 S
H426   C661    1.112   1_455 S
C427   C428    1.538   .     S
C427   H435    1.109   .     S
C427   C626    1.532   1_455 S
C427   H680    1.113   1_455 S
C428   C429    1.522   .     S
C428   H434    1.105   .     S
C428   H677    1.110   1_455 S
C429   H431    1.111   .     S
C429   H432    1.111   .     S
C429   H430    1.107   .     S
H433   C550    1.110   .     S
H436   C549    1.113   .     S
N437   H438    1.031   .     S
N437   C439    1.446   .     S
C439   H440    1.111   .     S
C439   H441    1.111   .     S
C439   H442    1.111   .     S
N443   C445    1.446   .     S
N443   H444    1.032   .     S
C445   H447    1.110   .     S
C445   H446    1.111   .     S
C445   H448    1.111   .     S
C449   H458    1.108   .     S
C449   C450    1.533   .     S
C449   H457    1.107   .     S
C450   C451    1.520   .     S
C450   H455    1.112   .     S
C450   H1188   1.107   1_554 S
C451   H1306   1.111   1_554 S
C451   H575    1.111   .     S
C451   H1186   1.111   1_554 S
H452   C1427   1.111   1_455 S
H453   C695    1.111   1_455 S
H454   C1183   1.111   .     S
H456   C1182   1.107   .     S
C459   H467    1.093   .     S
C459   H468    1.099   .     S
C459   C1192   1.536   .     S
C460   H466    1.108   .     S
C460   C461    1.527   .     S
C460   C1191   1.536   1_554 S
C460   H1197   1.110   1_554 S
C461   H462    1.110   .     S
C461   H464    1.110   .     S
C461   H1195   1.111   1_554 S
H463   C1193   1.111   .     S
H465   C1192   1.110   .     S
C469   H477    1.091   .     S
C469   H478    1.108   .     S
C469   C470    1.540   .     S
C470   H475    1.109   .     S
C470   C471    1.528   .     S
C470   H476    1.112   .     S
C471   H473    1.111   .     S
C471   H474    1.110   .     S
C471   H472    1.111   .     S
C479   H488    1.087   .     S
C479   H487    1.108   .     S
C479   C480    1.547   .     S
C480   C481    1.528   .     S
C480   H485    1.104   .     S
C480   H486    1.101   .     S
C481   H482    1.111   .     S
C481   H483    1.109   .     S
C481   H484    1.111   .     S
C489   C509    1.453   .     S
C489   O531    1.302   .     A
C489   O533    1.289   .     A
C490   O534    1.298   .     A
C490   O532    1.305   .     A
C490   C510    1.476   .     S
C491   C571    1.526   .     S
C491   C493    1.426   .     A
C491   C499    1.416   .     A
C492   C500    1.418   .     A
C492   C494    1.443   .     A
C492   C581    1.545   .     S
C493   C591    1.526   .     S
C493   N529    1.389   .     A
C494   N530    1.405   .     A
C494   C601    1.529   .     S
C495   H525    1.079   .     S
C495   C497    1.409   .     A
C495   N529    1.366   .     A
C496   H526    1.080   .     S
C496   N530    1.362   .     A
C496   C498    1.409   .     A
C497   H527    1.081   .     S
C497   C499    1.411   .     A
C498   C500    1.409   .     A
C498   H528    1.082   .     S
C499   C1232   1.521   1_554 S
C500   C1231   1.521   .     S
C501   O537    1.296   .     A
C501   C503    1.440   .     S
C501   O535    1.287   .     A
C502   O536    1.286   .     A
C502   C504    1.437   .     S
C502   O538    1.295   .     A
C504   C625    1.366   .     S
C504   C671    1.532   .     S
C505   C515    1.403   .     A
C505   H519    1.083   .     S
C505   C507    1.389   .     A
C506   C508    1.391   .     A
C506   C516    1.400   .     A
C506   H520    1.083   .     S
C507   C509    1.398   .     A
C507   H521    1.083   .     S
C508   H522    1.083   .     S
C508   C510    1.406   .     A
C509   C511    1.408   .     A
C510   C512    1.418   .     A
C511   N559    1.421   .     S
C511   C513    1.395   .     A
C512   C514    1.394   .     A
C512   N565    1.420   .     S
C513   H523    1.084   .     S
C513   C515    1.400   .     A
C514   H524    1.084   .     S
C514   C516    1.396   .     A
C516   C149    1.466   1_565 S
Cu517  N530    2.023   .     S
Cu517  O535    1.986   .     S
Cu517  O531    1.956   .     S
Cu517  O538    1.977   .     S
Cu517  Cu518   2.692   .     S
Cu517  O534    1.951   .     S
Cu518  O533    1.951   .     S
Cu518  O536    1.986   .     S
Cu518  N529    2.023   .     S
Cu518  O532    1.956   .     S
Cu518  O537    1.977   .     S
C539   C540    1.535   .     S
C539   H547    1.104   .     S
C539   C625    1.536   .     S
C539   H670    1.112   .     S
C540   H546    1.108   .     S
C540   C541    1.528   .     S
C540   H667    1.111   .     S
C541   H543    1.110   .     S
C541   H544    1.110   .     S
C541   H542    1.111   .     S
C549   C550    1.538   .     S
C549   H557    1.109   .     S
C550   C551    1.522   .     S
C550   H556    1.105   .     S
C551   H553    1.111   .     S
C551   H554    1.111   .     S
C551   H552    1.107   .     S
H555   C672    1.110   .     S
H558   C671    1.113   .     S
N559   H560    1.031   .     S
N559   C561    1.446   .     S
C561   H562    1.111   .     S
C561   H563    1.111   .     S
C561   H564    1.111   .     S
N565   C567    1.446   .     S
N565   H566    1.032   .     S
C567   H569    1.110   .     S
C567   H568    1.111   .     S
C567   H570    1.111   .     S
C571   H580    1.108   .     S
C571   C572    1.533   .     S
C571   H579    1.107   .     S
C572   C573    1.520   .     S
C572   H577    1.112   .     S
C572   H1310   1.107   1_554 S
C573   H1428   1.111   1_554 S
C573   H697    1.111   .     S
C573   H1308   1.111   1_554 S
H574   C1183   1.111   .     S
H576   C1305   1.111   .     S
H578   C1304   1.107   .     S
C581   H589    1.093   .     S
C581   H590    1.099   .     S
C581   C1314   1.536   .     S
C582   H588    1.108   .     S
C582   C583    1.527   .     S
C582   C1313   1.536   1_554 S
C582   H1319   1.110   1_554 S
C583   H584    1.110   .     S
C583   H586    1.110   .     S
C583   H1317   1.111   1_554 S
H585   C1315   1.111   .     S
H587   C1314   1.110   .     S
C591   H599    1.091   .     S
C591   H600    1.108   .     S
C591   C592    1.540   .     S
C592   H597    1.109   .     S
C592   C593    1.528   .     S
C592   H598    1.112   .     S
C593   H595    1.111   .     S
C593   H596    1.110   .     S
C593   H594    1.111   .     S
C601   H610    1.087   .     S
C601   H609    1.108   .     S
C601   C602    1.547   .     S
C602   C603    1.528   .     S
C602   H607    1.104   .     S
C602   H608    1.101   .     S
C603   H604    1.111   .     S
C603   H605    1.109   .     S
C603   H606    1.111   .     S
C611   C631    1.453   .     S
C611   O653    1.302   .     A
C611   O655    1.289   .     A
C612   O656    1.298   .     A
C612   O654    1.305   .     A
C612   C632    1.476   .     S
C613   C693    1.526   .     S
C613   C615    1.426   .     A
C613   C621    1.416   .     A
C614   C622    1.418   .     A
C614   C616    1.443   .     A
C614   C703    1.545   .     S
C615   C713    1.526   .     S
C615   N651    1.389   .     A
C616   N652    1.405   .     A
C616   C723    1.529   .     S
C617   H647    1.079   .     S
C617   C619    1.409   .     A
C617   N651    1.366   .     A
C618   H648    1.080   .     S
C618   N652    1.362   .     A
C618   C620    1.409   .     A
C619   H649    1.081   .     S
C619   C621    1.411   .     A
C620   C622    1.409   .     A
C620   H650    1.082   .     S
C621   C1354   1.521   1_554 S
C622   C1353   1.521   .     S
C623   O659    1.296   .     A
C623   C625    1.440   .     S
C623   O657    1.287   .     A
C624   O658    1.286   .     A
C624   C626    1.437   .     S
C624   O660    1.295   .     A
C626   C381    1.366   1_655 S
C626   C427    1.532   1_655 S
C627   C637    1.403   .     A
C627   H641    1.083   .     S
C627   C629    1.389   .     A
C628   C630    1.391   .     A
C628   C638    1.400   .     A
C628   H642    1.083   .     S
C629   C631    1.398   .     A
C629   H643    1.083   .     S
C630   H644    1.083   .     S
C630   C632    1.406   .     A
C631   C633    1.408   .     A
C632   C634    1.418   .     A
C633   N681    1.421   .     S
C633   C635    1.395   .     A
C634   C636    1.394   .     A
C634   N687    1.420   .     S
C635   H645    1.084   .     S
C635   C637    1.400   .     A
C636   H646    1.084   .     S
C636   C638    1.396   .     A
C638   C271    1.466   1_565 S
Cu639  N652    2.023   .     S
Cu639  O657    1.986   .     S
Cu639  O653    1.956   .     S
Cu639  O660    1.977   .     S
Cu639  Cu640   2.692   .     S
Cu639  O656    1.951   .     S
Cu640  O655    1.951   .     S
Cu640  O658    1.986   .     S
Cu640  N651    2.023   .     S
Cu640  O654    1.956   .     S
Cu640  O659    1.977   .     S
C661   C662    1.535   .     S
C661   H669    1.104   .     S
C661   C381    1.536   1_655 S
C661   H426    1.112   1_655 S
C662   H668    1.108   .     S
C662   C663    1.528   .     S
C662   H423    1.111   1_655 S
C663   H665    1.110   .     S
C663   H666    1.110   .     S
C663   H664    1.111   .     S
C671   C672    1.538   .     S
C671   H679    1.109   .     S
C672   C673    1.522   .     S
C672   H678    1.105   .     S
C673   H675    1.111   .     S
C673   H676    1.111   .     S
C673   H674    1.107   .     S
H677   C428    1.110   1_655 S
H680   C427    1.113   1_655 S
N681   H682    1.031   .     S
N681   C683    1.446   .     S
C683   H684    1.111   .     S
C683   H685    1.111   .     S
C683   H686    1.111   .     S
N687   C689    1.446   .     S
N687   H688    1.032   .     S
C689   H691    1.110   .     S
C689   H690    1.111   .     S
C689   H692    1.111   .     S
C693   H702    1.108   .     S
C693   C694    1.533   .     S
C693   H701    1.107   .     S
C694   C695    1.520   .     S
C694   H699    1.112   .     S
C694   H1432   1.107   1_554 S
C695   H1184   1.111   1_654 S
C695   H453    1.111   1_655 S
C695   H1430   1.111   1_554 S
H696   C1305   1.111   .     S
H698   C1427   1.111   .     S
H700   C1426   1.107   .     S
C703   H711    1.093   .     S
C703   H712    1.099   .     S
C703   C1436   1.536   .     S
C704   H710    1.108   .     S
C704   C705    1.527   .     S
C704   C1435   1.536   1_554 S
C704   H1441   1.110   1_554 S
C705   H706    1.110   .     S
C705   H708    1.110   .     S
C705   H1439   1.111   1_554 S
H707   C1437   1.111   .     S
H709   C1436   1.110   .     S
C713   H721    1.091   .     S
C713   H722    1.108   .     S
C713   C714    1.540   .     S
C714   H719    1.109   .     S
C714   C715    1.528   .     S
C714   H720    1.112   .     S
C715   H717    1.111   .     S
C715   H718    1.110   .     S
C715   H716    1.111   .     S
C723   H732    1.087   .     S
C723   H731    1.108   .     S
C723   C724    1.547   .     S
C724   C725    1.528   .     S
C724   H729    1.104   .     S
C724   H730    1.101   .     S
C725   H726    1.111   .     S
C725   H727    1.109   .     S
C725   H728    1.111   .     S
C733   C753    1.453   .     S
C733   O775    1.302   .     A
C733   O777    1.289   .     A
C734   O778    1.298   .     A
C734   O776    1.305   .     A
C734   C754    1.476   .     S
C735   C815    1.526   .     S
C735   C737    1.426   .     A
C735   C743    1.416   .     A
C736   C744    1.418   .     A
C736   C738    1.443   .     A
C736   C825    1.545   .     S
C737   C835    1.526   .     S
C737   N773    1.389   .     A
C738   N774    1.405   .     A
C738   C845    1.529   .     S
C739   H769    1.079   .     S
C739   C741    1.409   .     A
C739   N773    1.366   .     A
C740   H770    1.080   .     S
C740   N774    1.362   .     A
C740   C742    1.409   .     A
C741   H771    1.081   .     S
C741   C743    1.411   .     A
C742   C744    1.409   .     A
C742   H772    1.082   .     S
C744   C11     1.521   1_556 S
C745   O781    1.296   .     A
C745   C747    1.440   .     S
C745   O779    1.287   .     A
C746   O780    1.286   .     A
C746   C748    1.437   .     S
C746   O782    1.295   .     A
C747   C992    1.366   1_455 S
C747   C1027   1.536   1_455 S
C748   C869    1.366   .     S
C748   C915    1.532   .     S
C749   C759    1.403   .     A
C749   H763    1.083   .     S
C749   C751    1.389   .     A
C750   C752    1.391   .     A
C750   C760    1.400   .     A
C750   H764    1.083   .     S
C751   C753    1.398   .     A
C751   H765    1.083   .     S
C752   H766    1.083   .     S
C752   C754    1.406   .     A
C753   C755    1.408   .     A
C754   C756    1.418   .     A
C755   N803    1.421   .     S
C755   C757    1.395   .     A
C756   C758    1.394   .     A
C756   N809    1.420   .     S
C757   H767    1.084   .     S
C757   C759    1.400   .     A
C758   H768    1.084   .     S
C758   C760    1.396   .     A
C759   C1126   1.466   1_545 S
C760   C1125   1.466   .     S
Cu761  N774    2.023   .     S
Cu761  O779    1.986   .     S
Cu761  O775    1.956   .     S
Cu761  O782    1.977   .     S
Cu761  Cu762   2.692   .     S
Cu761  O778    1.951   .     S
Cu762  O777    1.951   .     S
Cu762  O780    1.986   .     S
Cu762  N773    2.023   .     S
Cu762  O776    1.956   .     S
Cu762  O781    1.977   .     S
C783   C784    1.535   .     S
C783   H791    1.104   .     S
C783   C869    1.536   .     S
C783   H914    1.112   .     S
C784   H790    1.108   .     S
C784   C785    1.528   .     S
C784   H911    1.111   .     S
C785   H787    1.110   .     S
C785   H788    1.110   .     S
C785   H786    1.111   .     S
H789   C1028   1.111   1_455 S
H792   C1027   1.112   1_455 S
C793   C794    1.538   .     S
C793   H801    1.109   .     S
C793   C992    1.532   1_455 S
C793   H1046   1.113   1_455 S
C794   C795    1.522   .     S
C794   H800    1.105   .     S
C794   H1043   1.110   1_455 S
C795   H797    1.111   .     S
C795   H798    1.111   .     S
C795   H796    1.107   .     S
H799   C916    1.110   .     S
H802   C915    1.113   .     S
N803   H804    1.031   .     S
N803   C805    1.446   .     S
C805   H806    1.111   .     S
C805   H807    1.111   .     S
C805   H808    1.111   .     S
N809   C811    1.446   .     S
N809   H810    1.032   .     S
C811   H813    1.110   .     S
C811   H812    1.111   .     S
C811   H814    1.111   .     S
C815   H824    1.108   .     S
C815   C816    1.533   .     S
C815   H823    1.107   .     S
C816   C817    1.520   .     S
C816   H821    1.112   .     S
C817   H941    1.111   .     S
H818   C329    1.111   1_456 S
H819   C1061   1.111   1_455 S
H820   C85     1.111   1_556 S
H822   C84     1.107   1_556 S
C825   H833    1.093   .     S
C825   H834    1.099   .     S
C825   C94     1.536   1_556 S
C826   H832    1.108   .     S
C826   C827    1.527   .     S
C827   H828    1.110   .     S
C827   H830    1.110   .     S
H829   C95     1.111   1_556 S
H831   C94     1.110   1_556 S
C835   H843    1.091   .     S
C835   H844    1.108   .     S
C835   C836    1.540   .     S
C836   H841    1.109   .     S
C836   C837    1.528   .     S
C836   H842    1.112   .     S
C837   H839    1.111   .     S
C837   H840    1.110   .     S
C837   H838    1.111   .     S
C845   H854    1.087   .     S
C845   H853    1.108   .     S
C845   C846    1.547   .     S
C846   C847    1.528   .     S
C846   H851    1.104   .     S
C846   H852    1.101   .     S
C847   H848    1.111   .     S
C847   H849    1.109   .     S
C847   H850    1.111   .     S
C855   C875    1.453   .     S
C855   O897    1.302   .     A
C855   O899    1.289   .     A
C856   O900    1.298   .     A
C856   O898    1.305   .     A
C856   C876    1.476   .     S
C857   C937    1.526   .     S
C857   C859    1.426   .     A
C857   C865    1.416   .     A
C858   C866    1.418   .     A
C858   C860    1.443   .     A
C858   C947    1.545   .     S
C859   C957    1.526   .     S
C859   N895    1.389   .     A
C860   N896    1.405   .     A
C860   C967    1.529   .     S
C861   H891    1.079   .     S
C861   C863    1.409   .     A
C861   N895    1.366   .     A
C862   H892    1.080   .     S
C862   N896    1.362   .     A
C862   C864    1.409   .     A
C863   H893    1.081   .     S
C863   C865    1.411   .     A
C864   C866    1.409   .     A
C864   H894    1.082   .     S
C866   C133    1.521   1_556 S
C867   O903    1.296   .     A
C867   C869    1.440   .     S
C867   O901    1.287   .     A
C868   O902    1.286   .     A
C868   C870    1.437   .     S
C868   O904    1.295   .     A
C870   C991    1.366   .     S
C870   C1037   1.532   .     S
C871   C881    1.403   .     A
C871   H885    1.083   .     S
C871   C873    1.389   .     A
C872   C874    1.391   .     A
C872   C882    1.400   .     A
C872   H886    1.083   .     S
C873   C875    1.398   .     A
C873   H887    1.083   .     S
C874   H888    1.083   .     S
C874   C876    1.406   .     A
C875   C877    1.408   .     A
C876   C878    1.418   .     A
C877   N925    1.421   .     S
C877   C879    1.395   .     A
C878   C880    1.394   .     A
C878   N931    1.420   .     S
C879   H889    1.084   .     S
C879   C881    1.400   .     A
C880   H890    1.084   .     S
C880   C882    1.396   .     A
C881   C1248   1.466   1_545 S
C882   C1247   1.466   .     S
Cu883  N896    2.023   .     S
Cu883  O901    1.986   .     S
Cu883  O897    1.956   .     S
Cu883  O904    1.977   .     S
Cu883  Cu884   2.692   .     S
Cu883  O900    1.951   .     S
Cu884  O899    1.951   .     S
Cu884  O902    1.986   .     S
Cu884  N895    2.023   .     S
Cu884  O898    1.956   .     S
Cu884  O903    1.977   .     S
C905   C906    1.535   .     S
C905   H913    1.104   .     S
C905   C991    1.536   .     S
C905   H1036   1.112   .     S
C906   H912    1.108   .     S
C906   C907    1.528   .     S
C906   H1033   1.111   .     S
C907   H909    1.110   .     S
C907   H910    1.110   .     S
C907   H908    1.111   .     S
C915   C916    1.538   .     S
C915   H923    1.109   .     S
C916   C917    1.522   .     S
C916   H922    1.105   .     S
C917   H919    1.111   .     S
C917   H920    1.111   .     S
C917   H918    1.107   .     S
H921   C1038   1.110   .     S
H924   C1037   1.113   .     S
N925   H926    1.031   .     S
N925   C927    1.446   .     S
C927   H928    1.111   .     S
C927   H929    1.111   .     S
C927   H930    1.111   .     S
N931   C933    1.446   .     S
N931   H932    1.032   .     S
C933   H935    1.110   .     S
C933   H934    1.111   .     S
C933   H936    1.111   .     S
C937   H946    1.108   .     S
C937   C938    1.533   .     S
C937   H945    1.107   .     S
C938   C939    1.520   .     S
C938   H943    1.112   .     S
C939   H1063   1.111   .     S
H940   C85     1.111   1_556 S
H942   C207    1.111   1_556 S
H944   C206    1.107   1_556 S
C947   H955    1.093   .     S
C947   H956    1.099   .     S
C947   C216    1.536   1_556 S
C948   H954    1.108   .     S
C948   C949    1.527   .     S
C949   H950    1.110   .     S
C949   H952    1.110   .     S
H951   C217    1.111   1_556 S
H953   C216    1.110   1_556 S
C957   H965    1.091   .     S
C957   H966    1.108   .     S
C957   C958    1.540   .     S
C958   H963    1.109   .     S
C958   C959    1.528   .     S
C958   H964    1.112   .     S
C959   H961    1.111   .     S
C959   H962    1.110   .     S
C959   H960    1.111   .     S
C967   H976    1.087   .     S
C967   H975    1.108   .     S
C967   C968    1.547   .     S
C968   C969    1.528   .     S
C968   H973    1.104   .     S
C968   H974    1.101   .     S
C969   H970    1.111   .     S
C969   H971    1.109   .     S
C969   H972    1.111   .     S
C977   C997    1.453   .     S
C977   O1019   1.302   .     A
C977   O1021   1.289   .     A
C978   O1022   1.298   .     A
C978   O1020   1.305   .     A
C978   C998    1.476   .     S
C979   C1059   1.526   .     S
C979   C981    1.426   .     A
C979   C987    1.416   .     A
C980   C988    1.418   .     A
C980   C982    1.443   .     A
C980   C1069   1.545   .     S
C981   C1079   1.526   .     S
C981   N1017   1.389   .     A
C982   N1018   1.405   .     A
C982   C1089   1.529   .     S
C983   H1013   1.079   .     S
C983   C985    1.409   .     A
C983   N1017   1.366   .     A
C984   H1014   1.080   .     S
C984   N1018   1.362   .     A
C984   C986    1.409   .     A
C985   H1015   1.081   .     S
C985   C987    1.411   .     A
C986   C988    1.409   .     A
C986   H1016   1.082   .     S
C988   C255    1.521   1_556 S
C989   O1025   1.296   .     A
C989   C991    1.440   .     S
C989   O1023   1.287   .     A
C990   O1024   1.286   .     A
C990   C992    1.437   .     S
C990   O1026   1.295   .     A
C992   C747    1.366   1_655 S
C992   C793    1.532   1_655 S
C993   C1003   1.403   .     A
C993   H1007   1.083   .     S
C993   C995    1.389   .     A
C994   C996    1.391   .     A
C994   C1004   1.400   .     A
C994   H1008   1.083   .     S
C995   C997    1.398   .     A
C995   H1009   1.083   .     S
C996   H1010   1.083   .     S
C996   C998    1.406   .     A
C997   C999    1.408   .     A
C998   C1000   1.418   .     A
C999   N1047   1.421   .     S
C999   C1001   1.395   .     A
C1000  C1002   1.394   .     A
C1000  N1053   1.420   .     S
C1001  H1011   1.084   .     S
C1001  C1003   1.400   .     A
C1002  H1012   1.084   .     S
C1002  C1004   1.396   .     A
C1003  C1370   1.466   1_545 S
C1004  C1369   1.466   .     S
Cu1005 N1018   2.023   .     S
Cu1005 O1023   1.986   .     S
Cu1005 O1019   1.956   .     S
Cu1005 O1026   1.977   .     S
Cu1005 Cu1006  2.692   .     S
Cu1005 O1022   1.951   .     S
Cu1006 O1021   1.951   .     S
Cu1006 O1024   1.986   .     S
Cu1006 N1017   2.023   .     S
Cu1006 O1020   1.956   .     S
Cu1006 O1025   1.977   .     S
C1027  C1028   1.535   .     S
C1027  H1035   1.104   .     S
C1027  C747    1.536   1_655 S
C1027  H792    1.112   1_655 S
C1028  H1034   1.108   .     S
C1028  C1029   1.528   .     S
C1028  H789    1.111   1_655 S
C1029  H1031   1.110   .     S
C1029  H1032   1.110   .     S
C1029  H1030   1.111   .     S
C1037  C1038   1.538   .     S
C1037  H1045   1.109   .     S
C1038  C1039   1.522   .     S
C1038  H1044   1.105   .     S
C1039  H1041   1.111   .     S
C1039  H1042   1.111   .     S
C1039  H1040   1.107   .     S
H1043  C794    1.110   1_655 S
H1046  C793    1.113   1_655 S
N1047  H1048   1.031   .     S
N1047  C1049   1.446   .     S
C1049  H1050   1.111   .     S
C1049  H1051   1.111   .     S
C1049  H1052   1.111   .     S
N1053  C1055   1.446   .     S
N1053  H1054   1.032   .     S
C1055  H1057   1.110   .     S
C1055  H1056   1.111   .     S
C1055  H1058   1.111   .     S
C1059  H1068   1.108   .     S
C1059  C1060   1.533   .     S
C1059  H1067   1.107   .     S
C1060  C1061   1.520   .     S
C1060  H1065   1.112   .     S
C1061  H86     1.111   1_655 S
C1061  H819    1.111   1_655 S
H1062  C207    1.111   1_556 S
H1064  C329    1.111   1_556 S
H1066  C328    1.107   1_556 S
C1069  H1077   1.093   .     S
C1069  H1078   1.099   .     S
C1069  C338    1.536   1_556 S
C1070  H1076   1.108   .     S
C1070  C1071   1.527   .     S
C1071  H1072   1.110   .     S
C1071  H1074   1.110   .     S
H1073  C339    1.111   1_556 S
H1075  C338    1.110   1_556 S
C1079  H1087   1.091   .     S
C1079  H1088   1.108   .     S
C1079  C1080   1.540   .     S
C1080  H1085   1.109   .     S
C1080  C1081   1.528   .     S
C1080  H1086   1.112   .     S
C1081  H1083   1.111   .     S
C1081  H1084   1.110   .     S
C1081  H1082   1.111   .     S
C1089  H1098   1.087   .     S
C1089  H1097   1.108   .     S
C1089  C1090   1.547   .     S
C1090  C1091   1.528   .     S
C1090  H1095   1.104   .     S
C1090  H1096   1.101   .     S
C1091  H1092   1.111   .     S
C1091  H1093   1.109   .     S
C1091  H1094   1.111   .     S
C1099  C1119   1.453   .     S
C1099  O1141   1.302   .     A
C1099  O1143   1.289   .     A
C1100  O1144   1.298   .     A
C1100  O1142   1.305   .     A
C1100  C1120   1.476   .     S
C1101  C1181   1.526   .     S
C1101  C1103   1.426   .     A
C1101  C1109   1.416   .     A
C1102  C1110   1.418   .     A
C1102  C1104   1.443   .     A
C1102  C1191   1.545   .     S
C1103  C1201   1.526   .     S
C1103  N1139   1.389   .     A
C1104  N1140   1.405   .     A
C1104  C1211   1.529   .     S
C1105  H1135   1.079   .     S
C1105  C1107   1.409   .     A
C1105  N1139   1.366   .     A
C1106  H1136   1.080   .     S
C1106  N1140   1.362   .     A
C1106  C1108   1.409   .     A
C1107  H1137   1.081   .     S
C1107  C1109   1.411   .     A
C1108  C1110   1.409   .     A
C1108  H1138   1.082   .     S
C1110  C377    1.521   1_556 S
C1111  O1147   1.296   .     A
C1111  C1113   1.440   .     S
C1111  O1145   1.287   .     A
C1112  O1146   1.286   .     A
C1112  C1114   1.437   .     S
C1112  O1148   1.295   .     A
C1113  C1358   1.366   1_455 S
C1113  C1393   1.536   1_455 S
C1114  C1235   1.366   .     S
C1114  C1281   1.532   .     S
C1115  C1125   1.403   .     A
C1115  H1129   1.083   .     S
C1115  C1117   1.389   .     A
C1116  C1118   1.391   .     A
C1116  C1126   1.400   .     A
C1116  H1130   1.083   .     S
C1117  C1119   1.398   .     A
C1117  H1131   1.083   .     S
C1118  H1132   1.083   .     S
C1118  C1120   1.406   .     A
C1119  C1121   1.408   .     A
C1120  C1122   1.418   .     A
C1121  N1169   1.421   .     S
C1121  C1123   1.395   .     A
C1122  C1124   1.394   .     A
C1122  N1175   1.420   .     S
C1123  H1133   1.084   .     S
C1123  C1125   1.400   .     A
C1124  H1134   1.084   .     S
C1124  C1126   1.396   .     A
C1126  C759    1.466   1_565 S
Cu1127 N1140   2.023   .     S
Cu1127 O1145   1.986   .     S
Cu1127 O1141   1.956   .     S
Cu1127 O1148   1.977   .     S
Cu1127 Cu1128  2.692   .     S
Cu1127 O1144   1.951   .     S
Cu1128 O1143   1.951   .     S
Cu1128 O1146   1.986   .     S
Cu1128 N1139   2.023   .     S
Cu1128 O1142   1.956   .     S
Cu1128 O1147   1.977   .     S
C1149  C1150   1.535   .     S
C1149  H1157   1.104   .     S
C1149  C1235   1.536   .     S
C1149  H1280   1.112   .     S
C1150  H1156   1.108   .     S
C1150  C1151   1.528   .     S
C1150  H1277   1.111   .     S
C1151  H1153   1.110   .     S
C1151  H1154   1.110   .     S
C1151  H1152   1.111   .     S
H1155  C1394   1.111   1_455 S
H1158  C1393   1.112   1_455 S
C1159  C1160   1.538   .     S
C1159  H1167   1.109   .     S
C1159  C1358   1.532   1_455 S
C1159  H1412   1.113   1_455 S
C1160  C1161   1.522   .     S
C1160  H1166   1.105   .     S
C1160  H1409   1.110   1_455 S
C1161  H1163   1.111   .     S
C1161  H1164   1.111   .     S
C1161  H1162   1.107   .     S
H1165  C1282   1.110   .     S
H1168  C1281   1.113   .     S
N1169  H1170   1.031   .     S
N1169  C1171   1.446   .     S
C1171  H1172   1.111   .     S
C1171  H1173   1.111   .     S
C1171  H1174   1.111   .     S
N1175  C1177   1.446   .     S
N1175  H1176   1.032   .     S
C1177  H1179   1.110   .     S
C1177  H1178   1.111   .     S
C1177  H1180   1.111   .     S
C1181  H1190   1.108   .     S
C1181  C1182   1.533   .     S
C1181  H1189   1.107   .     S
C1182  C1183   1.520   .     S
C1182  H1187   1.112   .     S
C1183  H1307   1.111   .     S
H1184  C695    1.111   1_456 S
H1185  C1427   1.111   1_455 S
H1186  C451    1.111   1_556 S
H1188  C450    1.107   1_556 S
C1191  H1199   1.093   .     S
C1191  H1200   1.099   .     S
C1191  C460    1.536   1_556 S
C1192  H1198   1.108   .     S
C1192  C1193   1.527   .     S
C1193  H1194   1.110   .     S
C1193  H1196   1.110   .     S
H1195  C461    1.111   1_556 S
H1197  C460    1.110   1_556 S
C1201  H1209   1.091   .     S
C1201  H1210   1.108   .     S
C1201  C1202   1.540   .     S
C1202  H1207   1.109   .     S
C1202  C1203   1.528   .     S
C1202  H1208   1.112   .     S
C1203  H1205   1.111   .     S
C1203  H1206   1.110   .     S
C1203  H1204   1.111   .     S
C1211  H1220   1.087   .     S
C1211  H1219   1.108   .     S
C1211  C1212   1.547   .     S
C1212  C1213   1.528   .     S
C1212  H1217   1.104   .     S
C1212  H1218   1.101   .     S
C1213  H1214   1.111   .     S
C1213  H1215   1.109   .     S
C1213  H1216   1.111   .     S
C1221  C1241   1.453   .     S
C1221  O1263   1.302   .     A
C1221  O1265   1.289   .     A
C1222  O1266   1.298   .     A
C1222  O1264   1.305   .     A
C1222  C1242   1.476   .     S
C1223  C1303   1.526   .     S
C1223  C1225   1.426   .     A
C1223  C1231   1.416   .     A
C1224  C1232   1.418   .     A
C1224  C1226   1.443   .     A
C1224  C1313   1.545   .     S
C1225  C1323   1.526   .     S
C1225  N1261   1.389   .     A
C1226  N1262   1.405   .     A
C1226  C1333   1.529   .     S
C1227  H1257   1.079   .     S
C1227  C1229   1.409   .     A
C1227  N1261   1.366   .     A
C1228  H1258   1.080   .     S
C1228  N1262   1.362   .     A
C1228  C1230   1.409   .     A
C1229  H1259   1.081   .     S
C1229  C1231   1.411   .     A
C1230  C1232   1.409   .     A
C1230  H1260   1.082   .     S
C1232  C499    1.521   1_556 S
C1233  O1269   1.296   .     A
C1233  C1235   1.440   .     S
C1233  O1267   1.287   .     A
C1234  O1268   1.286   .     A
C1234  C1236   1.437   .     S
C1234  O1270   1.295   .     A
C1236  C1357   1.366   .     S
C1236  C1403   1.532   .     S
C1237  C1247   1.403   .     A
C1237  H1251   1.083   .     S
C1237  C1239   1.389   .     A
C1238  C1240   1.391   .     A
C1238  C1248   1.400   .     A
C1238  H1252   1.083   .     S
C1239  C1241   1.398   .     A
C1239  H1253   1.083   .     S
C1240  H1254   1.083   .     S
C1240  C1242   1.406   .     A
C1241  C1243   1.408   .     A
C1242  C1244   1.418   .     A
C1243  N1291   1.421   .     S
C1243  C1245   1.395   .     A
C1244  C1246   1.394   .     A
C1244  N1297   1.420   .     S
C1245  H1255   1.084   .     S
C1245  C1247   1.400   .     A
C1246  H1256   1.084   .     S
C1246  C1248   1.396   .     A
C1248  C881    1.466   1_565 S
Cu1249 N1262   2.023   .     S
Cu1249 O1267   1.986   .     S
Cu1249 O1263   1.956   .     S
Cu1249 O1270   1.977   .     S
Cu1249 Cu1250  2.692   .     S
Cu1249 O1266   1.951   .     S
Cu1250 O1265   1.951   .     S
Cu1250 O1268   1.986   .     S
Cu1250 N1261   2.023   .     S
Cu1250 O1264   1.956   .     S
Cu1250 O1269   1.977   .     S
C1271  C1272   1.535   .     S
C1271  H1279   1.104   .     S
C1271  C1357   1.536   .     S
C1271  H1402   1.112   .     S
C1272  H1278   1.108   .     S
C1272  C1273   1.528   .     S
C1272  H1399   1.111   .     S
C1273  H1275   1.110   .     S
C1273  H1276   1.110   .     S
C1273  H1274   1.111   .     S
C1281  C1282   1.538   .     S
C1281  H1289   1.109   .     S
C1282  C1283   1.522   .     S
C1282  H1288   1.105   .     S
C1283  H1285   1.111   .     S
C1283  H1286   1.111   .     S
C1283  H1284   1.107   .     S
H1287  C1404   1.110   .     S
H1290  C1403   1.113   .     S
N1291  H1292   1.031   .     S
N1291  C1293   1.446   .     S
C1293  H1294   1.111   .     S
C1293  H1295   1.111   .     S
C1293  H1296   1.111   .     S
N1297  C1299   1.446   .     S
N1297  H1298   1.032   .     S
C1299  H1301   1.110   .     S
C1299  H1300   1.111   .     S
C1299  H1302   1.111   .     S
C1303  H1312   1.108   .     S
C1303  C1304   1.533   .     S
C1303  H1311   1.107   .     S
C1304  C1305   1.520   .     S
C1304  H1309   1.112   .     S
C1305  H1429   1.111   .     S
H1306  C451    1.111   1_556 S
H1308  C573    1.111   1_556 S
H1310  C572    1.107   1_556 S
C1313  H1321   1.093   .     S
C1313  H1322   1.099   .     S
C1313  C582    1.536   1_556 S
C1314  H1320   1.108   .     S
C1314  C1315   1.527   .     S
C1315  H1316   1.110   .     S
C1315  H1318   1.110   .     S
H1317  C583    1.111   1_556 S
H1319  C582    1.110   1_556 S
C1323  H1331   1.091   .     S
C1323  H1332   1.108   .     S
C1323  C1324   1.540   .     S
C1324  H1329   1.109   .     S
C1324  C1325   1.528   .     S
C1324  H1330   1.112   .     S
C1325  H1327   1.111   .     S
C1325  H1328   1.110   .     S
C1325  H1326   1.111   .     S
C1333  H1342   1.087   .     S
C1333  H1341   1.108   .     S
C1333  C1334   1.547   .     S
C1334  C1335   1.528   .     S
C1334  H1339   1.104   .     S
C1334  H1340   1.101   .     S
C1335  H1336   1.111   .     S
C1335  H1337   1.109   .     S
C1335  H1338   1.111   .     S
C1343  C1363   1.453   .     S
C1343  O1385   1.302   .     A
C1343  O1387   1.289   .     A
C1344  O1388   1.298   .     A
C1344  O1386   1.305   .     A
C1344  C1364   1.476   .     S
C1345  C1425   1.526   .     S
C1345  C1347   1.426   .     A
C1345  C1353   1.416   .     A
C1346  C1354   1.418   .     A
C1346  C1348   1.443   .     A
C1346  C1435   1.545   .     S
C1347  C1445   1.526   .     S
C1347  N1383   1.389   .     A
C1348  N1384   1.405   .     A
C1348  C1455   1.529   .     S
C1349  H1379   1.079   .     S
C1349  C1351   1.409   .     A
C1349  N1383   1.366   .     A
C1350  H1380   1.080   .     S
C1350  N1384   1.362   .     A
C1350  C1352   1.409   .     A
C1351  H1381   1.081   .     S
C1351  C1353   1.411   .     A
C1352  C1354   1.409   .     A
C1352  H1382   1.082   .     S
C1354  C621    1.521   1_556 S
C1355  O1391   1.296   .     A
C1355  C1357   1.440   .     S
C1355  O1389   1.287   .     A
C1356  O1390   1.286   .     A
C1356  C1358   1.437   .     S
C1356  O1392   1.295   .     A
C1358  C1113   1.366   1_655 S
C1358  C1159   1.532   1_655 S
C1359  C1369   1.403   .     A
C1359  H1373   1.083   .     S
C1359  C1361   1.389   .     A
C1360  C1362   1.391   .     A
C1360  C1370   1.400   .     A
C1360  H1374   1.083   .     S
C1361  C1363   1.398   .     A
C1361  H1375   1.083   .     S
C1362  H1376   1.083   .     S
C1362  C1364   1.406   .     A
C1363  C1365   1.408   .     A
C1364  C1366   1.418   .     A
C1365  N1413   1.421   .     S
C1365  C1367   1.395   .     A
C1366  C1368   1.394   .     A
C1366  N1419   1.420   .     S
C1367  H1377   1.084   .     S
C1367  C1369   1.400   .     A
C1368  H1378   1.084   .     S
C1368  C1370   1.396   .     A
C1370  C1003   1.466   1_565 S
Cu1371 N1384   2.023   .     S
Cu1371 O1389   1.986   .     S
Cu1371 O1385   1.956   .     S
Cu1371 O1392   1.977   .     S
Cu1371 Cu1372  2.692   .     S
Cu1371 O1388   1.951   .     S
Cu1372 O1387   1.951   .     S
Cu1372 O1390   1.986   .     S
Cu1372 N1383   2.023   .     S
Cu1372 O1386   1.956   .     S
Cu1372 O1391   1.977   .     S
C1393  C1394   1.535   .     S
C1393  H1401   1.104   .     S
C1393  C1113   1.536   1_655 S
C1393  H1158   1.112   1_655 S
C1394  H1400   1.108   .     S
C1394  C1395   1.528   .     S
C1394  H1155   1.111   1_655 S
C1395  H1397   1.110   .     S
C1395  H1398   1.110   .     S
C1395  H1396   1.111   .     S
C1403  C1404   1.538   .     S
C1403  H1411   1.109   .     S
C1404  C1405   1.522   .     S
C1404  H1410   1.105   .     S
C1405  H1407   1.111   .     S
C1405  H1408   1.111   .     S
C1405  H1406   1.107   .     S
H1409  C1160   1.110   1_655 S
H1412  C1159   1.113   1_655 S
N1413  H1414   1.031   .     S
N1413  C1415   1.446   .     S
C1415  H1416   1.111   .     S
C1415  H1417   1.111   .     S
C1415  H1418   1.111   .     S
N1419  C1421   1.446   .     S
N1419  H1420   1.032   .     S
C1421  H1423   1.110   .     S
C1421  H1422   1.111   .     S
C1421  H1424   1.111   .     S
C1425  H1434   1.108   .     S
C1425  C1426   1.533   .     S
C1425  H1433   1.107   .     S
C1426  C1427   1.520   .     S
C1426  H1431   1.112   .     S
C1427  H452    1.111   1_655 S
C1427  H1185   1.111   1_655 S
H1428  C573    1.111   1_556 S
H1430  C695    1.111   1_556 S
H1432  C694    1.107   1_556 S
C1435  H1443   1.093   .     S
C1435  H1444   1.099   .     S
C1435  C704    1.536   1_556 S
C1436  H1442   1.108   .     S
C1436  C1437   1.527   .     S
C1437  H1438   1.110   .     S
C1437  H1440   1.110   .     S
H1439  C705    1.111   1_556 S
H1441  C704    1.110   1_556 S
C1445  H1453   1.091   .     S
C1445  H1454   1.108   .     S
C1445  C1446   1.540   .     S
C1446  H1451   1.109   .     S
C1446  C1447   1.528   .     S
C1446  H1452   1.112   .     S
C1447  H1449   1.111   .     S
C1447  H1450   1.110   .     S
C1447  H1448   1.111   .     S
C1455  H1464   1.087   .     S
C1455  H1463   1.108   .     S
C1455  C1456   1.547   .     S
C1456  C1457   1.528   .     S
C1456  H1461   1.104   .     S
C1456  H1462   1.101   .     S
C1457  H1458   1.111   .     S
C1457  H1459   1.109   .     S
C1457  H1460   1.111   .     S
