data_str_m3_o2_o5_pcu_sym.121
_audit_creation_date              2020-01-03
_audit_creation_method            'Materials Studio'
_symmetry_space_group_name_H-M    'P1'
_symmetry_Int_Tables_number       1
_symmetry_cell_setting            triclinic
loop_
_symmetry_equiv_pos_as_xyz
  x,y,z
_cell_length_a                    30.0255
_cell_length_b                    28.6004
_cell_length_c                    26.7297
_cell_angle_alpha                 89.9991
_cell_angle_beta                  91.4348
_cell_angle_gamma                 89.9997
loop_
_atom_site_label
_atom_site_type_symbol
_atom_site_fract_x
_atom_site_fract_y
_atom_site_fract_z
_atom_site_U_iso_or_equiv
_atom_site_adp_type
_atom_site_occupancy
C1     C     0.16398   0.24998   0.16659   0.00000  Uiso   1.00
C2     C     0.33602   0.24998   0.16675   0.00000  Uiso   1.00
C3     C     0.23328   0.10176   0.12610   0.00000  Uiso   1.00
C4     C     0.28572   0.39829   0.18641   0.00000  Uiso   1.00
C5     C     0.26672   0.10176   0.20724   0.00000  Uiso   1.00
C6     C     0.21428   0.39829   0.14693   0.00000  Uiso   1.00
C7     C     0.23714   0.05269   0.12332   0.00000  Uiso   1.00
C8     C     0.28826   0.44737   0.18219   0.00000  Uiso   1.00
C9     C     0.26286   0.05269   0.21002   0.00000  Uiso   1.00
C10    C     0.21174   0.44737   0.15115   0.00000  Uiso   1.00
C11    C     0.24990   0.25000   0.07294   0.00000  Uiso   1.00
C12    C     0.25010   0.25000   0.26039   0.00000  Uiso   1.00
C13    C     0.25000   0.02668   0.16667   0.00000  Uiso   1.00
C14    C     0.25000   0.47338   0.16667   0.00000  Uiso   1.00
C15    C     0.24996   0.24999   0.02181   0.00000  Uiso   1.00
C16    C     0.25004   0.24999   0.31153   0.00000  Uiso   1.00
C17    C     0.04654   0.28881   0.14902   0.00000  Uiso   1.00
C18    C     0.45244   0.21038   0.14909   0.00000  Uiso   1.00
C19    C     0.45345   0.28871   0.18464   0.00000  Uiso   1.00
C20    C     0.04755   0.21028   0.18405   0.00000  Uiso   1.00
C21    C     0.09251   0.28908   0.14927   0.00000  Uiso   1.00
C22    C     0.40645   0.21045   0.14931   0.00000  Uiso   1.00
C23    C     0.40748   0.28897   0.18436   0.00000  Uiso   1.00
C24    C     0.09354   0.21035   0.18381   0.00000  Uiso   1.00
C25    C     0.11604   0.24983   0.16658   0.00000  Uiso   1.00
C26    C     0.38395   0.24983   0.16677   0.00000  Uiso   1.00
C27    C     0.02404   0.24950   0.16659   0.00000  Uiso   1.00
C28    C     0.47595   0.24949   0.16681   0.00000  Uiso   1.00
H29    H     0.02853   0.31902   0.13475   0.00000  Uiso   1.00
H30    H     0.46964   0.18014   0.13463   0.00000  Uiso   1.00
H31    H     0.47146   0.31883   0.19911   0.00000  Uiso   1.00
H32    H     0.03035   0.17996   0.19832   0.00000  Uiso   1.00
H33    H     0.10953   0.31959   0.13534   0.00000  Uiso   1.00
H34    H     0.38854   0.18010   0.13524   0.00000  Uiso   1.00
H35    H     0.39045   0.31940   0.19850   0.00000  Uiso   1.00
H36    H     0.11144   0.17991   0.19766   0.00000  Uiso   1.00
N37    N     0.25000   0.12624   0.16667   0.00000  Uiso   1.00
N38    N     0.25000   0.37377   0.16667   0.00000  Uiso   1.00
O39    O     0.18453   0.28974   0.16667   0.00000  Uiso   1.00
O40    O     0.31547   0.21026   0.16666   0.00000  Uiso   1.00
O41    O     0.31547   0.28974   0.16666   0.00000  Uiso   1.00
O42    O     0.18453   0.21026   0.16667   0.00000  Uiso   1.00
O43    O     0.25000   0.28973   0.09511   0.00000  Uiso   1.00
O44    O     0.25000   0.21027   0.23822   0.00000  Uiso   1.00
O45    O     0.25000   0.28973   0.23822   0.00000  Uiso   1.00
O46    O     0.25000   0.21027   0.09511   0.00000  Uiso   1.00
Zn47   Zn    0.25000   0.30307   0.16667   0.00000  Uiso   1.00
Zn48   Zn    0.25000   0.19693   0.16667   0.00000  Uiso   1.00
O49    O     0.21247   0.12425   0.08662   0.00000  Uiso   1.00
H50    H     0.19591   0.15074   0.10086   0.00000  Uiso   1.00
O51    O     0.32043   0.37590   0.21066   0.00000  Uiso   1.00
H52    H     0.30770   0.34871   0.22797   0.00000  Uiso   1.00
O53    O     0.28753   0.12425   0.24671   0.00000  Uiso   1.00
H54    H     0.30409   0.15074   0.23248   0.00000  Uiso   1.00
O55    O     0.17957   0.37590   0.12267   0.00000  Uiso   1.00
H56    H     0.19230   0.34871   0.10537   0.00000  Uiso   1.00
O57    O     0.22642   0.03178   0.07801   0.00000  Uiso   1.00
H58    H     0.24058   0.00058   0.07677   0.00000  Uiso   1.00
O59    O     0.32833   0.46829   0.19540   0.00000  Uiso   1.00
H60    H     0.32978   0.49949   0.17955   0.00000  Uiso   1.00
O61    O     0.27358   0.03178   0.25533   0.00000  Uiso   1.00
H62    H     0.25942   0.00058   0.25656   0.00000  Uiso   1.00
O63    O     0.17167   0.46829   0.13793   0.00000  Uiso   1.00
H64    H     0.17022   0.49949   0.15379   0.00000  Uiso   1.00
C65    C     0.66398   0.24998   0.16659   0.00000  Uiso   1.00
C66    C     0.83602   0.24998   0.16675   0.00000  Uiso   1.00
C67    C     0.73328   0.10176   0.12610   0.00000  Uiso   1.00
C68    C     0.78572   0.39829   0.18641   0.00000  Uiso   1.00
C69    C     0.76672   0.10176   0.20724   0.00000  Uiso   1.00
C70    C     0.71428   0.39829   0.14693   0.00000  Uiso   1.00
C71    C     0.73714   0.05269   0.12332   0.00000  Uiso   1.00
C72    C     0.78826   0.44737   0.18219   0.00000  Uiso   1.00
C73    C     0.76286   0.05269   0.21002   0.00000  Uiso   1.00
C74    C     0.71174   0.44737   0.15115   0.00000  Uiso   1.00
C75    C     0.74990   0.25000   0.07294   0.00000  Uiso   1.00
C76    C     0.75010   0.25000   0.26039   0.00000  Uiso   1.00
C77    C     0.75000   0.02668   0.16667   0.00000  Uiso   1.00
C78    C     0.75000   0.47338   0.16667   0.00000  Uiso   1.00
C79    C     0.74996   0.24999   0.02181   0.00000  Uiso   1.00
C80    C     0.75004   0.24999   0.31153   0.00000  Uiso   1.00
C81    C     0.54654   0.28881   0.14902   0.00000  Uiso   1.00
C82    C     0.95244   0.21038   0.14909   0.00000  Uiso   1.00
C83    C     0.95345   0.28871   0.18464   0.00000  Uiso   1.00
C84    C     0.54755   0.21028   0.18405   0.00000  Uiso   1.00
C85    C     0.59251   0.28908   0.14927   0.00000  Uiso   1.00
C86    C     0.90645   0.21045   0.14931   0.00000  Uiso   1.00
C87    C     0.90748   0.28897   0.18436   0.00000  Uiso   1.00
C88    C     0.59354   0.21035   0.18381   0.00000  Uiso   1.00
C89    C     0.61604   0.24983   0.16658   0.00000  Uiso   1.00
C90    C     0.88395   0.24983   0.16677   0.00000  Uiso   1.00
C91    C     0.52404   0.24950   0.16659   0.00000  Uiso   1.00
C92    C     0.97595   0.24949   0.16681   0.00000  Uiso   1.00
H93    H     0.52853   0.31902   0.13475   0.00000  Uiso   1.00
H94    H     0.96964   0.18014   0.13463   0.00000  Uiso   1.00
H95    H     0.97146   0.31883   0.19911   0.00000  Uiso   1.00
H96    H     0.53035   0.17996   0.19832   0.00000  Uiso   1.00
H97    H     0.60953   0.31959   0.13534   0.00000  Uiso   1.00
H98    H     0.88854   0.18010   0.13524   0.00000  Uiso   1.00
H99    H     0.89045   0.31940   0.19850   0.00000  Uiso   1.00
H100   H     0.61144   0.17991   0.19766   0.00000  Uiso   1.00
N101   N     0.75000   0.12624   0.16667   0.00000  Uiso   1.00
N102   N     0.75000   0.37377   0.16667   0.00000  Uiso   1.00
O103   O     0.68453   0.28974   0.16667   0.00000  Uiso   1.00
O104   O     0.81547   0.21026   0.16666   0.00000  Uiso   1.00
O105   O     0.81547   0.28974   0.16666   0.00000  Uiso   1.00
O106   O     0.68453   0.21026   0.16667   0.00000  Uiso   1.00
O107   O     0.75000   0.28973   0.09511   0.00000  Uiso   1.00
O108   O     0.75000   0.21027   0.23822   0.00000  Uiso   1.00
O109   O     0.75000   0.28973   0.23822   0.00000  Uiso   1.00
O110   O     0.75000   0.21027   0.09511   0.00000  Uiso   1.00
Zn111  Zn    0.75000   0.30307   0.16667   0.00000  Uiso   1.00
Zn112  Zn    0.75000   0.19693   0.16667   0.00000  Uiso   1.00
O113   O     0.71247   0.12425   0.08662   0.00000  Uiso   1.00
H114   H     0.69591   0.15074   0.10086   0.00000  Uiso   1.00
O115   O     0.82043   0.37590   0.21066   0.00000  Uiso   1.00
H116   H     0.80770   0.34871   0.22797   0.00000  Uiso   1.00
O117   O     0.78753   0.12425   0.24671   0.00000  Uiso   1.00
H118   H     0.80409   0.15074   0.23248   0.00000  Uiso   1.00
O119   O     0.67957   0.37590   0.12267   0.00000  Uiso   1.00
H120   H     0.69230   0.34871   0.10537   0.00000  Uiso   1.00
O121   O     0.72642   0.03178   0.07801   0.00000  Uiso   1.00
H122   H     0.74058   0.00058   0.07677   0.00000  Uiso   1.00
O123   O     0.82833   0.46829   0.19540   0.00000  Uiso   1.00
H124   H     0.82978   0.49949   0.17955   0.00000  Uiso   1.00
O125   O     0.77358   0.03178   0.25533   0.00000  Uiso   1.00
H126   H     0.75942   0.00058   0.25656   0.00000  Uiso   1.00
O127   O     0.67167   0.46829   0.13793   0.00000  Uiso   1.00
H128   H     0.67022   0.49949   0.15379   0.00000  Uiso   1.00
C129   C     0.16398   0.74998   0.16659   0.00000  Uiso   1.00
C130   C     0.33602   0.74998   0.16675   0.00000  Uiso   1.00
C131   C     0.23328   0.60176   0.12610   0.00000  Uiso   1.00
C132   C     0.28572   0.89829   0.18641   0.00000  Uiso   1.00
C133   C     0.26672   0.60176   0.20724   0.00000  Uiso   1.00
C134   C     0.21428   0.89829   0.14693   0.00000  Uiso   1.00
C135   C     0.23714   0.55269   0.12332   0.00000  Uiso   1.00
C136   C     0.28826   0.94737   0.18219   0.00000  Uiso   1.00
C137   C     0.26286   0.55269   0.21002   0.00000  Uiso   1.00
C138   C     0.21174   0.94737   0.15115   0.00000  Uiso   1.00
C139   C     0.24990   0.75000   0.07294   0.00000  Uiso   1.00
C140   C     0.25010   0.75000   0.26039   0.00000  Uiso   1.00
C141   C     0.25000   0.52668   0.16667   0.00000  Uiso   1.00
C142   C     0.25000   0.97338   0.16667   0.00000  Uiso   1.00
C143   C     0.24996   0.74999   0.02181   0.00000  Uiso   1.00
C144   C     0.25004   0.74999   0.31153   0.00000  Uiso   1.00
C145   C     0.04654   0.78881   0.14902   0.00000  Uiso   1.00
C146   C     0.45244   0.71038   0.14909   0.00000  Uiso   1.00
C147   C     0.45345   0.78871   0.18464   0.00000  Uiso   1.00
C148   C     0.04755   0.71028   0.18405   0.00000  Uiso   1.00
C149   C     0.09251   0.78908   0.14927   0.00000  Uiso   1.00
C150   C     0.40645   0.71045   0.14931   0.00000  Uiso   1.00
C151   C     0.40748   0.78897   0.18436   0.00000  Uiso   1.00
C152   C     0.09354   0.71035   0.18381   0.00000  Uiso   1.00
C153   C     0.11604   0.74983   0.16658   0.00000  Uiso   1.00
C154   C     0.38395   0.74983   0.16677   0.00000  Uiso   1.00
C155   C     0.02404   0.74950   0.16659   0.00000  Uiso   1.00
C156   C     0.47595   0.74949   0.16681   0.00000  Uiso   1.00
H157   H     0.02853   0.81902   0.13475   0.00000  Uiso   1.00
H158   H     0.46964   0.68014   0.13463   0.00000  Uiso   1.00
H159   H     0.47146   0.81883   0.19911   0.00000  Uiso   1.00
H160   H     0.03035   0.67996   0.19832   0.00000  Uiso   1.00
H161   H     0.10953   0.81959   0.13534   0.00000  Uiso   1.00
H162   H     0.38854   0.68010   0.13524   0.00000  Uiso   1.00
H163   H     0.39045   0.81940   0.19850   0.00000  Uiso   1.00
H164   H     0.11144   0.67991   0.19766   0.00000  Uiso   1.00
N165   N     0.25000   0.62624   0.16667   0.00000  Uiso   1.00
N166   N     0.25000   0.87377   0.16667   0.00000  Uiso   1.00
O167   O     0.18453   0.78974   0.16667   0.00000  Uiso   1.00
O168   O     0.31547   0.71026   0.16666   0.00000  Uiso   1.00
O169   O     0.31547   0.78974   0.16666   0.00000  Uiso   1.00
O170   O     0.18453   0.71026   0.16667   0.00000  Uiso   1.00
O171   O     0.25000   0.78973   0.09511   0.00000  Uiso   1.00
O172   O     0.25000   0.71027   0.23822   0.00000  Uiso   1.00
O173   O     0.25000   0.78973   0.23822   0.00000  Uiso   1.00
O174   O     0.25000   0.71027   0.09511   0.00000  Uiso   1.00
Zn175  Zn    0.25000   0.80307   0.16667   0.00000  Uiso   1.00
Zn176  Zn    0.25000   0.69693   0.16667   0.00000  Uiso   1.00
O177   O     0.21247   0.62425   0.08662   0.00000  Uiso   1.00
H178   H     0.19591   0.65074   0.10086   0.00000  Uiso   1.00
O179   O     0.32043   0.87590   0.21066   0.00000  Uiso   1.00
H180   H     0.30770   0.84871   0.22797   0.00000  Uiso   1.00
O181   O     0.28753   0.62425   0.24671   0.00000  Uiso   1.00
H182   H     0.30409   0.65074   0.23248   0.00000  Uiso   1.00
O183   O     0.17957   0.87590   0.12267   0.00000  Uiso   1.00
H184   H     0.19230   0.84871   0.10537   0.00000  Uiso   1.00
O185   O     0.22642   0.53178   0.07801   0.00000  Uiso   1.00
H186   H     0.24058   0.50058   0.07677   0.00000  Uiso   1.00
O187   O     0.32833   0.96829   0.19540   0.00000  Uiso   1.00
H188   H     0.32978   0.99949   0.17955   0.00000  Uiso   1.00
O189   O     0.27358   0.53178   0.25533   0.00000  Uiso   1.00
H190   H     0.25942   0.50058   0.25656   0.00000  Uiso   1.00
O191   O     0.17167   0.96829   0.13793   0.00000  Uiso   1.00
H192   H     0.17022   0.99949   0.15379   0.00000  Uiso   1.00
C193   C     0.66398   0.74998   0.16659   0.00000  Uiso   1.00
C194   C     0.83602   0.74998   0.16675   0.00000  Uiso   1.00
C195   C     0.73328   0.60176   0.12610   0.00000  Uiso   1.00
C196   C     0.78572   0.89829   0.18641   0.00000  Uiso   1.00
C197   C     0.76672   0.60176   0.20724   0.00000  Uiso   1.00
C198   C     0.71428   0.89829   0.14693   0.00000  Uiso   1.00
C199   C     0.73714   0.55269   0.12332   0.00000  Uiso   1.00
C200   C     0.78826   0.94737   0.18219   0.00000  Uiso   1.00
C201   C     0.76286   0.55269   0.21002   0.00000  Uiso   1.00
C202   C     0.71174   0.94737   0.15115   0.00000  Uiso   1.00
C203   C     0.74990   0.75000   0.07294   0.00000  Uiso   1.00
C204   C     0.75010   0.75000   0.26039   0.00000  Uiso   1.00
C205   C     0.75000   0.52668   0.16667   0.00000  Uiso   1.00
C206   C     0.75000   0.97338   0.16667   0.00000  Uiso   1.00
C207   C     0.74996   0.74999   0.02181   0.00000  Uiso   1.00
C208   C     0.75004   0.74999   0.31153   0.00000  Uiso   1.00
C209   C     0.54654   0.78881   0.14902   0.00000  Uiso   1.00
C210   C     0.95244   0.71038   0.14909   0.00000  Uiso   1.00
C211   C     0.95345   0.78871   0.18464   0.00000  Uiso   1.00
C212   C     0.54755   0.71028   0.18405   0.00000  Uiso   1.00
C213   C     0.59251   0.78908   0.14927   0.00000  Uiso   1.00
C214   C     0.90645   0.71045   0.14931   0.00000  Uiso   1.00
C215   C     0.90748   0.78897   0.18436   0.00000  Uiso   1.00
C216   C     0.59354   0.71035   0.18381   0.00000  Uiso   1.00
C217   C     0.61604   0.74983   0.16658   0.00000  Uiso   1.00
C218   C     0.88395   0.74983   0.16677   0.00000  Uiso   1.00
C219   C     0.52404   0.74950   0.16659   0.00000  Uiso   1.00
C220   C     0.97595   0.74949   0.16681   0.00000  Uiso   1.00
H221   H     0.52853   0.81902   0.13475   0.00000  Uiso   1.00
H222   H     0.96964   0.68014   0.13463   0.00000  Uiso   1.00
H223   H     0.97146   0.81883   0.19911   0.00000  Uiso   1.00
H224   H     0.53035   0.67996   0.19832   0.00000  Uiso   1.00
H225   H     0.60953   0.81959   0.13534   0.00000  Uiso   1.00
H226   H     0.88854   0.68010   0.13524   0.00000  Uiso   1.00
H227   H     0.89045   0.81940   0.19850   0.00000  Uiso   1.00
H228   H     0.61144   0.67991   0.19766   0.00000  Uiso   1.00
N229   N     0.75000   0.62624   0.16667   0.00000  Uiso   1.00
N230   N     0.75000   0.87377   0.16667   0.00000  Uiso   1.00
O231   O     0.68453   0.78974   0.16667   0.00000  Uiso   1.00
O232   O     0.81547   0.71026   0.16666   0.00000  Uiso   1.00
O233   O     0.81547   0.78974   0.16666   0.00000  Uiso   1.00
O234   O     0.68453   0.71026   0.16667   0.00000  Uiso   1.00
O235   O     0.75000   0.78973   0.09511   0.00000  Uiso   1.00
O236   O     0.75000   0.71027   0.23822   0.00000  Uiso   1.00
O237   O     0.75000   0.78973   0.23822   0.00000  Uiso   1.00
O238   O     0.75000   0.71027   0.09511   0.00000  Uiso   1.00
Zn239  Zn    0.75000   0.80307   0.16667   0.00000  Uiso   1.00
Zn240  Zn    0.75000   0.69693   0.16667   0.00000  Uiso   1.00
O241   O     0.71247   0.62425   0.08662   0.00000  Uiso   1.00
H242   H     0.69591   0.65074   0.10086   0.00000  Uiso   1.00
O243   O     0.82043   0.87590   0.21066   0.00000  Uiso   1.00
H244   H     0.80770   0.84871   0.22797   0.00000  Uiso   1.00
O245   O     0.78753   0.62425   0.24671   0.00000  Uiso   1.00
H246   H     0.80409   0.65074   0.23248   0.00000  Uiso   1.00
O247   O     0.67957   0.87590   0.12267   0.00000  Uiso   1.00
H248   H     0.69230   0.84871   0.10537   0.00000  Uiso   1.00
O249   O     0.72642   0.53178   0.07801   0.00000  Uiso   1.00
H250   H     0.74058   0.50058   0.07677   0.00000  Uiso   1.00
O251   O     0.82833   0.96829   0.19540   0.00000  Uiso   1.00
H252   H     0.82978   0.99949   0.17955   0.00000  Uiso   1.00
O253   O     0.77358   0.53178   0.25533   0.00000  Uiso   1.00
H254   H     0.75942   0.50058   0.25656   0.00000  Uiso   1.00
O255   O     0.67167   0.96829   0.13793   0.00000  Uiso   1.00
H256   H     0.67022   0.99949   0.15379   0.00000  Uiso   1.00
C257   C     0.16398   0.24998   0.49992   0.00000  Uiso   1.00
C258   C     0.33602   0.24998   0.50008   0.00000  Uiso   1.00
C259   C     0.23328   0.10176   0.45943   0.00000  Uiso   1.00
C260   C     0.28572   0.39829   0.51974   0.00000  Uiso   1.00
C261   C     0.26672   0.10176   0.54057   0.00000  Uiso   1.00
C262   C     0.21428   0.39829   0.48026   0.00000  Uiso   1.00
C263   C     0.23714   0.05269   0.45665   0.00000  Uiso   1.00
C264   C     0.28826   0.44737   0.51552   0.00000  Uiso   1.00
C265   C     0.26286   0.05269   0.54335   0.00000  Uiso   1.00
C266   C     0.21174   0.44737   0.48448   0.00000  Uiso   1.00
C267   C     0.24990   0.25000   0.40628   0.00000  Uiso   1.00
C268   C     0.25010   0.25000   0.59372   0.00000  Uiso   1.00
C269   C     0.25000   0.02668   0.50000   0.00000  Uiso   1.00
C270   C     0.25000   0.47338   0.50000   0.00000  Uiso   1.00
C271   C     0.24996   0.24999   0.35514   0.00000  Uiso   1.00
C272   C     0.25004   0.24999   0.64486   0.00000  Uiso   1.00
C273   C     0.04654   0.28881   0.48235   0.00000  Uiso   1.00
C274   C     0.45244   0.21038   0.48242   0.00000  Uiso   1.00
C275   C     0.45345   0.28871   0.51797   0.00000  Uiso   1.00
C276   C     0.04755   0.21028   0.51738   0.00000  Uiso   1.00
C277   C     0.09251   0.28908   0.48260   0.00000  Uiso   1.00
C278   C     0.40645   0.21045   0.48264   0.00000  Uiso   1.00
C279   C     0.40748   0.28897   0.51770   0.00000  Uiso   1.00
C280   C     0.09354   0.21035   0.51714   0.00000  Uiso   1.00
C281   C     0.11604   0.24983   0.49992   0.00000  Uiso   1.00
C282   C     0.38395   0.24983   0.50011   0.00000  Uiso   1.00
C283   C     0.02404   0.24950   0.49993   0.00000  Uiso   1.00
C284   C     0.47595   0.24949   0.50015   0.00000  Uiso   1.00
H285   H     0.02853   0.31902   0.46808   0.00000  Uiso   1.00
H286   H     0.46964   0.18014   0.46796   0.00000  Uiso   1.00
H287   H     0.47146   0.31883   0.53245   0.00000  Uiso   1.00
H288   H     0.03035   0.17996   0.53165   0.00000  Uiso   1.00
H289   H     0.10953   0.31959   0.46867   0.00000  Uiso   1.00
H290   H     0.38854   0.18010   0.46858   0.00000  Uiso   1.00
H291   H     0.39045   0.31940   0.53183   0.00000  Uiso   1.00
H292   H     0.11144   0.17991   0.53099   0.00000  Uiso   1.00
N293   N     0.25000   0.12624   0.50000   0.00000  Uiso   1.00
N294   N     0.25000   0.37377   0.50000   0.00000  Uiso   1.00
O295   O     0.18453   0.28974   0.50000   0.00000  Uiso   1.00
O296   O     0.31547   0.21026   0.50000   0.00000  Uiso   1.00
O297   O     0.31547   0.28974   0.50000   0.00000  Uiso   1.00
O298   O     0.18453   0.21026   0.50000   0.00000  Uiso   1.00
O299   O     0.25000   0.28973   0.42845   0.00000  Uiso   1.00
O300   O     0.25000   0.21027   0.57155   0.00000  Uiso   1.00
O301   O     0.25000   0.28973   0.57155   0.00000  Uiso   1.00
O302   O     0.25000   0.21027   0.42845   0.00000  Uiso   1.00
Zn303  Zn    0.25000   0.30307   0.50000   0.00000  Uiso   1.00
Zn304  Zn    0.25000   0.19693   0.50000   0.00000  Uiso   1.00
O305   O     0.21247   0.12425   0.41996   0.00000  Uiso   1.00
H306   H     0.19591   0.15074   0.43419   0.00000  Uiso   1.00
O307   O     0.32043   0.37590   0.54399   0.00000  Uiso   1.00
H308   H     0.30770   0.34871   0.56130   0.00000  Uiso   1.00
O309   O     0.28753   0.12425   0.58005   0.00000  Uiso   1.00
H310   H     0.30409   0.15074   0.56581   0.00000  Uiso   1.00
O311   O     0.17957   0.37590   0.45600   0.00000  Uiso   1.00
H312   H     0.19230   0.34871   0.43870   0.00000  Uiso   1.00
O313   O     0.22642   0.03178   0.41134   0.00000  Uiso   1.00
H314   H     0.24058   0.00058   0.41011   0.00000  Uiso   1.00
O315   O     0.32833   0.46829   0.52873   0.00000  Uiso   1.00
H316   H     0.32978   0.49949   0.51288   0.00000  Uiso   1.00
O317   O     0.27358   0.03178   0.58866   0.00000  Uiso   1.00
H318   H     0.25942   0.00058   0.58989   0.00000  Uiso   1.00
O319   O     0.17167   0.46829   0.47127   0.00000  Uiso   1.00
H320   H     0.17022   0.49949   0.48712   0.00000  Uiso   1.00
C321   C     0.66398   0.24998   0.49992   0.00000  Uiso   1.00
C322   C     0.83602   0.24998   0.50008   0.00000  Uiso   1.00
C323   C     0.73328   0.10176   0.45943   0.00000  Uiso   1.00
C324   C     0.78572   0.39829   0.51974   0.00000  Uiso   1.00
C325   C     0.76672   0.10176   0.54057   0.00000  Uiso   1.00
C326   C     0.71428   0.39829   0.48026   0.00000  Uiso   1.00
C327   C     0.73714   0.05269   0.45665   0.00000  Uiso   1.00
C328   C     0.78826   0.44737   0.51552   0.00000  Uiso   1.00
C329   C     0.76286   0.05269   0.54335   0.00000  Uiso   1.00
C330   C     0.71174   0.44737   0.48448   0.00000  Uiso   1.00
C331   C     0.74990   0.25000   0.40628   0.00000  Uiso   1.00
C332   C     0.75010   0.25000   0.59372   0.00000  Uiso   1.00
C333   C     0.75000   0.02668   0.50000   0.00000  Uiso   1.00
C334   C     0.75000   0.47338   0.50000   0.00000  Uiso   1.00
C335   C     0.74996   0.24999   0.35514   0.00000  Uiso   1.00
C336   C     0.75004   0.24999   0.64486   0.00000  Uiso   1.00
C337   C     0.54654   0.28881   0.48235   0.00000  Uiso   1.00
C338   C     0.95244   0.21038   0.48242   0.00000  Uiso   1.00
C339   C     0.95345   0.28871   0.51797   0.00000  Uiso   1.00
C340   C     0.54755   0.21028   0.51738   0.00000  Uiso   1.00
C341   C     0.59251   0.28908   0.48260   0.00000  Uiso   1.00
C342   C     0.90645   0.21045   0.48264   0.00000  Uiso   1.00
C343   C     0.90748   0.28897   0.51770   0.00000  Uiso   1.00
C344   C     0.59354   0.21035   0.51714   0.00000  Uiso   1.00
C345   C     0.61604   0.24983   0.49992   0.00000  Uiso   1.00
C346   C     0.88395   0.24983   0.50011   0.00000  Uiso   1.00
C347   C     0.52404   0.24950   0.49993   0.00000  Uiso   1.00
C348   C     0.97595   0.24949   0.50015   0.00000  Uiso   1.00
H349   H     0.52853   0.31902   0.46808   0.00000  Uiso   1.00
H350   H     0.96964   0.18014   0.46796   0.00000  Uiso   1.00
H351   H     0.97146   0.31883   0.53245   0.00000  Uiso   1.00
H352   H     0.53035   0.17996   0.53165   0.00000  Uiso   1.00
H353   H     0.60953   0.31959   0.46867   0.00000  Uiso   1.00
H354   H     0.88854   0.18010   0.46858   0.00000  Uiso   1.00
H355   H     0.89045   0.31940   0.53183   0.00000  Uiso   1.00
H356   H     0.61144   0.17991   0.53099   0.00000  Uiso   1.00
N357   N     0.75000   0.12624   0.50000   0.00000  Uiso   1.00
N358   N     0.75000   0.37377   0.50000   0.00000  Uiso   1.00
O359   O     0.68453   0.28974   0.50000   0.00000  Uiso   1.00
O360   O     0.81547   0.21026   0.50000   0.00000  Uiso   1.00
O361   O     0.81547   0.28974   0.50000   0.00000  Uiso   1.00
O362   O     0.68453   0.21026   0.50000   0.00000  Uiso   1.00
O363   O     0.75000   0.28973   0.42845   0.00000  Uiso   1.00
O364   O     0.75000   0.21027   0.57155   0.00000  Uiso   1.00
O365   O     0.75000   0.28973   0.57155   0.00000  Uiso   1.00
O366   O     0.75000   0.21027   0.42845   0.00000  Uiso   1.00
Zn367  Zn    0.75000   0.30307   0.50000   0.00000  Uiso   1.00
Zn368  Zn    0.75000   0.19693   0.50000   0.00000  Uiso   1.00
O369   O     0.71247   0.12425   0.41996   0.00000  Uiso   1.00
H370   H     0.69591   0.15074   0.43419   0.00000  Uiso   1.00
O371   O     0.82043   0.37590   0.54399   0.00000  Uiso   1.00
H372   H     0.80770   0.34871   0.56130   0.00000  Uiso   1.00
O373   O     0.78753   0.12425   0.58005   0.00000  Uiso   1.00
H374   H     0.80409   0.15074   0.56581   0.00000  Uiso   1.00
O375   O     0.67957   0.37590   0.45600   0.00000  Uiso   1.00
H376   H     0.69230   0.34871   0.43870   0.00000  Uiso   1.00
O377   O     0.72642   0.03178   0.41134   0.00000  Uiso   1.00
H378   H     0.74058   0.00058   0.41011   0.00000  Uiso   1.00
O379   O     0.82833   0.46829   0.52873   0.00000  Uiso   1.00
H380   H     0.82978   0.49949   0.51288   0.00000  Uiso   1.00
O381   O     0.77358   0.03178   0.58866   0.00000  Uiso   1.00
H382   H     0.75942   0.00058   0.58989   0.00000  Uiso   1.00
O383   O     0.67167   0.46829   0.47127   0.00000  Uiso   1.00
H384   H     0.67022   0.49949   0.48712   0.00000  Uiso   1.00
C385   C     0.16398   0.74998   0.49992   0.00000  Uiso   1.00
C386   C     0.33602   0.74998   0.50008   0.00000  Uiso   1.00
C387   C     0.23328   0.60176   0.45943   0.00000  Uiso   1.00
C388   C     0.28572   0.89829   0.51974   0.00000  Uiso   1.00
C389   C     0.26672   0.60176   0.54057   0.00000  Uiso   1.00
C390   C     0.21428   0.89829   0.48026   0.00000  Uiso   1.00
C391   C     0.23714   0.55269   0.45665   0.00000  Uiso   1.00
C392   C     0.28826   0.94737   0.51552   0.00000  Uiso   1.00
C393   C     0.26286   0.55269   0.54335   0.00000  Uiso   1.00
C394   C     0.21174   0.94737   0.48448   0.00000  Uiso   1.00
C395   C     0.24990   0.75000   0.40628   0.00000  Uiso   1.00
C396   C     0.25010   0.75000   0.59372   0.00000  Uiso   1.00
C397   C     0.25000   0.52668   0.50000   0.00000  Uiso   1.00
C398   C     0.25000   0.97338   0.50000   0.00000  Uiso   1.00
C399   C     0.24996   0.74999   0.35514   0.00000  Uiso   1.00
C400   C     0.25004   0.74999   0.64486   0.00000  Uiso   1.00
C401   C     0.04654   0.78881   0.48235   0.00000  Uiso   1.00
C402   C     0.45244   0.71038   0.48242   0.00000  Uiso   1.00
C403   C     0.45345   0.78871   0.51797   0.00000  Uiso   1.00
C404   C     0.04755   0.71028   0.51738   0.00000  Uiso   1.00
C405   C     0.09251   0.78908   0.48260   0.00000  Uiso   1.00
C406   C     0.40645   0.71045   0.48264   0.00000  Uiso   1.00
C407   C     0.40748   0.78897   0.51770   0.00000  Uiso   1.00
C408   C     0.09354   0.71035   0.51714   0.00000  Uiso   1.00
C409   C     0.11604   0.74983   0.49992   0.00000  Uiso   1.00
C410   C     0.38395   0.74983   0.50011   0.00000  Uiso   1.00
C411   C     0.02404   0.74950   0.49993   0.00000  Uiso   1.00
C412   C     0.47595   0.74949   0.50015   0.00000  Uiso   1.00
H413   H     0.02853   0.81902   0.46808   0.00000  Uiso   1.00
H414   H     0.46964   0.68014   0.46796   0.00000  Uiso   1.00
H415   H     0.47146   0.81883   0.53245   0.00000  Uiso   1.00
H416   H     0.03035   0.67996   0.53165   0.00000  Uiso   1.00
H417   H     0.10953   0.81959   0.46867   0.00000  Uiso   1.00
H418   H     0.38854   0.68010   0.46858   0.00000  Uiso   1.00
H419   H     0.39045   0.81940   0.53183   0.00000  Uiso   1.00
H420   H     0.11144   0.67991   0.53099   0.00000  Uiso   1.00
N421   N     0.25000   0.62624   0.50000   0.00000  Uiso   1.00
N422   N     0.25000   0.87377   0.50000   0.00000  Uiso   1.00
O423   O     0.18453   0.78974   0.50000   0.00000  Uiso   1.00
O424   O     0.31547   0.71026   0.50000   0.00000  Uiso   1.00
O425   O     0.31547   0.78974   0.50000   0.00000  Uiso   1.00
O426   O     0.18453   0.71026   0.50000   0.00000  Uiso   1.00
O427   O     0.25000   0.78973   0.42845   0.00000  Uiso   1.00
O428   O     0.25000   0.71027   0.57155   0.00000  Uiso   1.00
O429   O     0.25000   0.78973   0.57155   0.00000  Uiso   1.00
O430   O     0.25000   0.71027   0.42845   0.00000  Uiso   1.00
Zn431  Zn    0.25000   0.80307   0.50000   0.00000  Uiso   1.00
Zn432  Zn    0.25000   0.69693   0.50000   0.00000  Uiso   1.00
O433   O     0.21247   0.62425   0.41996   0.00000  Uiso   1.00
H434   H     0.19591   0.65074   0.43419   0.00000  Uiso   1.00
O435   O     0.32043   0.87590   0.54399   0.00000  Uiso   1.00
H436   H     0.30770   0.84871   0.56130   0.00000  Uiso   1.00
O437   O     0.28753   0.62425   0.58005   0.00000  Uiso   1.00
H438   H     0.30409   0.65074   0.56581   0.00000  Uiso   1.00
O439   O     0.17957   0.87590   0.45600   0.00000  Uiso   1.00
H440   H     0.19230   0.84871   0.43870   0.00000  Uiso   1.00
O441   O     0.22642   0.53178   0.41134   0.00000  Uiso   1.00
H442   H     0.24058   0.50058   0.41011   0.00000  Uiso   1.00
O443   O     0.32833   0.96829   0.52873   0.00000  Uiso   1.00
H444   H     0.32978   0.99949   0.51288   0.00000  Uiso   1.00
O445   O     0.27358   0.53178   0.58866   0.00000  Uiso   1.00
H446   H     0.25942   0.50058   0.58989   0.00000  Uiso   1.00
O447   O     0.17167   0.96829   0.47127   0.00000  Uiso   1.00
H448   H     0.17022   0.99949   0.48712   0.00000  Uiso   1.00
C449   C     0.66398   0.74998   0.49992   0.00000  Uiso   1.00
C450   C     0.83602   0.74998   0.50008   0.00000  Uiso   1.00
C451   C     0.73328   0.60176   0.45943   0.00000  Uiso   1.00
C452   C     0.78572   0.89829   0.51974   0.00000  Uiso   1.00
C453   C     0.76672   0.60176   0.54057   0.00000  Uiso   1.00
C454   C     0.71428   0.89829   0.48026   0.00000  Uiso   1.00
C455   C     0.73714   0.55269   0.45665   0.00000  Uiso   1.00
C456   C     0.78826   0.94737   0.51552   0.00000  Uiso   1.00
C457   C     0.76286   0.55269   0.54335   0.00000  Uiso   1.00
C458   C     0.71174   0.94737   0.48448   0.00000  Uiso   1.00
C459   C     0.74990   0.75000   0.40628   0.00000  Uiso   1.00
C460   C     0.75010   0.75000   0.59372   0.00000  Uiso   1.00
C461   C     0.75000   0.52668   0.50000   0.00000  Uiso   1.00
C462   C     0.75000   0.97338   0.50000   0.00000  Uiso   1.00
C463   C     0.74996   0.74999   0.35514   0.00000  Uiso   1.00
C464   C     0.75004   0.74999   0.64486   0.00000  Uiso   1.00
C465   C     0.54654   0.78881   0.48235   0.00000  Uiso   1.00
C466   C     0.95244   0.71038   0.48242   0.00000  Uiso   1.00
C467   C     0.95345   0.78871   0.51797   0.00000  Uiso   1.00
C468   C     0.54755   0.71028   0.51738   0.00000  Uiso   1.00
C469   C     0.59251   0.78908   0.48260   0.00000  Uiso   1.00
C470   C     0.90645   0.71045   0.48264   0.00000  Uiso   1.00
C471   C     0.90748   0.78897   0.51770   0.00000  Uiso   1.00
C472   C     0.59354   0.71035   0.51714   0.00000  Uiso   1.00
C473   C     0.61604   0.74983   0.49992   0.00000  Uiso   1.00
C474   C     0.88395   0.74983   0.50011   0.00000  Uiso   1.00
C475   C     0.52404   0.74950   0.49993   0.00000  Uiso   1.00
C476   C     0.97595   0.74949   0.50015   0.00000  Uiso   1.00
H477   H     0.52853   0.81902   0.46808   0.00000  Uiso   1.00
H478   H     0.96964   0.68014   0.46796   0.00000  Uiso   1.00
H479   H     0.97146   0.81883   0.53245   0.00000  Uiso   1.00
H480   H     0.53035   0.67996   0.53165   0.00000  Uiso   1.00
H481   H     0.60953   0.81959   0.46867   0.00000  Uiso   1.00
H482   H     0.88854   0.68010   0.46858   0.00000  Uiso   1.00
H483   H     0.89045   0.81940   0.53183   0.00000  Uiso   1.00
H484   H     0.61144   0.67991   0.53099   0.00000  Uiso   1.00
N485   N     0.75000   0.62624   0.50000   0.00000  Uiso   1.00
N486   N     0.75000   0.87377   0.50000   0.00000  Uiso   1.00
O487   O     0.68453   0.78974   0.50000   0.00000  Uiso   1.00
O488   O     0.81547   0.71026   0.50000   0.00000  Uiso   1.00
O489   O     0.81547   0.78974   0.50000   0.00000  Uiso   1.00
O490   O     0.68453   0.71026   0.50000   0.00000  Uiso   1.00
O491   O     0.75000   0.78973   0.42845   0.00000  Uiso   1.00
O492   O     0.75000   0.71027   0.57155   0.00000  Uiso   1.00
O493   O     0.75000   0.78973   0.57155   0.00000  Uiso   1.00
O494   O     0.75000   0.71027   0.42845   0.00000  Uiso   1.00
Zn495  Zn    0.75000   0.80307   0.50000   0.00000  Uiso   1.00
Zn496  Zn    0.75000   0.69693   0.50000   0.00000  Uiso   1.00
O497   O     0.71247   0.62425   0.41996   0.00000  Uiso   1.00
H498   H     0.69591   0.65074   0.43419   0.00000  Uiso   1.00
O499   O     0.82043   0.87590   0.54399   0.00000  Uiso   1.00
H500   H     0.80770   0.84871   0.56130   0.00000  Uiso   1.00
O501   O     0.78753   0.62425   0.58005   0.00000  Uiso   1.00
H502   H     0.80409   0.65074   0.56581   0.00000  Uiso   1.00
O503   O     0.67957   0.87590   0.45600   0.00000  Uiso   1.00
H504   H     0.69230   0.84871   0.43870   0.00000  Uiso   1.00
O505   O     0.72642   0.53178   0.41134   0.00000  Uiso   1.00
H506   H     0.74058   0.50058   0.41011   0.00000  Uiso   1.00
O507   O     0.82833   0.96829   0.52873   0.00000  Uiso   1.00
H508   H     0.82978   0.99949   0.51288   0.00000  Uiso   1.00
O509   O     0.77358   0.53178   0.58866   0.00000  Uiso   1.00
H510   H     0.75942   0.50058   0.58989   0.00000  Uiso   1.00
O511   O     0.67167   0.96829   0.47127   0.00000  Uiso   1.00
H512   H     0.67022   0.99949   0.48712   0.00000  Uiso   1.00
C513   C     0.16398   0.24998   0.83326   0.00000  Uiso   1.00
C514   C     0.33602   0.24998   0.83341   0.00000  Uiso   1.00
C515   C     0.23328   0.10176   0.79276   0.00000  Uiso   1.00
C516   C     0.28572   0.39829   0.85307   0.00000  Uiso   1.00
C517   C     0.26672   0.10176   0.87391   0.00000  Uiso   1.00
C518   C     0.21428   0.39829   0.81359   0.00000  Uiso   1.00
C519   C     0.23714   0.05269   0.78998   0.00000  Uiso   1.00
C520   C     0.28826   0.44737   0.84885   0.00000  Uiso   1.00
C521   C     0.26286   0.05269   0.87669   0.00000  Uiso   1.00
C522   C     0.21174   0.44737   0.81781   0.00000  Uiso   1.00
C523   C     0.24990   0.25000   0.73961   0.00000  Uiso   1.00
C524   C     0.25010   0.25000   0.92705   0.00000  Uiso   1.00
C525   C     0.25000   0.02668   0.83333   0.00000  Uiso   1.00
C526   C     0.25000   0.47338   0.83333   0.00000  Uiso   1.00
C527   C     0.24996   0.24999   0.68847   0.00000  Uiso   1.00
C528   C     0.25004   0.24999   0.97819   0.00000  Uiso   1.00
C529   C     0.04654   0.28881   0.81569   0.00000  Uiso   1.00
C530   C     0.45244   0.21038   0.81575   0.00000  Uiso   1.00
C531   C     0.45345   0.28871   0.85131   0.00000  Uiso   1.00
C532   C     0.04755   0.21028   0.85072   0.00000  Uiso   1.00
C533   C     0.09251   0.28908   0.81594   0.00000  Uiso   1.00
C534   C     0.40645   0.21045   0.81598   0.00000  Uiso   1.00
C535   C     0.40748   0.28897   0.85103   0.00000  Uiso   1.00
C536   C     0.09354   0.21035   0.85047   0.00000  Uiso   1.00
C537   C     0.11604   0.24983   0.83325   0.00000  Uiso   1.00
C538   C     0.38395   0.24983   0.83344   0.00000  Uiso   1.00
C539   C     0.02404   0.24950   0.83326   0.00000  Uiso   1.00
C540   C     0.47595   0.24949   0.83348   0.00000  Uiso   1.00
H541   H     0.02853   0.31902   0.80142   0.00000  Uiso   1.00
H542   H     0.46964   0.18014   0.80130   0.00000  Uiso   1.00
H543   H     0.47146   0.31883   0.86578   0.00000  Uiso   1.00
H544   H     0.03035   0.17996   0.86498   0.00000  Uiso   1.00
H545   H     0.10953   0.31959   0.80200   0.00000  Uiso   1.00
H546   H     0.38854   0.18010   0.80191   0.00000  Uiso   1.00
H547   H     0.39045   0.31940   0.86516   0.00000  Uiso   1.00
H548   H     0.11144   0.17991   0.86433   0.00000  Uiso   1.00
N549   N     0.25000   0.12624   0.83333   0.00000  Uiso   1.00
N550   N     0.25000   0.37377   0.83333   0.00000  Uiso   1.00
O551   O     0.18453   0.28974   0.83334   0.00000  Uiso   1.00
O552   O     0.31547   0.21026   0.83333   0.00000  Uiso   1.00
O553   O     0.31547   0.28974   0.83333   0.00000  Uiso   1.00
O554   O     0.18453   0.21026   0.83334   0.00000  Uiso   1.00
O555   O     0.25000   0.28973   0.76178   0.00000  Uiso   1.00
O556   O     0.25000   0.21027   0.90489   0.00000  Uiso   1.00
O557   O     0.25000   0.28973   0.90489   0.00000  Uiso   1.00
O558   O     0.25000   0.21027   0.76178   0.00000  Uiso   1.00
Zn559  Zn    0.25000   0.30307   0.83333   0.00000  Uiso   1.00
Zn560  Zn    0.25000   0.19693   0.83333   0.00000  Uiso   1.00
O561   O     0.21247   0.12425   0.75329   0.00000  Uiso   1.00
H562   H     0.19591   0.15074   0.76752   0.00000  Uiso   1.00
O563   O     0.32043   0.37590   0.87733   0.00000  Uiso   1.00
H564   H     0.30770   0.34871   0.89463   0.00000  Uiso   1.00
O565   O     0.28753   0.12425   0.91338   0.00000  Uiso   1.00
H566   H     0.30409   0.15074   0.89914   0.00000  Uiso   1.00
O567   O     0.17957   0.37590   0.78933   0.00000  Uiso   1.00
H568   H     0.19230   0.34871   0.77203   0.00000  Uiso   1.00
O569   O     0.22642   0.03178   0.74467   0.00000  Uiso   1.00
H570   H     0.24058   0.00058   0.74344   0.00000  Uiso   1.00
O571   O     0.32833   0.46829   0.86207   0.00000  Uiso   1.00
H572   H     0.32978   0.49949   0.84621   0.00000  Uiso   1.00
O573   O     0.27358   0.03178   0.92200   0.00000  Uiso   1.00
H574   H     0.25942   0.00058   0.92323   0.00000  Uiso   1.00
O575   O     0.17167   0.46829   0.80460   0.00000  Uiso   1.00
H576   H     0.17022   0.49949   0.82045   0.00000  Uiso   1.00
C577   C     0.66398   0.24998   0.83326   0.00000  Uiso   1.00
C578   C     0.83602   0.24998   0.83341   0.00000  Uiso   1.00
C579   C     0.73328   0.10176   0.79276   0.00000  Uiso   1.00
C580   C     0.78572   0.39829   0.85307   0.00000  Uiso   1.00
C581   C     0.76672   0.10176   0.87391   0.00000  Uiso   1.00
C582   C     0.71428   0.39829   0.81359   0.00000  Uiso   1.00
C583   C     0.73714   0.05269   0.78998   0.00000  Uiso   1.00
C584   C     0.78826   0.44737   0.84885   0.00000  Uiso   1.00
C585   C     0.76286   0.05269   0.87669   0.00000  Uiso   1.00
C586   C     0.71174   0.44737   0.81781   0.00000  Uiso   1.00
C587   C     0.74990   0.25000   0.73961   0.00000  Uiso   1.00
C588   C     0.75010   0.25000   0.92705   0.00000  Uiso   1.00
C589   C     0.75000   0.02668   0.83333   0.00000  Uiso   1.00
C590   C     0.75000   0.47338   0.83333   0.00000  Uiso   1.00
C591   C     0.74996   0.24999   0.68847   0.00000  Uiso   1.00
C592   C     0.75004   0.24999   0.97819   0.00000  Uiso   1.00
C593   C     0.54654   0.28881   0.81569   0.00000  Uiso   1.00
C594   C     0.95244   0.21038   0.81575   0.00000  Uiso   1.00
C595   C     0.95345   0.28871   0.85131   0.00000  Uiso   1.00
C596   C     0.54755   0.21028   0.85072   0.00000  Uiso   1.00
C597   C     0.59251   0.28908   0.81594   0.00000  Uiso   1.00
C598   C     0.90645   0.21045   0.81598   0.00000  Uiso   1.00
C599   C     0.90748   0.28897   0.85103   0.00000  Uiso   1.00
C600   C     0.59354   0.21035   0.85047   0.00000  Uiso   1.00
C601   C     0.61604   0.24983   0.83325   0.00000  Uiso   1.00
C602   C     0.88395   0.24983   0.83344   0.00000  Uiso   1.00
C603   C     0.52404   0.24950   0.83326   0.00000  Uiso   1.00
C604   C     0.97595   0.24949   0.83348   0.00000  Uiso   1.00
H605   H     0.52853   0.31902   0.80142   0.00000  Uiso   1.00
H606   H     0.96964   0.18014   0.80130   0.00000  Uiso   1.00
H607   H     0.97146   0.31883   0.86578   0.00000  Uiso   1.00
H608   H     0.53035   0.17996   0.86498   0.00000  Uiso   1.00
H609   H     0.60953   0.31959   0.80200   0.00000  Uiso   1.00
H610   H     0.88854   0.18010   0.80191   0.00000  Uiso   1.00
H611   H     0.89045   0.31940   0.86516   0.00000  Uiso   1.00
H612   H     0.61144   0.17991   0.86433   0.00000  Uiso   1.00
N613   N     0.75000   0.12624   0.83333   0.00000  Uiso   1.00
N614   N     0.75000   0.37377   0.83333   0.00000  Uiso   1.00
O615   O     0.68453   0.28974   0.83334   0.00000  Uiso   1.00
O616   O     0.81547   0.21026   0.83333   0.00000  Uiso   1.00
O617   O     0.81547   0.28974   0.83333   0.00000  Uiso   1.00
O618   O     0.68453   0.21026   0.83334   0.00000  Uiso   1.00
O619   O     0.75000   0.28973   0.76178   0.00000  Uiso   1.00
O620   O     0.75000   0.21027   0.90489   0.00000  Uiso   1.00
O621   O     0.75000   0.28973   0.90489   0.00000  Uiso   1.00
O622   O     0.75000   0.21027   0.76178   0.00000  Uiso   1.00
Zn623  Zn    0.75000   0.30307   0.83333   0.00000  Uiso   1.00
Zn624  Zn    0.75000   0.19693   0.83333   0.00000  Uiso   1.00
O625   O     0.71247   0.12425   0.75329   0.00000  Uiso   1.00
H626   H     0.69591   0.15074   0.76752   0.00000  Uiso   1.00
O627   O     0.82043   0.37590   0.87733   0.00000  Uiso   1.00
H628   H     0.80770   0.34871   0.89463   0.00000  Uiso   1.00
O629   O     0.78753   0.12425   0.91338   0.00000  Uiso   1.00
H630   H     0.80409   0.15074   0.89914   0.00000  Uiso   1.00
O631   O     0.67957   0.37590   0.78933   0.00000  Uiso   1.00
H632   H     0.69230   0.34871   0.77203   0.00000  Uiso   1.00
O633   O     0.72642   0.03178   0.74467   0.00000  Uiso   1.00
H634   H     0.74058   0.00058   0.74344   0.00000  Uiso   1.00
O635   O     0.82833   0.46829   0.86207   0.00000  Uiso   1.00
H636   H     0.82978   0.49949   0.84621   0.00000  Uiso   1.00
O637   O     0.77358   0.03178   0.92200   0.00000  Uiso   1.00
H638   H     0.75942   0.00058   0.92323   0.00000  Uiso   1.00
O639   O     0.67167   0.46829   0.80460   0.00000  Uiso   1.00
H640   H     0.67022   0.49949   0.82045   0.00000  Uiso   1.00
C641   C     0.16398   0.74998   0.83326   0.00000  Uiso   1.00
C642   C     0.33602   0.74998   0.83341   0.00000  Uiso   1.00
C643   C     0.23328   0.60176   0.79276   0.00000  Uiso   1.00
C644   C     0.28572   0.89829   0.85307   0.00000  Uiso   1.00
C645   C     0.26672   0.60176   0.87391   0.00000  Uiso   1.00
C646   C     0.21428   0.89829   0.81359   0.00000  Uiso   1.00
C647   C     0.23714   0.55269   0.78998   0.00000  Uiso   1.00
C648   C     0.28826   0.94737   0.84885   0.00000  Uiso   1.00
C649   C     0.26286   0.55269   0.87669   0.00000  Uiso   1.00
C650   C     0.21174   0.94737   0.81781   0.00000  Uiso   1.00
C651   C     0.24990   0.75000   0.73961   0.00000  Uiso   1.00
C652   C     0.25010   0.75000   0.92705   0.00000  Uiso   1.00
C653   C     0.25000   0.52668   0.83333   0.00000  Uiso   1.00
C654   C     0.25000   0.97338   0.83333   0.00000  Uiso   1.00
C655   C     0.24996   0.74999   0.68847   0.00000  Uiso   1.00
C656   C     0.25004   0.74999   0.97819   0.00000  Uiso   1.00
C657   C     0.04654   0.78881   0.81569   0.00000  Uiso   1.00
C658   C     0.45244   0.71038   0.81575   0.00000  Uiso   1.00
C659   C     0.45345   0.78871   0.85131   0.00000  Uiso   1.00
C660   C     0.04755   0.71028   0.85072   0.00000  Uiso   1.00
C661   C     0.09251   0.78908   0.81594   0.00000  Uiso   1.00
C662   C     0.40645   0.71045   0.81598   0.00000  Uiso   1.00
C663   C     0.40748   0.78897   0.85103   0.00000  Uiso   1.00
C664   C     0.09354   0.71035   0.85047   0.00000  Uiso   1.00
C665   C     0.11604   0.74983   0.83325   0.00000  Uiso   1.00
C666   C     0.38395   0.74983   0.83344   0.00000  Uiso   1.00
C667   C     0.02404   0.74950   0.83326   0.00000  Uiso   1.00
C668   C     0.47595   0.74949   0.83348   0.00000  Uiso   1.00
H669   H     0.02853   0.81902   0.80142   0.00000  Uiso   1.00
H670   H     0.46964   0.68014   0.80130   0.00000  Uiso   1.00
H671   H     0.47146   0.81883   0.86578   0.00000  Uiso   1.00
H672   H     0.03035   0.67996   0.86498   0.00000  Uiso   1.00
H673   H     0.10953   0.81959   0.80200   0.00000  Uiso   1.00
H674   H     0.38854   0.68010   0.80191   0.00000  Uiso   1.00
H675   H     0.39045   0.81940   0.86516   0.00000  Uiso   1.00
H676   H     0.11144   0.67991   0.86433   0.00000  Uiso   1.00
N677   N     0.25000   0.62624   0.83333   0.00000  Uiso   1.00
N678   N     0.25000   0.87377   0.83333   0.00000  Uiso   1.00
O679   O     0.18453   0.78974   0.83334   0.00000  Uiso   1.00
O680   O     0.31547   0.71026   0.83333   0.00000  Uiso   1.00
O681   O     0.31547   0.78974   0.83333   0.00000  Uiso   1.00
O682   O     0.18453   0.71026   0.83334   0.00000  Uiso   1.00
O683   O     0.25000   0.78973   0.76178   0.00000  Uiso   1.00
O684   O     0.25000   0.71027   0.90489   0.00000  Uiso   1.00
O685   O     0.25000   0.78973   0.90489   0.00000  Uiso   1.00
O686   O     0.25000   0.71027   0.76178   0.00000  Uiso   1.00
Zn687  Zn    0.25000   0.80307   0.83333   0.00000  Uiso   1.00
Zn688  Zn    0.25000   0.69693   0.83333   0.00000  Uiso   1.00
O689   O     0.21247   0.62425   0.75329   0.00000  Uiso   1.00
H690   H     0.19591   0.65074   0.76752   0.00000  Uiso   1.00
O691   O     0.32043   0.87590   0.87733   0.00000  Uiso   1.00
H692   H     0.30770   0.84871   0.89463   0.00000  Uiso   1.00
O693   O     0.28753   0.62425   0.91338   0.00000  Uiso   1.00
H694   H     0.30409   0.65074   0.89914   0.00000  Uiso   1.00
O695   O     0.17957   0.87590   0.78933   0.00000  Uiso   1.00
H696   H     0.19230   0.84871   0.77203   0.00000  Uiso   1.00
O697   O     0.22642   0.53178   0.74467   0.00000  Uiso   1.00
H698   H     0.24058   0.50058   0.74344   0.00000  Uiso   1.00
O699   O     0.32833   0.96829   0.86207   0.00000  Uiso   1.00
H700   H     0.32978   0.99949   0.84621   0.00000  Uiso   1.00
O701   O     0.27358   0.53178   0.92200   0.00000  Uiso   1.00
H702   H     0.25942   0.50058   0.92323   0.00000  Uiso   1.00
O703   O     0.17167   0.96829   0.80460   0.00000  Uiso   1.00
H704   H     0.17022   0.99949   0.82045   0.00000  Uiso   1.00
C705   C     0.66398   0.74998   0.83326   0.00000  Uiso   1.00
C706   C     0.83602   0.74998   0.83341   0.00000  Uiso   1.00
C707   C     0.73328   0.60176   0.79276   0.00000  Uiso   1.00
C708   C     0.78572   0.89829   0.85307   0.00000  Uiso   1.00
C709   C     0.76672   0.60176   0.87391   0.00000  Uiso   1.00
C710   C     0.71428   0.89829   0.81359   0.00000  Uiso   1.00
C711   C     0.73714   0.55269   0.78998   0.00000  Uiso   1.00
C712   C     0.78826   0.94737   0.84885   0.00000  Uiso   1.00
C713   C     0.76286   0.55269   0.87669   0.00000  Uiso   1.00
C714   C     0.71174   0.94737   0.81781   0.00000  Uiso   1.00
C715   C     0.74990   0.75000   0.73961   0.00000  Uiso   1.00
C716   C     0.75010   0.75000   0.92705   0.00000  Uiso   1.00
C717   C     0.75000   0.52668   0.83333   0.00000  Uiso   1.00
C718   C     0.75000   0.97338   0.83333   0.00000  Uiso   1.00
C719   C     0.74996   0.74999   0.68847   0.00000  Uiso   1.00
C720   C     0.75004   0.74999   0.97819   0.00000  Uiso   1.00
C721   C     0.54654   0.78881   0.81569   0.00000  Uiso   1.00
C722   C     0.95244   0.71038   0.81575   0.00000  Uiso   1.00
C723   C     0.95345   0.78871   0.85131   0.00000  Uiso   1.00
C724   C     0.54755   0.71028   0.85072   0.00000  Uiso   1.00
C725   C     0.59251   0.78908   0.81594   0.00000  Uiso   1.00
C726   C     0.90645   0.71045   0.81598   0.00000  Uiso   1.00
C727   C     0.90748   0.78897   0.85103   0.00000  Uiso   1.00
C728   C     0.59354   0.71035   0.85047   0.00000  Uiso   1.00
C729   C     0.61604   0.74983   0.83325   0.00000  Uiso   1.00
C730   C     0.88395   0.74983   0.83344   0.00000  Uiso   1.00
C731   C     0.52404   0.74950   0.83326   0.00000  Uiso   1.00
C732   C     0.97595   0.74949   0.83348   0.00000  Uiso   1.00
H733   H     0.52853   0.81902   0.80142   0.00000  Uiso   1.00
H734   H     0.96964   0.68014   0.80130   0.00000  Uiso   1.00
H735   H     0.97146   0.81883   0.86578   0.00000  Uiso   1.00
H736   H     0.53035   0.67996   0.86498   0.00000  Uiso   1.00
H737   H     0.60953   0.81959   0.80200   0.00000  Uiso   1.00
H738   H     0.88854   0.68010   0.80191   0.00000  Uiso   1.00
H739   H     0.89045   0.81940   0.86516   0.00000  Uiso   1.00
H740   H     0.61144   0.67991   0.86433   0.00000  Uiso   1.00
N741   N     0.75000   0.62624   0.83333   0.00000  Uiso   1.00
N742   N     0.75000   0.87377   0.83333   0.00000  Uiso   1.00
O743   O     0.68453   0.78974   0.83334   0.00000  Uiso   1.00
O744   O     0.81547   0.71026   0.83333   0.00000  Uiso   1.00
O745   O     0.81547   0.78974   0.83333   0.00000  Uiso   1.00
O746   O     0.68453   0.71026   0.83334   0.00000  Uiso   1.00
O747   O     0.75000   0.78973   0.76178   0.00000  Uiso   1.00
O748   O     0.75000   0.71027   0.90489   0.00000  Uiso   1.00
O749   O     0.75000   0.78973   0.90489   0.00000  Uiso   1.00
O750   O     0.75000   0.71027   0.76178   0.00000  Uiso   1.00
Zn751  Zn    0.75000   0.80307   0.83333   0.00000  Uiso   1.00
Zn752  Zn    0.75000   0.69693   0.83333   0.00000  Uiso   1.00
O753   O     0.71247   0.62425   0.75329   0.00000  Uiso   1.00
H754   H     0.69591   0.65074   0.76752   0.00000  Uiso   1.00
O755   O     0.82043   0.87590   0.87733   0.00000  Uiso   1.00
H756   H     0.80770   0.84871   0.89463   0.00000  Uiso   1.00
O757   O     0.78753   0.62425   0.91338   0.00000  Uiso   1.00
H758   H     0.80409   0.65074   0.89914   0.00000  Uiso   1.00
O759   O     0.67957   0.87590   0.78933   0.00000  Uiso   1.00
H760   H     0.69230   0.84871   0.77203   0.00000  Uiso   1.00
O761   O     0.72642   0.53178   0.74467   0.00000  Uiso   1.00
H762   H     0.74058   0.50058   0.74344   0.00000  Uiso   1.00
O763   O     0.82833   0.96829   0.86207   0.00000  Uiso   1.00
H764   H     0.82978   0.99949   0.84621   0.00000  Uiso   1.00
O765   O     0.77358   0.53178   0.92200   0.00000  Uiso   1.00
H766   H     0.75942   0.50058   0.92323   0.00000  Uiso   1.00
O767   O     0.67167   0.96829   0.80460   0.00000  Uiso   1.00
H768   H     0.67022   0.99949   0.82045   0.00000  Uiso   1.00
loop_
_geom_bond_atom_site_label_1
_geom_bond_atom_site_label_2
_geom_bond_distance
_geom_bond_site_symmetry_2
_ccdc_geom_bond_type
C1     C25     1.439   .     S
C1     O39     1.294   .     A
C1     O42     1.293   .     A
C2     O40     1.293   .     A
C2     C26     1.439   .     S
C2     O41     1.294   .     A
C3     C7      1.410   .     A
C3     O49     1.373   .     S
C3     N37     1.375   .     A
C4     C8      1.410   .     A
C4     N38     1.376   .     A
C4     O51     1.372   .     S
C5     N37     1.375   .     A
C5     O53     1.373   .     S
C5     C9      1.410   .     A
C6     C10     1.410   .     A
C6     N38     1.376   .     A
C6     O55     1.372   .     S
C7     C13     1.422   .     A
C7     O57     1.382   .     S
C8     C14     1.422   .     A
C8     O59     1.382   .     S
C9     O61     1.382   .     S
C9     C13     1.422   .     A
C10    O63     1.382   .     S
C10    C14     1.422   .     A
C11    O43     1.282   .     A
C11    C15     1.367   .     S
C11    O46     1.281   .     A
C12    C16     1.367   .     S
C12    O44     1.281   .     A
C12    O45     1.282   .     A
C13    C142    1.524   1_545 S
C14    C141    1.524   .     S
C15    C528    1.166   1_554 S
C16    C271    1.166   .     S
C17    H29     1.083   .     S
C17    C27     1.399   .     A
C17    C21     1.380   .     A
C18    H30     1.083   .     S
C18    C28     1.399   .     A
C18    C22     1.381   .     A
C19    C23     1.380   .     A
C19    H31     1.083   .     S
C19    C28     1.399   .     A
C20    C27     1.399   .     A
C20    H32     1.083   .     S
C20    C24     1.381   .     A
C21    H33     1.082   .     S
C21    C25     1.399   .     A
C22    H34     1.084   .     S
C22    C26     1.400   .     A
C23    H35     1.082   .     S
C23    C26     1.399   .     A
C24    H36     1.083   .     S
C24    C25     1.400   .     A
C27    C92     1.444   1_455 S
C28    C91     1.444   .     S
N37    Zn48    2.022   .     S
N38    Zn47    2.022   .     S
O39    Zn47    2.002   .     S
O40    Zn48    2.002   .     S
O41    Zn47    2.002   .     S
O42    Zn48    2.002   .     S
O43    Zn47    1.950   .     S
O44    Zn48    1.950   .     S
O45    Zn47    1.950   .     S
O46    Zn48    1.950   .     S
O49    H50     0.988   .     S
O51    H52     0.987   .     S
O53    H54     0.988   .     S
O55    H56     0.987   .     S
O57    H58     0.989   .     S
O59    H60     0.989   .     S
O61    H62     0.989   .     S
O63    H64     0.989   .     S
C65    C89     1.439   .     S
C65    O103    1.294   .     A
C65    O106    1.293   .     A
C66    O104    1.293   .     A
C66    C90     1.439   .     S
C66    O105    1.294   .     A
C67    C71     1.410   .     A
C67    O113    1.373   .     S
C67    N101    1.375   .     A
C68    C72     1.410   .     A
C68    N102    1.376   .     A
C68    O115    1.372   .     S
C69    N101    1.375   .     A
C69    O117    1.373   .     S
C69    C73     1.410   .     A
C70    C74     1.410   .     A
C70    N102    1.376   .     A
C70    O119    1.372   .     S
C71    C77     1.422   .     A
C71    O121    1.382   .     S
C72    C78     1.422   .     A
C72    O123    1.382   .     S
C73    O125    1.382   .     S
C73    C77     1.422   .     A
C74    O127    1.382   .     S
C74    C78     1.422   .     A
C75    O107    1.282   .     A
C75    C79     1.367   .     S
C75    O110    1.281   .     A
C76    C80     1.367   .     S
C76    O108    1.281   .     A
C76    O109    1.282   .     A
C77    C206    1.524   1_545 S
C78    C205    1.524   .     S
C79    C592    1.166   1_554 S
C80    C335    1.166   .     S
C81    H93     1.083   .     S
C81    C91     1.399   .     A
C81    C85     1.380   .     A
C82    H94     1.083   .     S
C82    C92     1.399   .     A
C82    C86     1.381   .     A
C83    C87     1.380   .     A
C83    H95     1.083   .     S
C83    C92     1.399   .     A
C84    C91     1.399   .     A
C84    H96     1.083   .     S
C84    C88     1.381   .     A
C85    H97     1.082   .     S
C85    C89     1.399   .     A
C86    H98     1.084   .     S
C86    C90     1.400   .     A
C87    H99     1.082   .     S
C87    C90     1.399   .     A
C88    H100    1.083   .     S
C88    C89     1.400   .     A
C92    C27     1.444   1_655 S
N101   Zn112   2.022   .     S
N102   Zn111   2.022   .     S
O103   Zn111   2.002   .     S
O104   Zn112   2.002   .     S
O105   Zn111   2.002   .     S
O106   Zn112   2.002   .     S
O107   Zn111   1.950   .     S
O108   Zn112   1.950   .     S
O109   Zn111   1.950   .     S
O110   Zn112   1.950   .     S
O113   H114    0.988   .     S
O115   H116    0.987   .     S
O117   H118    0.988   .     S
O119   H120    0.987   .     S
O121   H122    0.989   .     S
O123   H124    0.989   .     S
O125   H126    0.989   .     S
O127   H128    0.989   .     S
C129   C153    1.439   .     S
C129   O167    1.294   .     A
C129   O170    1.293   .     A
C130   O168    1.293   .     A
C130   C154    1.439   .     S
C130   O169    1.294   .     A
C131   C135    1.410   .     A
C131   O177    1.373   .     S
C131   N165    1.375   .     A
C132   C136    1.410   .     A
C132   N166    1.376   .     A
C132   O179    1.372   .     S
C133   N165    1.375   .     A
C133   O181    1.373   .     S
C133   C137    1.410   .     A
C134   C138    1.410   .     A
C134   N166    1.376   .     A
C134   O183    1.372   .     S
C135   C141    1.422   .     A
C135   O185    1.382   .     S
C136   C142    1.422   .     A
C136   O187    1.382   .     S
C137   O189    1.382   .     S
C137   C141    1.422   .     A
C138   O191    1.382   .     S
C138   C142    1.422   .     A
C139   O171    1.282   .     A
C139   C143    1.367   .     S
C139   O174    1.281   .     A
C140   C144    1.367   .     S
C140   O172    1.281   .     A
C140   O173    1.282   .     A
C142   C13     1.524   1_565 S
C143   C656    1.166   1_554 S
C144   C399    1.166   .     S
C145   H157    1.083   .     S
C145   C155    1.399   .     A
C145   C149    1.380   .     A
C146   H158    1.083   .     S
C146   C156    1.399   .     A
C146   C150    1.381   .     A
C147   C151    1.380   .     A
C147   H159    1.083   .     S
C147   C156    1.399   .     A
C148   C155    1.399   .     A
C148   H160    1.083   .     S
C148   C152    1.381   .     A
C149   H161    1.082   .     S
C149   C153    1.399   .     A
C150   H162    1.084   .     S
C150   C154    1.400   .     A
C151   H163    1.082   .     S
C151   C154    1.399   .     A
C152   H164    1.083   .     S
C152   C153    1.400   .     A
C155   C220    1.444   1_455 S
C156   C219    1.444   .     S
N165   Zn176   2.022   .     S
N166   Zn175   2.022   .     S
O167   Zn175   2.002   .     S
O168   Zn176   2.002   .     S
O169   Zn175   2.002   .     S
O170   Zn176   2.002   .     S
O171   Zn175   1.950   .     S
O172   Zn176   1.950   .     S
O173   Zn175   1.950   .     S
O174   Zn176   1.950   .     S
O177   H178    0.988   .     S
O179   H180    0.987   .     S
O181   H182    0.988   .     S
O183   H184    0.987   .     S
O185   H186    0.989   .     S
O187   H188    0.989   .     S
O189   H190    0.989   .     S
O191   H192    0.989   .     S
C193   C217    1.439   .     S
C193   O231    1.294   .     A
C193   O234    1.293   .     A
C194   O232    1.293   .     A
C194   C218    1.439   .     S
C194   O233    1.294   .     A
C195   C199    1.410   .     A
C195   O241    1.373   .     S
C195   N229    1.375   .     A
C196   C200    1.410   .     A
C196   N230    1.376   .     A
C196   O243    1.372   .     S
C197   N229    1.375   .     A
C197   O245    1.373   .     S
C197   C201    1.410   .     A
C198   C202    1.410   .     A
C198   N230    1.376   .     A
C198   O247    1.372   .     S
C199   C205    1.422   .     A
C199   O249    1.382   .     S
C200   C206    1.422   .     A
C200   O251    1.382   .     S
C201   O253    1.382   .     S
C201   C205    1.422   .     A
C202   O255    1.382   .     S
C202   C206    1.422   .     A
C203   O235    1.282   .     A
C203   C207    1.367   .     S
C203   O238    1.281   .     A
C204   C208    1.367   .     S
C204   O236    1.281   .     A
C204   O237    1.282   .     A
C206   C77     1.524   1_565 S
C207   C720    1.166   1_554 S
C208   C463    1.166   .     S
C209   H221    1.083   .     S
C209   C219    1.399   .     A
C209   C213    1.380   .     A
C210   H222    1.083   .     S
C210   C220    1.399   .     A
C210   C214    1.381   .     A
C211   C215    1.380   .     A
C211   H223    1.083   .     S
C211   C220    1.399   .     A
C212   C219    1.399   .     A
C212   H224    1.083   .     S
C212   C216    1.381   .     A
C213   H225    1.082   .     S
C213   C217    1.399   .     A
C214   H226    1.084   .     S
C214   C218    1.400   .     A
C215   H227    1.082   .     S
C215   C218    1.399   .     A
C216   H228    1.083   .     S
C216   C217    1.400   .     A
C220   C155    1.444   1_655 S
N229   Zn240   2.022   .     S
N230   Zn239   2.022   .     S
O231   Zn239   2.002   .     S
O232   Zn240   2.002   .     S
O233   Zn239   2.002   .     S
O234   Zn240   2.002   .     S
O235   Zn239   1.950   .     S
O236   Zn240   1.950   .     S
O237   Zn239   1.950   .     S
O238   Zn240   1.950   .     S
O241   H242    0.988   .     S
O243   H244    0.987   .     S
O245   H246    0.988   .     S
O247   H248    0.987   .     S
O249   H250    0.989   .     S
O251   H252    0.989   .     S
O253   H254    0.989   .     S
O255   H256    0.989   .     S
C257   C281    1.439   .     S
C257   O295    1.294   .     A
C257   O298    1.293   .     A
C258   O296    1.293   .     A
C258   C282    1.439   .     S
C258   O297    1.294   .     A
C259   C263    1.410   .     A
C259   O305    1.373   .     S
C259   N293    1.375   .     A
C260   C264    1.410   .     A
C260   N294    1.376   .     A
C260   O307    1.372   .     S
C261   N293    1.375   .     A
C261   O309    1.373   .     S
C261   C265    1.410   .     A
C262   C266    1.410   .     A
C262   N294    1.376   .     A
C262   O311    1.372   .     S
C263   C269    1.422   .     A
C263   O313    1.382   .     S
C264   C270    1.422   .     A
C264   O315    1.382   .     S
C265   O317    1.382   .     S
C265   C269    1.422   .     A
C266   O319    1.382   .     S
C266   C270    1.422   .     A
C267   O299    1.282   .     A
C267   C271    1.367   .     S
C267   O302    1.281   .     A
C268   C272    1.367   .     S
C268   O300    1.281   .     A
C268   O301    1.282   .     A
C269   C398    1.524   1_545 S
C270   C397    1.524   .     S
C272   C527    1.166   .     S
C273   H285    1.083   .     S
C273   C283    1.399   .     A
C273   C277    1.380   .     A
C274   H286    1.083   .     S
C274   C284    1.399   .     A
C274   C278    1.381   .     A
C275   C279    1.380   .     A
C275   H287    1.083   .     S
C275   C284    1.399   .     A
C276   C283    1.399   .     A
C276   H288    1.083   .     S
C276   C280    1.381   .     A
C277   H289    1.082   .     S
C277   C281    1.399   .     A
C278   H290    1.084   .     S
C278   C282    1.400   .     A
C279   H291    1.082   .     S
C279   C282    1.399   .     A
C280   H292    1.083   .     S
C280   C281    1.400   .     A
C283   C348    1.444   1_455 S
C284   C347    1.444   .     S
N293   Zn304   2.022   .     S
N294   Zn303   2.022   .     S
O295   Zn303   2.002   .     S
O296   Zn304   2.002   .     S
O297   Zn303   2.002   .     S
O298   Zn304   2.002   .     S
O299   Zn303   1.950   .     S
O300   Zn304   1.950   .     S
O301   Zn303   1.950   .     S
O302   Zn304   1.950   .     S
O305   H306    0.988   .     S
O307   H308    0.987   .     S
O309   H310    0.988   .     S
O311   H312    0.987   .     S
O313   H314    0.989   .     S
O315   H316    0.989   .     S
O317   H318    0.989   .     S
O319   H320    0.989   .     S
C321   C345    1.439   .     S
C321   O359    1.294   .     A
C321   O362    1.293   .     A
C322   O360    1.293   .     A
C322   C346    1.439   .     S
C322   O361    1.294   .     A
C323   C327    1.410   .     A
C323   O369    1.373   .     S
C323   N357    1.375   .     A
C324   C328    1.410   .     A
C324   N358    1.376   .     A
C324   O371    1.372   .     S
C325   N357    1.375   .     A
C325   O373    1.373   .     S
C325   C329    1.410   .     A
C326   C330    1.410   .     A
C326   N358    1.376   .     A
C326   O375    1.372   .     S
C327   C333    1.422   .     A
C327   O377    1.382   .     S
C328   C334    1.422   .     A
C328   O379    1.382   .     S
C329   O381    1.382   .     S
C329   C333    1.422   .     A
C330   O383    1.382   .     S
C330   C334    1.422   .     A
C331   O363    1.282   .     A
C331   C335    1.367   .     S
C331   O366    1.281   .     A
C332   C336    1.367   .     S
C332   O364    1.281   .     A
C332   O365    1.282   .     A
C333   C462    1.524   1_545 S
C334   C461    1.524   .     S
C336   C591    1.166   .     S
C337   H349    1.083   .     S
C337   C347    1.399   .     A
C337   C341    1.380   .     A
C338   H350    1.083   .     S
C338   C348    1.399   .     A
C338   C342    1.381   .     A
C339   C343    1.380   .     A
C339   H351    1.083   .     S
C339   C348    1.399   .     A
C340   C347    1.399   .     A
C340   H352    1.083   .     S
C340   C344    1.381   .     A
C341   H353    1.082   .     S
C341   C345    1.399   .     A
C342   H354    1.084   .     S
C342   C346    1.400   .     A
C343   H355    1.082   .     S
C343   C346    1.399   .     A
C344   H356    1.083   .     S
C344   C345    1.400   .     A
C348   C283    1.444   1_655 S
N357   Zn368   2.022   .     S
N358   Zn367   2.022   .     S
O359   Zn367   2.002   .     S
O360   Zn368   2.002   .     S
O361   Zn367   2.002   .     S
O362   Zn368   2.002   .     S
O363   Zn367   1.950   .     S
O364   Zn368   1.950   .     S
O365   Zn367   1.950   .     S
O366   Zn368   1.950   .     S
O369   H370    0.988   .     S
O371   H372    0.987   .     S
O373   H374    0.988   .     S
O375   H376    0.987   .     S
O377   H378    0.989   .     S
O379   H380    0.989   .     S
O381   H382    0.989   .     S
O383   H384    0.989   .     S
C385   C409    1.439   .     S
C385   O423    1.294   .     A
C385   O426    1.293   .     A
C386   O424    1.293   .     A
C386   C410    1.439   .     S
C386   O425    1.294   .     A
C387   C391    1.410   .     A
C387   O433    1.373   .     S
C387   N421    1.375   .     A
C388   C392    1.410   .     A
C388   N422    1.376   .     A
C388   O435    1.372   .     S
C389   N421    1.375   .     A
C389   O437    1.373   .     S
C389   C393    1.410   .     A
C390   C394    1.410   .     A
C390   N422    1.376   .     A
C390   O439    1.372   .     S
C391   C397    1.422   .     A
C391   O441    1.382   .     S
C392   C398    1.422   .     A
C392   O443    1.382   .     S
C393   O445    1.382   .     S
C393   C397    1.422   .     A
C394   O447    1.382   .     S
C394   C398    1.422   .     A
C395   O427    1.282   .     A
C395   C399    1.367   .     S
C395   O430    1.281   .     A
C396   C400    1.367   .     S
C396   O428    1.281   .     A
C396   O429    1.282   .     A
C398   C269    1.524   1_565 S
C400   C655    1.166   .     S
C401   H413    1.083   .     S
C401   C411    1.399   .     A
C401   C405    1.380   .     A
C402   H414    1.083   .     S
C402   C412    1.399   .     A
C402   C406    1.381   .     A
C403   C407    1.380   .     A
C403   H415    1.083   .     S
C403   C412    1.399   .     A
C404   C411    1.399   .     A
C404   H416    1.083   .     S
C404   C408    1.381   .     A
C405   H417    1.082   .     S
C405   C409    1.399   .     A
C406   H418    1.084   .     S
C406   C410    1.400   .     A
C407   H419    1.082   .     S
C407   C410    1.399   .     A
C408   H420    1.083   .     S
C408   C409    1.400   .     A
C411   C476    1.444   1_455 S
C412   C475    1.444   .     S
N421   Zn432   2.022   .     S
N422   Zn431   2.022   .     S
O423   Zn431   2.002   .     S
O424   Zn432   2.002   .     S
O425   Zn431   2.002   .     S
O426   Zn432   2.002   .     S
O427   Zn431   1.950   .     S
O428   Zn432   1.950   .     S
O429   Zn431   1.950   .     S
O430   Zn432   1.950   .     S
O433   H434    0.988   .     S
O435   H436    0.987   .     S
O437   H438    0.988   .     S
O439   H440    0.987   .     S
O441   H442    0.989   .     S
O443   H444    0.989   .     S
O445   H446    0.989   .     S
O447   H448    0.989   .     S
C449   C473    1.439   .     S
C449   O487    1.294   .     A
C449   O490    1.293   .     A
C450   O488    1.293   .     A
C450   C474    1.439   .     S
C450   O489    1.294   .     A
C451   C455    1.410   .     A
C451   O497    1.373   .     S
C451   N485    1.375   .     A
C452   C456    1.410   .     A
C452   N486    1.376   .     A
C452   O499    1.372   .     S
C453   N485    1.375   .     A
C453   O501    1.373   .     S
C453   C457    1.410   .     A
C454   C458    1.410   .     A
C454   N486    1.376   .     A
C454   O503    1.372   .     S
C455   C461    1.422   .     A
C455   O505    1.382   .     S
C456   C462    1.422   .     A
C456   O507    1.382   .     S
C457   O509    1.382   .     S
C457   C461    1.422   .     A
C458   O511    1.382   .     S
C458   C462    1.422   .     A
C459   O491    1.282   .     A
C459   C463    1.367   .     S
C459   O494    1.281   .     A
C460   C464    1.367   .     S
C460   O492    1.281   .     A
C460   O493    1.282   .     A
C462   C333    1.524   1_565 S
C464   C719    1.166   .     S
C465   H477    1.083   .     S
C465   C475    1.399   .     A
C465   C469    1.380   .     A
C466   H478    1.083   .     S
C466   C476    1.399   .     A
C466   C470    1.381   .     A
C467   C471    1.380   .     A
C467   H479    1.083   .     S
C467   C476    1.399   .     A
C468   C475    1.399   .     A
C468   H480    1.083   .     S
C468   C472    1.381   .     A
C469   H481    1.082   .     S
C469   C473    1.399   .     A
C470   H482    1.084   .     S
C470   C474    1.400   .     A
C471   H483    1.082   .     S
C471   C474    1.399   .     A
C472   H484    1.083   .     S
C472   C473    1.400   .     A
C476   C411    1.444   1_655 S
N485   Zn496   2.022   .     S
N486   Zn495   2.022   .     S
O487   Zn495   2.002   .     S
O488   Zn496   2.002   .     S
O489   Zn495   2.002   .     S
O490   Zn496   2.002   .     S
O491   Zn495   1.950   .     S
O492   Zn496   1.950   .     S
O493   Zn495   1.950   .     S
O494   Zn496   1.950   .     S
O497   H498    0.988   .     S
O499   H500    0.987   .     S
O501   H502    0.988   .     S
O503   H504    0.987   .     S
O505   H506    0.989   .     S
O507   H508    0.989   .     S
O509   H510    0.989   .     S
O511   H512    0.989   .     S
C513   C537    1.439   .     S
C513   O551    1.294   .     A
C513   O554    1.293   .     A
C514   O552    1.293   .     A
C514   C538    1.439   .     S
C514   O553    1.294   .     A
C515   C519    1.410   .     A
C515   O561    1.373   .     S
C515   N549    1.375   .     A
C516   C520    1.410   .     A
C516   N550    1.376   .     A
C516   O563    1.372   .     S
C517   N549    1.375   .     A
C517   O565    1.373   .     S
C517   C521    1.410   .     A
C518   C522    1.410   .     A
C518   N550    1.376   .     A
C518   O567    1.372   .     S
C519   C525    1.422   .     A
C519   O569    1.382   .     S
C520   C526    1.422   .     A
C520   O571    1.382   .     S
C521   O573    1.382   .     S
C521   C525    1.422   .     A
C522   O575    1.382   .     S
C522   C526    1.422   .     A
C523   O555    1.282   .     A
C523   C527    1.367   .     S
C523   O558    1.281   .     A
C524   C528    1.367   .     S
C524   O556    1.281   .     A
C524   O557    1.282   .     A
C525   C654    1.524   1_545 S
C526   C653    1.524   .     S
C528   C15     1.166   1_556 S
C529   H541    1.083   .     S
C529   C539    1.399   .     A
C529   C533    1.380   .     A
C530   H542    1.083   .     S
C530   C540    1.399   .     A
C530   C534    1.381   .     A
C531   C535    1.380   .     A
C531   H543    1.083   .     S
C531   C540    1.399   .     A
C532   C539    1.399   .     A
C532   H544    1.083   .     S
C532   C536    1.381   .     A
C533   H545    1.082   .     S
C533   C537    1.399   .     A
C534   H546    1.084   .     S
C534   C538    1.400   .     A
C535   H547    1.082   .     S
C535   C538    1.399   .     A
C536   H548    1.083   .     S
C536   C537    1.400   .     A
C539   C604    1.444   1_455 S
C540   C603    1.444   .     S
N549   Zn560   2.022   .     S
N550   Zn559   2.022   .     S
O551   Zn559   2.002   .     S
O552   Zn560   2.002   .     S
O553   Zn559   2.002   .     S
O554   Zn560   2.002   .     S
O555   Zn559   1.950   .     S
O556   Zn560   1.950   .     S
O557   Zn559   1.950   .     S
O558   Zn560   1.950   .     S
O561   H562    0.988   .     S
O563   H564    0.987   .     S
O565   H566    0.988   .     S
O567   H568    0.987   .     S
O569   H570    0.989   .     S
O571   H572    0.989   .     S
O573   H574    0.989   .     S
O575   H576    0.989   .     S
C577   C601    1.439   .     S
C577   O615    1.294   .     A
C577   O618    1.293   .     A
C578   O616    1.293   .     A
C578   C602    1.439   .     S
C578   O617    1.294   .     A
C579   C583    1.410   .     A
C579   O625    1.373   .     S
C579   N613    1.375   .     A
C580   C584    1.410   .     A
C580   N614    1.376   .     A
C580   O627    1.372   .     S
C581   N613    1.375   .     A
C581   O629    1.373   .     S
C581   C585    1.410   .     A
C582   C586    1.410   .     A
C582   N614    1.376   .     A
C582   O631    1.372   .     S
C583   C589    1.422   .     A
C583   O633    1.382   .     S
C584   C590    1.422   .     A
C584   O635    1.382   .     S
C585   O637    1.382   .     S
C585   C589    1.422   .     A
C586   O639    1.382   .     S
C586   C590    1.422   .     A
C587   O619    1.282   .     A
C587   C591    1.367   .     S
C587   O622    1.281   .     A
C588   C592    1.367   .     S
C588   O620    1.281   .     A
C588   O621    1.282   .     A
C589   C718    1.524   1_545 S
C590   C717    1.524   .     S
C592   C79     1.166   1_556 S
C593   H605    1.083   .     S
C593   C603    1.399   .     A
C593   C597    1.380   .     A
C594   H606    1.083   .     S
C594   C604    1.399   .     A
C594   C598    1.381   .     A
C595   C599    1.380   .     A
C595   H607    1.083   .     S
C595   C604    1.399   .     A
C596   C603    1.399   .     A
C596   H608    1.083   .     S
C596   C600    1.381   .     A
C597   H609    1.082   .     S
C597   C601    1.399   .     A
C598   H610    1.084   .     S
C598   C602    1.400   .     A
C599   H611    1.082   .     S
C599   C602    1.399   .     A
C600   H612    1.083   .     S
C600   C601    1.400   .     A
C604   C539    1.444   1_655 S
N613   Zn624   2.022   .     S
N614   Zn623   2.022   .     S
O615   Zn623   2.002   .     S
O616   Zn624   2.002   .     S
O617   Zn623   2.002   .     S
O618   Zn624   2.002   .     S
O619   Zn623   1.950   .     S
O620   Zn624   1.950   .     S
O621   Zn623   1.950   .     S
O622   Zn624   1.950   .     S
O625   H626    0.988   .     S
O627   H628    0.987   .     S
O629   H630    0.988   .     S
O631   H632    0.987   .     S
O633   H634    0.989   .     S
O635   H636    0.989   .     S
O637   H638    0.989   .     S
O639   H640    0.989   .     S
C641   C665    1.439   .     S
C641   O679    1.294   .     A
C641   O682    1.293   .     A
C642   O680    1.293   .     A
C642   C666    1.439   .     S
C642   O681    1.294   .     A
C643   C647    1.410   .     A
C643   O689    1.373   .     S
C643   N677    1.375   .     A
C644   C648    1.410   .     A
C644   N678    1.376   .     A
C644   O691    1.372   .     S
C645   N677    1.375   .     A
C645   O693    1.373   .     S
C645   C649    1.410   .     A
C646   C650    1.410   .     A
C646   N678    1.376   .     A
C646   O695    1.372   .     S
C647   C653    1.422   .     A
C647   O697    1.382   .     S
C648   C654    1.422   .     A
C648   O699    1.382   .     S
C649   O701    1.382   .     S
C649   C653    1.422   .     A
C650   O703    1.382   .     S
C650   C654    1.422   .     A
C651   O683    1.282   .     A
C651   C655    1.367   .     S
C651   O686    1.281   .     A
C652   C656    1.367   .     S
C652   O684    1.281   .     A
C652   O685    1.282   .     A
C654   C525    1.524   1_565 S
C656   C143    1.166   1_556 S
C657   H669    1.083   .     S
C657   C667    1.399   .     A
C657   C661    1.380   .     A
C658   H670    1.083   .     S
C658   C668    1.399   .     A
C658   C662    1.381   .     A
C659   C663    1.380   .     A
C659   H671    1.083   .     S
C659   C668    1.399   .     A
C660   C667    1.399   .     A
C660   H672    1.083   .     S
C660   C664    1.381   .     A
C661   H673    1.082   .     S
C661   C665    1.399   .     A
C662   H674    1.084   .     S
C662   C666    1.400   .     A
C663   H675    1.082   .     S
C663   C666    1.399   .     A
C664   H676    1.083   .     S
C664   C665    1.400   .     A
C667   C732    1.444   1_455 S
C668   C731    1.444   .     S
N677   Zn688   2.022   .     S
N678   Zn687   2.022   .     S
O679   Zn687   2.002   .     S
O680   Zn688   2.002   .     S
O681   Zn687   2.002   .     S
O682   Zn688   2.002   .     S
O683   Zn687   1.950   .     S
O684   Zn688   1.950   .     S
O685   Zn687   1.950   .     S
O686   Zn688   1.950   .     S
O689   H690    0.988   .     S
O691   H692    0.987   .     S
O693   H694    0.988   .     S
O695   H696    0.987   .     S
O697   H698    0.989   .     S
O699   H700    0.989   .     S
O701   H702    0.989   .     S
O703   H704    0.989   .     S
C705   C729    1.439   .     S
C705   O743    1.294   .     A
C705   O746    1.293   .     A
C706   O744    1.293   .     A
C706   C730    1.439   .     S
C706   O745    1.294   .     A
C707   C711    1.410   .     A
C707   O753    1.373   .     S
C707   N741    1.375   .     A
C708   C712    1.410   .     A
C708   N742    1.376   .     A
C708   O755    1.372   .     S
C709   N741    1.375   .     A
C709   O757    1.373   .     S
C709   C713    1.410   .     A
C710   C714    1.410   .     A
C710   N742    1.376   .     A
C710   O759    1.372   .     S
C711   C717    1.422   .     A
C711   O761    1.382   .     S
C712   C718    1.422   .     A
C712   O763    1.382   .     S
C713   O765    1.382   .     S
C713   C717    1.422   .     A
C714   O767    1.382   .     S
C714   C718    1.422   .     A
C715   O747    1.282   .     A
C715   C719    1.367   .     S
C715   O750    1.281   .     A
C716   C720    1.367   .     S
C716   O748    1.281   .     A
C716   O749    1.282   .     A
C718   C589    1.524   1_565 S
C720   C207    1.166   1_556 S
C721   H733    1.083   .     S
C721   C731    1.399   .     A
C721   C725    1.380   .     A
C722   H734    1.083   .     S
C722   C732    1.399   .     A
C722   C726    1.381   .     A
C723   C727    1.380   .     A
C723   H735    1.083   .     S
C723   C732    1.399   .     A
C724   C731    1.399   .     A
C724   H736    1.083   .     S
C724   C728    1.381   .     A
C725   H737    1.082   .     S
C725   C729    1.399   .     A
C726   H738    1.084   .     S
C726   C730    1.400   .     A
C727   H739    1.082   .     S
C727   C730    1.399   .     A
C728   H740    1.083   .     S
C728   C729    1.400   .     A
C732   C667    1.444   1_655 S
N741   Zn752   2.022   .     S
N742   Zn751   2.022   .     S
O743   Zn751   2.002   .     S
O744   Zn752   2.002   .     S
O745   Zn751   2.002   .     S
O746   Zn752   2.002   .     S
O747   Zn751   1.950   .     S
O748   Zn752   1.950   .     S
O749   Zn751   1.950   .     S
O750   Zn752   1.950   .     S
O753   H754    0.988   .     S
O755   H756    0.987   .     S
O757   H758    0.988   .     S
O759   H760    0.987   .     S
O761   H762    0.989   .     S
O763   H764    0.989   .     S
O765   H766    0.989   .     S
O767   H768    0.989   .     S
