data_str_m3_o10_o17_pcu_sym.146
_audit_creation_date              2020-01-03
_audit_creation_method            'Materials Studio'
_symmetry_space_group_name_H-M    'P1'
_symmetry_Int_Tables_number       1
_symmetry_cell_setting            triclinic
loop_
_symmetry_equiv_pos_as_xyz
  x,y,z
_cell_length_a                    23.4990
_cell_length_b                    25.6059
_cell_length_c                    29.7392
_cell_angle_alpha                 92.1030
_cell_angle_beta                  85.1258
_cell_angle_gamma                 93.4355
loop_
_atom_site_label
_atom_site_type_symbol
_atom_site_fract_x
_atom_site_fract_y
_atom_site_fract_z
_atom_site_U_iso_or_equiv
_atom_site_adp_type
_atom_site_occupancy
C1     C     0.18178   0.26480   0.24889   0.00000  Uiso   1.00
C2     C     0.19064   0.21006   0.40606   0.00000  Uiso   1.00
C3     C     0.16563   0.16689   0.11621   0.00000  Uiso   1.00
C4     C     0.16770   0.16644   0.38379   0.00000  Uiso   1.00
C5     C     0.18878   0.21050   0.09369   0.00000  Uiso   1.00
C6     C     0.14455   0.12283   0.40631   0.00000  Uiso   1.00
C7     C     0.18910   0.21156   0.04693   0.00000  Uiso   1.00
C8     C     0.14423   0.12177   0.45307   0.00000  Uiso   1.00
C9     C     0.16637   0.16675   0.02345   0.00000  Uiso   1.00
C10    C     0.16696   0.16659   0.47655   0.00000  Uiso   1.00
C11    C     0.14311   0.12207   0.04711   0.00000  Uiso   1.00
C12    C     0.15155   0.06854   0.25111   0.00000  Uiso   1.00
C13    C     0.19022   0.21126   0.45289   0.00000  Uiso   1.00
C14    C     0.21161   0.25616   0.02344   0.00000  Uiso   1.00
C15    C     0.12172   0.07718   0.47656   0.00000  Uiso   1.00
C16    C     0.23394   0.30243   0.04743   0.00000  Uiso   1.00
C17    C     0.09940   0.03090   0.45258   0.00000  Uiso   1.00
C18    C     0.23523   0.30207   0.45226   0.00000  Uiso   1.00
C19    C     0.09810   0.03126   0.04774   0.00000  Uiso   1.00
C20    C     0.00861   0.11594   0.20836   0.00000  Uiso   1.00
C21    C     0.32472   0.21739   0.29164   0.00000  Uiso   1.00
C22    C     0.21219   0.25600   0.47630   0.00000  Uiso   1.00
C23    C     0.12114   0.07733   0.02370   0.00000  Uiso   1.00
C24    C     0.18976   0.31929   0.24822   0.00000  Uiso   1.00
C25    C     0.14357   0.01404   0.25178   0.00000  Uiso   1.00
C26    C     0.16702   0.16675   0.33628   0.00000  Uiso   1.00
C27    C     0.16632   0.16658   0.16372   0.00000  Uiso   1.00
C28    C     0.14269   0.12328   0.09394   0.00000  Uiso   1.00
H29    H     0.20608   0.24341   0.11322   0.00000  Uiso   1.00
H30    H     0.12726   0.08992   0.38678   0.00000  Uiso   1.00
H31    H     0.12554   0.09026   0.11361   0.00000  Uiso   1.00
H32    H     0.20779   0.24307   0.38639   0.00000  Uiso   1.00
H33    H     0.23349   0.00277   0.24480   0.00000  Uiso   1.00
H34    H     0.09984   0.33056   0.25520   0.00000  Uiso   1.00
N35    N     0.31678   0.15265   0.23783   0.00000  Uiso   1.00
N36    N     0.01656   0.18068   0.26217   0.00000  Uiso   1.00
N37    N     0.25165   0.00599   0.06646   0.00000  Uiso   1.00
N38    N     0.08168   0.32735   0.43354   0.00000  Uiso   1.00
N39    N     0.25354   0.00545   0.43319   0.00000  Uiso   1.00
N40    N     0.07979   0.32788   0.06681   0.00000  Uiso   1.00
N41    N     0.02893   0.08506   0.18356   0.00000  Uiso   1.00
N42    N     0.30440   0.24828   0.31644   0.00000  Uiso   1.00
O43    O     0.12975   0.24619   0.25299   0.00000  Uiso   1.00
O44    O     0.20358   0.08714   0.24702   0.00000  Uiso   1.00
O45    O     0.22613   0.23721   0.24519   0.00000  Uiso   1.00
O46    O     0.10720   0.09613   0.25482   0.00000  Uiso   1.00
O47    O     0.11847   0.17117   0.31998   0.00000  Uiso   1.00
O48    O     0.21486   0.16216   0.18003   0.00000  Uiso   1.00
O49    O     0.21485   0.16219   0.31218   0.00000  Uiso   1.00
O50    O     0.11848   0.17115   0.18783   0.00000  Uiso   1.00
Zn51   Zn    0.10231   0.17266   0.25521   0.00000  Uiso   1.00
Zn52   Zn    0.23102   0.16067   0.24479   0.00000  Uiso   1.00
C53    C     0.51511   0.26480   0.24889   0.00000  Uiso   1.00
C54    C     0.52397   0.21006   0.40606   0.00000  Uiso   1.00
C55    C     0.49897   0.16689   0.11621   0.00000  Uiso   1.00
C56    C     0.50103   0.16644   0.38379   0.00000  Uiso   1.00
C57    C     0.52212   0.21050   0.09369   0.00000  Uiso   1.00
C58    C     0.47788   0.12283   0.40631   0.00000  Uiso   1.00
C59    C     0.52244   0.21156   0.04693   0.00000  Uiso   1.00
C60    C     0.47756   0.12177   0.45307   0.00000  Uiso   1.00
C61    C     0.49970   0.16675   0.02345   0.00000  Uiso   1.00
C62    C     0.50030   0.16659   0.47655   0.00000  Uiso   1.00
C63    C     0.47644   0.12207   0.04711   0.00000  Uiso   1.00
C64    C     0.48489   0.06854   0.25111   0.00000  Uiso   1.00
C65    C     0.52356   0.21126   0.45289   0.00000  Uiso   1.00
C66    C     0.54495   0.25616   0.02344   0.00000  Uiso   1.00
C67    C     0.45505   0.07718   0.47656   0.00000  Uiso   1.00
C68    C     0.56727   0.30243   0.04743   0.00000  Uiso   1.00
C69    C     0.43273   0.03090   0.45258   0.00000  Uiso   1.00
C70    C     0.56857   0.30207   0.45226   0.00000  Uiso   1.00
C71    C     0.43144   0.03126   0.04774   0.00000  Uiso   1.00
C72    C     0.34194   0.11594   0.20836   0.00000  Uiso   1.00
C73    C     0.65806   0.21739   0.29164   0.00000  Uiso   1.00
C74    C     0.54552   0.25600   0.47630   0.00000  Uiso   1.00
C75    C     0.45448   0.07733   0.02370   0.00000  Uiso   1.00
C76    C     0.52310   0.31929   0.24822   0.00000  Uiso   1.00
C77    C     0.47690   0.01404   0.25178   0.00000  Uiso   1.00
C78    C     0.50035   0.16675   0.33628   0.00000  Uiso   1.00
C79    C     0.49965   0.16658   0.16372   0.00000  Uiso   1.00
C80    C     0.47603   0.12328   0.09394   0.00000  Uiso   1.00
H81    H     0.53941   0.24341   0.11322   0.00000  Uiso   1.00
H82    H     0.46059   0.08992   0.38678   0.00000  Uiso   1.00
H83    H     0.45887   0.09026   0.11361   0.00000  Uiso   1.00
H84    H     0.54113   0.24307   0.38639   0.00000  Uiso   1.00
H85    H     0.56683   0.00277   0.24480   0.00000  Uiso   1.00
H86    H     0.43317   0.33056   0.25520   0.00000  Uiso   1.00
N87    N     0.65011   0.15265   0.23783   0.00000  Uiso   1.00
N88    N     0.34989   0.18068   0.26217   0.00000  Uiso   1.00
N89    N     0.58498   0.00599   0.06646   0.00000  Uiso   1.00
N90    N     0.41502   0.32735   0.43354   0.00000  Uiso   1.00
N91    N     0.58687   0.00545   0.43319   0.00000  Uiso   1.00
N92    N     0.41313   0.32788   0.06681   0.00000  Uiso   1.00
N93    N     0.36227   0.08506   0.18356   0.00000  Uiso   1.00
N94    N     0.63773   0.24828   0.31644   0.00000  Uiso   1.00
O95    O     0.46308   0.24619   0.25299   0.00000  Uiso   1.00
O96    O     0.53692   0.08714   0.24702   0.00000  Uiso   1.00
O97    O     0.55946   0.23721   0.24519   0.00000  Uiso   1.00
O98    O     0.44054   0.09613   0.25482   0.00000  Uiso   1.00
O99    O     0.45181   0.17117   0.31998   0.00000  Uiso   1.00
O100   O     0.54819   0.16216   0.18003   0.00000  Uiso   1.00
O101   O     0.54819   0.16219   0.31218   0.00000  Uiso   1.00
O102   O     0.45181   0.17115   0.18783   0.00000  Uiso   1.00
Zn103  Zn    0.43565   0.17266   0.25521   0.00000  Uiso   1.00
Zn104  Zn    0.56435   0.16067   0.24479   0.00000  Uiso   1.00
C105   C     0.84845   0.26480   0.24889   0.00000  Uiso   1.00
C106   C     0.85731   0.21006   0.40606   0.00000  Uiso   1.00
C107   C     0.83230   0.16689   0.11621   0.00000  Uiso   1.00
C108   C     0.83437   0.16644   0.38379   0.00000  Uiso   1.00
C109   C     0.85545   0.21050   0.09369   0.00000  Uiso   1.00
C110   C     0.81122   0.12283   0.40631   0.00000  Uiso   1.00
C111   C     0.85577   0.21156   0.04693   0.00000  Uiso   1.00
C112   C     0.81090   0.12177   0.45307   0.00000  Uiso   1.00
C113   C     0.83304   0.16675   0.02345   0.00000  Uiso   1.00
C114   C     0.83363   0.16659   0.47655   0.00000  Uiso   1.00
C115   C     0.80978   0.12207   0.04711   0.00000  Uiso   1.00
C116   C     0.81822   0.06854   0.25111   0.00000  Uiso   1.00
C117   C     0.85689   0.21126   0.45289   0.00000  Uiso   1.00
C118   C     0.87828   0.25616   0.02344   0.00000  Uiso   1.00
C119   C     0.78839   0.07718   0.47656   0.00000  Uiso   1.00
C120   C     0.90061   0.30243   0.04743   0.00000  Uiso   1.00
C121   C     0.76606   0.03090   0.45258   0.00000  Uiso   1.00
C122   C     0.90190   0.30207   0.45226   0.00000  Uiso   1.00
C123   C     0.76477   0.03126   0.04774   0.00000  Uiso   1.00
C124   C     0.67528   0.11594   0.20836   0.00000  Uiso   1.00
C125   C     0.99139   0.21739   0.29164   0.00000  Uiso   1.00
C126   C     0.87886   0.25600   0.47630   0.00000  Uiso   1.00
C127   C     0.78781   0.07733   0.02370   0.00000  Uiso   1.00
C128   C     0.85643   0.31929   0.24822   0.00000  Uiso   1.00
C129   C     0.81024   0.01404   0.25178   0.00000  Uiso   1.00
C130   C     0.83369   0.16675   0.33628   0.00000  Uiso   1.00
C131   C     0.83298   0.16658   0.16372   0.00000  Uiso   1.00
C132   C     0.80936   0.12328   0.09394   0.00000  Uiso   1.00
H133   H     0.87274   0.24341   0.11322   0.00000  Uiso   1.00
H134   H     0.79392   0.08992   0.38678   0.00000  Uiso   1.00
H135   H     0.79221   0.09026   0.11361   0.00000  Uiso   1.00
H136   H     0.87446   0.24307   0.38639   0.00000  Uiso   1.00
H137   H     0.90016   0.00277   0.24480   0.00000  Uiso   1.00
H138   H     0.76651   0.33056   0.25520   0.00000  Uiso   1.00
N139   N     0.98344   0.15265   0.23783   0.00000  Uiso   1.00
N140   N     0.68322   0.18068   0.26217   0.00000  Uiso   1.00
N141   N     0.91832   0.00599   0.06646   0.00000  Uiso   1.00
N142   N     0.74835   0.32735   0.43354   0.00000  Uiso   1.00
N143   N     0.92021   0.00545   0.43319   0.00000  Uiso   1.00
N144   N     0.74646   0.32788   0.06681   0.00000  Uiso   1.00
N145   N     0.69560   0.08506   0.18356   0.00000  Uiso   1.00
N146   N     0.97107   0.24828   0.31644   0.00000  Uiso   1.00
O147   O     0.79642   0.24619   0.25299   0.00000  Uiso   1.00
O148   O     0.87025   0.08714   0.24702   0.00000  Uiso   1.00
O149   O     0.89280   0.23721   0.24519   0.00000  Uiso   1.00
O150   O     0.77387   0.09613   0.25482   0.00000  Uiso   1.00
O151   O     0.78514   0.17117   0.31998   0.00000  Uiso   1.00
O152   O     0.88153   0.16216   0.18003   0.00000  Uiso   1.00
O153   O     0.88152   0.16219   0.31218   0.00000  Uiso   1.00
O154   O     0.78515   0.17115   0.18783   0.00000  Uiso   1.00
Zn155  Zn    0.76898   0.17266   0.25521   0.00000  Uiso   1.00
Zn156  Zn    0.89769   0.16067   0.24479   0.00000  Uiso   1.00
C157   C     0.18178   0.59813   0.24889   0.00000  Uiso   1.00
C158   C     0.19064   0.54339   0.40606   0.00000  Uiso   1.00
C159   C     0.16563   0.50023   0.11621   0.00000  Uiso   1.00
C160   C     0.16770   0.49977   0.38379   0.00000  Uiso   1.00
C161   C     0.18878   0.54383   0.09369   0.00000  Uiso   1.00
C162   C     0.14455   0.45617   0.40631   0.00000  Uiso   1.00
C163   C     0.18910   0.54489   0.04693   0.00000  Uiso   1.00
C164   C     0.14423   0.45511   0.45307   0.00000  Uiso   1.00
C165   C     0.16637   0.50008   0.02345   0.00000  Uiso   1.00
C166   C     0.16696   0.49992   0.47655   0.00000  Uiso   1.00
C167   C     0.14311   0.45540   0.04711   0.00000  Uiso   1.00
C168   C     0.15155   0.40187   0.25111   0.00000  Uiso   1.00
C169   C     0.19022   0.54460   0.45289   0.00000  Uiso   1.00
C170   C     0.21161   0.58949   0.02344   0.00000  Uiso   1.00
C171   C     0.12172   0.41051   0.47656   0.00000  Uiso   1.00
C172   C     0.23394   0.63577   0.04743   0.00000  Uiso   1.00
C173   C     0.09940   0.36424   0.45258   0.00000  Uiso   1.00
C174   C     0.23523   0.63540   0.45226   0.00000  Uiso   1.00
C175   C     0.09810   0.36460   0.04774   0.00000  Uiso   1.00
C176   C     0.00861   0.44927   0.20836   0.00000  Uiso   1.00
C177   C     0.32472   0.55073   0.29164   0.00000  Uiso   1.00
C178   C     0.21219   0.58934   0.47630   0.00000  Uiso   1.00
C179   C     0.12114   0.41066   0.02370   0.00000  Uiso   1.00
C180   C     0.18976   0.65263   0.24822   0.00000  Uiso   1.00
C181   C     0.14357   0.34737   0.25178   0.00000  Uiso   1.00
C182   C     0.16702   0.50009   0.33628   0.00000  Uiso   1.00
C183   C     0.16632   0.49991   0.16372   0.00000  Uiso   1.00
C184   C     0.14269   0.45661   0.09394   0.00000  Uiso   1.00
H185   H     0.20608   0.57674   0.11322   0.00000  Uiso   1.00
H186   H     0.12726   0.42326   0.38678   0.00000  Uiso   1.00
H187   H     0.12554   0.42359   0.11361   0.00000  Uiso   1.00
H188   H     0.20779   0.57641   0.38639   0.00000  Uiso   1.00
H189   H     0.23349   0.33611   0.24480   0.00000  Uiso   1.00
H190   H     0.09984   0.66389   0.25520   0.00000  Uiso   1.00
N191   N     0.31678   0.48598   0.23783   0.00000  Uiso   1.00
N192   N     0.01656   0.51402   0.26217   0.00000  Uiso   1.00
N193   N     0.25165   0.33932   0.06646   0.00000  Uiso   1.00
N194   N     0.08168   0.66068   0.43354   0.00000  Uiso   1.00
N195   N     0.25354   0.33879   0.43319   0.00000  Uiso   1.00
N196   N     0.07979   0.66121   0.06681   0.00000  Uiso   1.00
N197   N     0.02893   0.41839   0.18356   0.00000  Uiso   1.00
N198   N     0.30440   0.58161   0.31644   0.00000  Uiso   1.00
O199   O     0.12975   0.57952   0.25299   0.00000  Uiso   1.00
O200   O     0.20358   0.42048   0.24702   0.00000  Uiso   1.00
O201   O     0.22613   0.57054   0.24519   0.00000  Uiso   1.00
O202   O     0.10720   0.42946   0.25482   0.00000  Uiso   1.00
O203   O     0.11847   0.50450   0.31998   0.00000  Uiso   1.00
O204   O     0.21486   0.49550   0.18003   0.00000  Uiso   1.00
O205   O     0.21485   0.49552   0.31218   0.00000  Uiso   1.00
O206   O     0.11848   0.50448   0.18783   0.00000  Uiso   1.00
Zn207  Zn    0.10231   0.50600   0.25521   0.00000  Uiso   1.00
Zn208  Zn    0.23102   0.49400   0.24479   0.00000  Uiso   1.00
C209   C     0.51511   0.59813   0.24889   0.00000  Uiso   1.00
C210   C     0.52397   0.54339   0.40606   0.00000  Uiso   1.00
C211   C     0.49897   0.50023   0.11621   0.00000  Uiso   1.00
C212   C     0.50103   0.49977   0.38379   0.00000  Uiso   1.00
C213   C     0.52212   0.54383   0.09369   0.00000  Uiso   1.00
C214   C     0.47788   0.45617   0.40631   0.00000  Uiso   1.00
C215   C     0.52244   0.54489   0.04693   0.00000  Uiso   1.00
C216   C     0.47756   0.45511   0.45307   0.00000  Uiso   1.00
C217   C     0.49970   0.50008   0.02345   0.00000  Uiso   1.00
C218   C     0.50030   0.49992   0.47655   0.00000  Uiso   1.00
C219   C     0.47644   0.45540   0.04711   0.00000  Uiso   1.00
C220   C     0.48489   0.40187   0.25111   0.00000  Uiso   1.00
C221   C     0.52356   0.54460   0.45289   0.00000  Uiso   1.00
C222   C     0.54495   0.58949   0.02344   0.00000  Uiso   1.00
C223   C     0.45505   0.41051   0.47656   0.00000  Uiso   1.00
C224   C     0.56727   0.63577   0.04743   0.00000  Uiso   1.00
C225   C     0.43273   0.36424   0.45258   0.00000  Uiso   1.00
C226   C     0.56857   0.63540   0.45226   0.00000  Uiso   1.00
C227   C     0.43144   0.36460   0.04774   0.00000  Uiso   1.00
C228   C     0.34194   0.44927   0.20836   0.00000  Uiso   1.00
C229   C     0.65806   0.55073   0.29164   0.00000  Uiso   1.00
C230   C     0.54552   0.58934   0.47630   0.00000  Uiso   1.00
C231   C     0.45448   0.41066   0.02370   0.00000  Uiso   1.00
C232   C     0.52310   0.65263   0.24822   0.00000  Uiso   1.00
C233   C     0.47690   0.34737   0.25178   0.00000  Uiso   1.00
C234   C     0.50035   0.50009   0.33628   0.00000  Uiso   1.00
C235   C     0.49965   0.49991   0.16372   0.00000  Uiso   1.00
C236   C     0.47603   0.45661   0.09394   0.00000  Uiso   1.00
H237   H     0.53941   0.57674   0.11322   0.00000  Uiso   1.00
H238   H     0.46059   0.42326   0.38678   0.00000  Uiso   1.00
H239   H     0.45887   0.42359   0.11361   0.00000  Uiso   1.00
H240   H     0.54113   0.57641   0.38639   0.00000  Uiso   1.00
H241   H     0.56683   0.33611   0.24480   0.00000  Uiso   1.00
H242   H     0.43317   0.66389   0.25520   0.00000  Uiso   1.00
N243   N     0.65011   0.48598   0.23783   0.00000  Uiso   1.00
N244   N     0.34989   0.51402   0.26217   0.00000  Uiso   1.00
N245   N     0.58498   0.33932   0.06646   0.00000  Uiso   1.00
N246   N     0.41502   0.66068   0.43354   0.00000  Uiso   1.00
N247   N     0.58687   0.33879   0.43319   0.00000  Uiso   1.00
N248   N     0.41313   0.66121   0.06681   0.00000  Uiso   1.00
N249   N     0.36227   0.41839   0.18356   0.00000  Uiso   1.00
N250   N     0.63773   0.58161   0.31644   0.00000  Uiso   1.00
O251   O     0.46308   0.57952   0.25299   0.00000  Uiso   1.00
O252   O     0.53692   0.42048   0.24702   0.00000  Uiso   1.00
O253   O     0.55946   0.57054   0.24519   0.00000  Uiso   1.00
O254   O     0.44054   0.42946   0.25482   0.00000  Uiso   1.00
O255   O     0.45181   0.50450   0.31998   0.00000  Uiso   1.00
O256   O     0.54819   0.49550   0.18003   0.00000  Uiso   1.00
O257   O     0.54819   0.49552   0.31218   0.00000  Uiso   1.00
O258   O     0.45181   0.50448   0.18783   0.00000  Uiso   1.00
Zn259  Zn    0.43565   0.50600   0.25521   0.00000  Uiso   1.00
Zn260  Zn    0.56435   0.49400   0.24479   0.00000  Uiso   1.00
C261   C     0.84845   0.59813   0.24889   0.00000  Uiso   1.00
C262   C     0.85731   0.54339   0.40606   0.00000  Uiso   1.00
C263   C     0.83230   0.50023   0.11621   0.00000  Uiso   1.00
C264   C     0.83437   0.49977   0.38379   0.00000  Uiso   1.00
C265   C     0.85545   0.54383   0.09369   0.00000  Uiso   1.00
C266   C     0.81122   0.45617   0.40631   0.00000  Uiso   1.00
C267   C     0.85577   0.54489   0.04693   0.00000  Uiso   1.00
C268   C     0.81090   0.45511   0.45307   0.00000  Uiso   1.00
C269   C     0.83304   0.50008   0.02345   0.00000  Uiso   1.00
C270   C     0.83363   0.49992   0.47655   0.00000  Uiso   1.00
C271   C     0.80978   0.45540   0.04711   0.00000  Uiso   1.00
C272   C     0.81822   0.40187   0.25111   0.00000  Uiso   1.00
C273   C     0.85689   0.54460   0.45289   0.00000  Uiso   1.00
C274   C     0.87828   0.58949   0.02344   0.00000  Uiso   1.00
C275   C     0.78839   0.41051   0.47656   0.00000  Uiso   1.00
C276   C     0.90061   0.63577   0.04743   0.00000  Uiso   1.00
C277   C     0.76606   0.36424   0.45258   0.00000  Uiso   1.00
C278   C     0.90190   0.63540   0.45226   0.00000  Uiso   1.00
C279   C     0.76477   0.36460   0.04774   0.00000  Uiso   1.00
C280   C     0.67528   0.44927   0.20836   0.00000  Uiso   1.00
C281   C     0.99139   0.55073   0.29164   0.00000  Uiso   1.00
C282   C     0.87886   0.58934   0.47630   0.00000  Uiso   1.00
C283   C     0.78781   0.41066   0.02370   0.00000  Uiso   1.00
C284   C     0.85643   0.65263   0.24822   0.00000  Uiso   1.00
C285   C     0.81024   0.34737   0.25178   0.00000  Uiso   1.00
C286   C     0.83369   0.50009   0.33628   0.00000  Uiso   1.00
C287   C     0.83298   0.49991   0.16372   0.00000  Uiso   1.00
C288   C     0.80936   0.45661   0.09394   0.00000  Uiso   1.00
H289   H     0.87274   0.57674   0.11322   0.00000  Uiso   1.00
H290   H     0.79392   0.42326   0.38678   0.00000  Uiso   1.00
H291   H     0.79221   0.42359   0.11361   0.00000  Uiso   1.00
H292   H     0.87446   0.57641   0.38639   0.00000  Uiso   1.00
H293   H     0.90016   0.33611   0.24480   0.00000  Uiso   1.00
H294   H     0.76651   0.66389   0.25520   0.00000  Uiso   1.00
N295   N     0.98344   0.48598   0.23783   0.00000  Uiso   1.00
N296   N     0.68322   0.51402   0.26217   0.00000  Uiso   1.00
N297   N     0.91832   0.33932   0.06646   0.00000  Uiso   1.00
N298   N     0.74835   0.66068   0.43354   0.00000  Uiso   1.00
N299   N     0.92021   0.33879   0.43319   0.00000  Uiso   1.00
N300   N     0.74646   0.66121   0.06681   0.00000  Uiso   1.00
N301   N     0.69560   0.41839   0.18356   0.00000  Uiso   1.00
N302   N     0.97107   0.58161   0.31644   0.00000  Uiso   1.00
O303   O     0.79642   0.57952   0.25299   0.00000  Uiso   1.00
O304   O     0.87025   0.42048   0.24702   0.00000  Uiso   1.00
O305   O     0.89280   0.57054   0.24519   0.00000  Uiso   1.00
O306   O     0.77387   0.42946   0.25482   0.00000  Uiso   1.00
O307   O     0.78514   0.50450   0.31998   0.00000  Uiso   1.00
O308   O     0.88153   0.49550   0.18003   0.00000  Uiso   1.00
O309   O     0.88152   0.49552   0.31218   0.00000  Uiso   1.00
O310   O     0.78515   0.50448   0.18783   0.00000  Uiso   1.00
Zn311  Zn    0.76898   0.50600   0.25521   0.00000  Uiso   1.00
Zn312  Zn    0.89769   0.49400   0.24479   0.00000  Uiso   1.00
C313   C     0.18178   0.93146   0.24889   0.00000  Uiso   1.00
C314   C     0.19064   0.87672   0.40606   0.00000  Uiso   1.00
C315   C     0.16563   0.83356   0.11621   0.00000  Uiso   1.00
C316   C     0.16770   0.83311   0.38379   0.00000  Uiso   1.00
C317   C     0.18878   0.87717   0.09369   0.00000  Uiso   1.00
C318   C     0.14455   0.78950   0.40631   0.00000  Uiso   1.00
C319   C     0.18910   0.87823   0.04693   0.00000  Uiso   1.00
C320   C     0.14423   0.78844   0.45307   0.00000  Uiso   1.00
C321   C     0.16637   0.83341   0.02345   0.00000  Uiso   1.00
C322   C     0.16696   0.83325   0.47655   0.00000  Uiso   1.00
C323   C     0.14311   0.78874   0.04711   0.00000  Uiso   1.00
C324   C     0.15155   0.73520   0.25111   0.00000  Uiso   1.00
C325   C     0.19022   0.87793   0.45289   0.00000  Uiso   1.00
C326   C     0.21161   0.92282   0.02344   0.00000  Uiso   1.00
C327   C     0.12172   0.74384   0.47656   0.00000  Uiso   1.00
C328   C     0.23394   0.96910   0.04743   0.00000  Uiso   1.00
C329   C     0.09940   0.69757   0.45258   0.00000  Uiso   1.00
C330   C     0.23523   0.96874   0.45226   0.00000  Uiso   1.00
C331   C     0.09810   0.69793   0.04774   0.00000  Uiso   1.00
C332   C     0.00861   0.78261   0.20836   0.00000  Uiso   1.00
C333   C     0.32472   0.88406   0.29164   0.00000  Uiso   1.00
C334   C     0.21219   0.92267   0.47630   0.00000  Uiso   1.00
C335   C     0.12114   0.74400   0.02370   0.00000  Uiso   1.00
C336   C     0.18976   0.98596   0.24822   0.00000  Uiso   1.00
C337   C     0.14357   0.68071   0.25178   0.00000  Uiso   1.00
C338   C     0.16702   0.83342   0.33628   0.00000  Uiso   1.00
C339   C     0.16632   0.83325   0.16372   0.00000  Uiso   1.00
C340   C     0.14269   0.78994   0.09394   0.00000  Uiso   1.00
H341   H     0.20608   0.91008   0.11322   0.00000  Uiso   1.00
H342   H     0.12726   0.75659   0.38678   0.00000  Uiso   1.00
H343   H     0.12554   0.75693   0.11361   0.00000  Uiso   1.00
H344   H     0.20779   0.90974   0.38639   0.00000  Uiso   1.00
H345   H     0.23349   0.66944   0.24480   0.00000  Uiso   1.00
H346   H     0.09984   0.99723   0.25520   0.00000  Uiso   1.00
N347   N     0.31678   0.81932   0.23783   0.00000  Uiso   1.00
N348   N     0.01656   0.84735   0.26217   0.00000  Uiso   1.00
N349   N     0.25165   0.67265   0.06646   0.00000  Uiso   1.00
N350   N     0.08168   0.99401   0.43354   0.00000  Uiso   1.00
N351   N     0.25354   0.67212   0.43319   0.00000  Uiso   1.00
N352   N     0.07979   0.99455   0.06681   0.00000  Uiso   1.00
N353   N     0.02893   0.75172   0.18356   0.00000  Uiso   1.00
N354   N     0.30440   0.91494   0.31644   0.00000  Uiso   1.00
O355   O     0.12975   0.91286   0.25299   0.00000  Uiso   1.00
O356   O     0.20358   0.75381   0.24702   0.00000  Uiso   1.00
O357   O     0.22613   0.90387   0.24519   0.00000  Uiso   1.00
O358   O     0.10720   0.76279   0.25482   0.00000  Uiso   1.00
O359   O     0.11847   0.83784   0.31998   0.00000  Uiso   1.00
O360   O     0.21486   0.82883   0.18003   0.00000  Uiso   1.00
O361   O     0.21485   0.82885   0.31218   0.00000  Uiso   1.00
O362   O     0.11848   0.83781   0.18783   0.00000  Uiso   1.00
Zn363  Zn    0.10231   0.83933   0.25521   0.00000  Uiso   1.00
Zn364  Zn    0.23102   0.82734   0.24479   0.00000  Uiso   1.00
C365   C     0.51511   0.93146   0.24889   0.00000  Uiso   1.00
C366   C     0.52397   0.87672   0.40606   0.00000  Uiso   1.00
C367   C     0.49897   0.83356   0.11621   0.00000  Uiso   1.00
C368   C     0.50103   0.83311   0.38379   0.00000  Uiso   1.00
C369   C     0.52212   0.87717   0.09369   0.00000  Uiso   1.00
C370   C     0.47788   0.78950   0.40631   0.00000  Uiso   1.00
C371   C     0.52244   0.87823   0.04693   0.00000  Uiso   1.00
C372   C     0.47756   0.78844   0.45307   0.00000  Uiso   1.00
C373   C     0.49970   0.83341   0.02345   0.00000  Uiso   1.00
C374   C     0.50030   0.83325   0.47655   0.00000  Uiso   1.00
C375   C     0.47644   0.78874   0.04711   0.00000  Uiso   1.00
C376   C     0.48489   0.73520   0.25111   0.00000  Uiso   1.00
C377   C     0.52356   0.87793   0.45289   0.00000  Uiso   1.00
C378   C     0.54495   0.92282   0.02344   0.00000  Uiso   1.00
C379   C     0.45505   0.74384   0.47656   0.00000  Uiso   1.00
C380   C     0.56727   0.96910   0.04743   0.00000  Uiso   1.00
C381   C     0.43273   0.69757   0.45258   0.00000  Uiso   1.00
C382   C     0.56857   0.96874   0.45226   0.00000  Uiso   1.00
C383   C     0.43144   0.69793   0.04774   0.00000  Uiso   1.00
C384   C     0.34194   0.78261   0.20836   0.00000  Uiso   1.00
C385   C     0.65806   0.88406   0.29164   0.00000  Uiso   1.00
C386   C     0.54552   0.92267   0.47630   0.00000  Uiso   1.00
C387   C     0.45448   0.74400   0.02370   0.00000  Uiso   1.00
C388   C     0.52310   0.98596   0.24822   0.00000  Uiso   1.00
C389   C     0.47690   0.68071   0.25178   0.00000  Uiso   1.00
C390   C     0.50035   0.83342   0.33628   0.00000  Uiso   1.00
C391   C     0.49965   0.83325   0.16372   0.00000  Uiso   1.00
C392   C     0.47603   0.78994   0.09394   0.00000  Uiso   1.00
H393   H     0.53941   0.91008   0.11322   0.00000  Uiso   1.00
H394   H     0.46059   0.75659   0.38678   0.00000  Uiso   1.00
H395   H     0.45887   0.75693   0.11361   0.00000  Uiso   1.00
H396   H     0.54113   0.90974   0.38639   0.00000  Uiso   1.00
H397   H     0.56683   0.66944   0.24480   0.00000  Uiso   1.00
H398   H     0.43317   0.99723   0.25520   0.00000  Uiso   1.00
N399   N     0.65011   0.81932   0.23783   0.00000  Uiso   1.00
N400   N     0.34989   0.84735   0.26217   0.00000  Uiso   1.00
N401   N     0.58498   0.67265   0.06646   0.00000  Uiso   1.00
N402   N     0.41502   0.99401   0.43354   0.00000  Uiso   1.00
N403   N     0.58687   0.67212   0.43319   0.00000  Uiso   1.00
N404   N     0.41313   0.99455   0.06681   0.00000  Uiso   1.00
N405   N     0.36227   0.75172   0.18356   0.00000  Uiso   1.00
N406   N     0.63773   0.91494   0.31644   0.00000  Uiso   1.00
O407   O     0.46308   0.91286   0.25299   0.00000  Uiso   1.00
O408   O     0.53692   0.75381   0.24702   0.00000  Uiso   1.00
O409   O     0.55946   0.90387   0.24519   0.00000  Uiso   1.00
O410   O     0.44054   0.76279   0.25482   0.00000  Uiso   1.00
O411   O     0.45181   0.83784   0.31998   0.00000  Uiso   1.00
O412   O     0.54819   0.82883   0.18003   0.00000  Uiso   1.00
O413   O     0.54819   0.82885   0.31218   0.00000  Uiso   1.00
O414   O     0.45181   0.83781   0.18783   0.00000  Uiso   1.00
Zn415  Zn    0.43565   0.83933   0.25521   0.00000  Uiso   1.00
Zn416  Zn    0.56435   0.82734   0.24479   0.00000  Uiso   1.00
C417   C     0.84845   0.93146   0.24889   0.00000  Uiso   1.00
C418   C     0.85731   0.87672   0.40606   0.00000  Uiso   1.00
C419   C     0.83230   0.83356   0.11621   0.00000  Uiso   1.00
C420   C     0.83437   0.83311   0.38379   0.00000  Uiso   1.00
C421   C     0.85545   0.87717   0.09369   0.00000  Uiso   1.00
C422   C     0.81122   0.78950   0.40631   0.00000  Uiso   1.00
C423   C     0.85577   0.87823   0.04693   0.00000  Uiso   1.00
C424   C     0.81090   0.78844   0.45307   0.00000  Uiso   1.00
C425   C     0.83304   0.83341   0.02345   0.00000  Uiso   1.00
C426   C     0.83363   0.83325   0.47655   0.00000  Uiso   1.00
C427   C     0.80978   0.78874   0.04711   0.00000  Uiso   1.00
C428   C     0.81822   0.73520   0.25111   0.00000  Uiso   1.00
C429   C     0.85689   0.87793   0.45289   0.00000  Uiso   1.00
C430   C     0.87828   0.92282   0.02344   0.00000  Uiso   1.00
C431   C     0.78839   0.74384   0.47656   0.00000  Uiso   1.00
C432   C     0.90061   0.96910   0.04743   0.00000  Uiso   1.00
C433   C     0.76606   0.69757   0.45258   0.00000  Uiso   1.00
C434   C     0.90190   0.96874   0.45226   0.00000  Uiso   1.00
C435   C     0.76477   0.69793   0.04774   0.00000  Uiso   1.00
C436   C     0.67528   0.78261   0.20836   0.00000  Uiso   1.00
C437   C     0.99139   0.88406   0.29164   0.00000  Uiso   1.00
C438   C     0.87886   0.92267   0.47630   0.00000  Uiso   1.00
C439   C     0.78781   0.74400   0.02370   0.00000  Uiso   1.00
C440   C     0.85643   0.98596   0.24822   0.00000  Uiso   1.00
C441   C     0.81024   0.68071   0.25178   0.00000  Uiso   1.00
C442   C     0.83369   0.83342   0.33628   0.00000  Uiso   1.00
C443   C     0.83298   0.83325   0.16372   0.00000  Uiso   1.00
C444   C     0.80936   0.78994   0.09394   0.00000  Uiso   1.00
H445   H     0.87274   0.91008   0.11322   0.00000  Uiso   1.00
H446   H     0.79392   0.75659   0.38678   0.00000  Uiso   1.00
H447   H     0.79221   0.75693   0.11361   0.00000  Uiso   1.00
H448   H     0.87446   0.90974   0.38639   0.00000  Uiso   1.00
H449   H     0.90016   0.66944   0.24480   0.00000  Uiso   1.00
H450   H     0.76651   0.99723   0.25520   0.00000  Uiso   1.00
N451   N     0.98344   0.81932   0.23783   0.00000  Uiso   1.00
N452   N     0.68322   0.84735   0.26217   0.00000  Uiso   1.00
N453   N     0.91832   0.67265   0.06646   0.00000  Uiso   1.00
N454   N     0.74835   0.99401   0.43354   0.00000  Uiso   1.00
N455   N     0.92021   0.67212   0.43319   0.00000  Uiso   1.00
N456   N     0.74646   0.99455   0.06681   0.00000  Uiso   1.00
N457   N     0.69560   0.75172   0.18356   0.00000  Uiso   1.00
N458   N     0.97107   0.91494   0.31644   0.00000  Uiso   1.00
O459   O     0.79642   0.91286   0.25299   0.00000  Uiso   1.00
O460   O     0.87025   0.75381   0.24702   0.00000  Uiso   1.00
O461   O     0.89280   0.90387   0.24519   0.00000  Uiso   1.00
O462   O     0.77387   0.76279   0.25482   0.00000  Uiso   1.00
O463   O     0.78514   0.83784   0.31998   0.00000  Uiso   1.00
O464   O     0.88153   0.82883   0.18003   0.00000  Uiso   1.00
O465   O     0.88152   0.82885   0.31218   0.00000  Uiso   1.00
O466   O     0.78515   0.83781   0.18783   0.00000  Uiso   1.00
Zn467  Zn    0.76898   0.83933   0.25521   0.00000  Uiso   1.00
Zn468  Zn    0.89769   0.82734   0.24479   0.00000  Uiso   1.00
C469   C     0.18178   0.26480   0.74889   0.00000  Uiso   1.00
C470   C     0.19064   0.21006   0.90606   0.00000  Uiso   1.00
C471   C     0.16563   0.16689   0.61621   0.00000  Uiso   1.00
C472   C     0.16770   0.16644   0.88379   0.00000  Uiso   1.00
C473   C     0.18878   0.21050   0.59369   0.00000  Uiso   1.00
C474   C     0.14455   0.12283   0.90631   0.00000  Uiso   1.00
C475   C     0.18910   0.21156   0.54693   0.00000  Uiso   1.00
C476   C     0.14423   0.12177   0.95307   0.00000  Uiso   1.00
C477   C     0.16637   0.16675   0.52345   0.00000  Uiso   1.00
C478   C     0.16696   0.16659   0.97655   0.00000  Uiso   1.00
C479   C     0.14311   0.12207   0.54711   0.00000  Uiso   1.00
C480   C     0.15155   0.06854   0.75111   0.00000  Uiso   1.00
C481   C     0.19022   0.21126   0.95289   0.00000  Uiso   1.00
C482   C     0.21161   0.25616   0.52344   0.00000  Uiso   1.00
C483   C     0.12172   0.07718   0.97656   0.00000  Uiso   1.00
C484   C     0.23394   0.30243   0.54743   0.00000  Uiso   1.00
C485   C     0.09940   0.03090   0.95258   0.00000  Uiso   1.00
C486   C     0.23523   0.30207   0.95226   0.00000  Uiso   1.00
C487   C     0.09810   0.03126   0.54774   0.00000  Uiso   1.00
C488   C     0.00861   0.11594   0.70836   0.00000  Uiso   1.00
C489   C     0.32472   0.21739   0.79164   0.00000  Uiso   1.00
C490   C     0.21219   0.25600   0.97630   0.00000  Uiso   1.00
C491   C     0.12114   0.07733   0.52370   0.00000  Uiso   1.00
C492   C     0.18976   0.31929   0.74822   0.00000  Uiso   1.00
C493   C     0.14357   0.01404   0.75178   0.00000  Uiso   1.00
C494   C     0.16702   0.16675   0.83628   0.00000  Uiso   1.00
C495   C     0.16632   0.16658   0.66372   0.00000  Uiso   1.00
C496   C     0.14269   0.12328   0.59394   0.00000  Uiso   1.00
H497   H     0.20608   0.24341   0.61322   0.00000  Uiso   1.00
H498   H     0.12726   0.08992   0.88678   0.00000  Uiso   1.00
H499   H     0.12554   0.09026   0.61361   0.00000  Uiso   1.00
H500   H     0.20779   0.24307   0.88639   0.00000  Uiso   1.00
H501   H     0.23349   0.00277   0.74480   0.00000  Uiso   1.00
H502   H     0.09984   0.33056   0.75520   0.00000  Uiso   1.00
N503   N     0.31678   0.15265   0.73783   0.00000  Uiso   1.00
N504   N     0.01656   0.18068   0.76217   0.00000  Uiso   1.00
N505   N     0.25165   0.00599   0.56646   0.00000  Uiso   1.00
N506   N     0.08168   0.32735   0.93354   0.00000  Uiso   1.00
N507   N     0.25354   0.00545   0.93319   0.00000  Uiso   1.00
N508   N     0.07979   0.32788   0.56681   0.00000  Uiso   1.00
N509   N     0.02893   0.08506   0.68356   0.00000  Uiso   1.00
N510   N     0.30440   0.24828   0.81644   0.00000  Uiso   1.00
O511   O     0.12975   0.24619   0.75299   0.00000  Uiso   1.00
O512   O     0.20358   0.08714   0.74702   0.00000  Uiso   1.00
O513   O     0.22613   0.23721   0.74519   0.00000  Uiso   1.00
O514   O     0.10720   0.09613   0.75482   0.00000  Uiso   1.00
O515   O     0.11847   0.17117   0.81998   0.00000  Uiso   1.00
O516   O     0.21486   0.16216   0.68003   0.00000  Uiso   1.00
O517   O     0.21485   0.16219   0.81218   0.00000  Uiso   1.00
O518   O     0.11848   0.17115   0.68783   0.00000  Uiso   1.00
Zn519  Zn    0.10231   0.17266   0.75521   0.00000  Uiso   1.00
Zn520  Zn    0.23102   0.16067   0.74479   0.00000  Uiso   1.00
C521   C     0.51511   0.26480   0.74889   0.00000  Uiso   1.00
C522   C     0.52397   0.21006   0.90606   0.00000  Uiso   1.00
C523   C     0.49897   0.16689   0.61621   0.00000  Uiso   1.00
C524   C     0.50103   0.16644   0.88379   0.00000  Uiso   1.00
C525   C     0.52212   0.21050   0.59369   0.00000  Uiso   1.00
C526   C     0.47788   0.12283   0.90631   0.00000  Uiso   1.00
C527   C     0.52244   0.21156   0.54693   0.00000  Uiso   1.00
C528   C     0.47756   0.12177   0.95307   0.00000  Uiso   1.00
C529   C     0.49970   0.16675   0.52345   0.00000  Uiso   1.00
C530   C     0.50030   0.16659   0.97655   0.00000  Uiso   1.00
C531   C     0.47644   0.12207   0.54711   0.00000  Uiso   1.00
C532   C     0.48489   0.06854   0.75111   0.00000  Uiso   1.00
C533   C     0.52356   0.21126   0.95289   0.00000  Uiso   1.00
C534   C     0.54495   0.25616   0.52344   0.00000  Uiso   1.00
C535   C     0.45505   0.07718   0.97656   0.00000  Uiso   1.00
C536   C     0.56727   0.30243   0.54743   0.00000  Uiso   1.00
C537   C     0.43273   0.03090   0.95258   0.00000  Uiso   1.00
C538   C     0.56857   0.30207   0.95226   0.00000  Uiso   1.00
C539   C     0.43144   0.03126   0.54774   0.00000  Uiso   1.00
C540   C     0.34194   0.11594   0.70836   0.00000  Uiso   1.00
C541   C     0.65806   0.21739   0.79164   0.00000  Uiso   1.00
C542   C     0.54552   0.25600   0.97630   0.00000  Uiso   1.00
C543   C     0.45448   0.07733   0.52370   0.00000  Uiso   1.00
C544   C     0.52310   0.31929   0.74822   0.00000  Uiso   1.00
C545   C     0.47690   0.01404   0.75178   0.00000  Uiso   1.00
C546   C     0.50035   0.16675   0.83628   0.00000  Uiso   1.00
C547   C     0.49965   0.16658   0.66372   0.00000  Uiso   1.00
C548   C     0.47603   0.12328   0.59394   0.00000  Uiso   1.00
H549   H     0.53941   0.24341   0.61322   0.00000  Uiso   1.00
H550   H     0.46059   0.08992   0.88678   0.00000  Uiso   1.00
H551   H     0.45887   0.09026   0.61361   0.00000  Uiso   1.00
H552   H     0.54113   0.24307   0.88639   0.00000  Uiso   1.00
H553   H     0.56683   0.00277   0.74480   0.00000  Uiso   1.00
H554   H     0.43317   0.33056   0.75520   0.00000  Uiso   1.00
N555   N     0.65011   0.15265   0.73783   0.00000  Uiso   1.00
N556   N     0.34989   0.18068   0.76217   0.00000  Uiso   1.00
N557   N     0.58498   0.00599   0.56646   0.00000  Uiso   1.00
N558   N     0.41502   0.32735   0.93354   0.00000  Uiso   1.00
N559   N     0.58687   0.00545   0.93319   0.00000  Uiso   1.00
N560   N     0.41313   0.32788   0.56681   0.00000  Uiso   1.00
N561   N     0.36227   0.08506   0.68356   0.00000  Uiso   1.00
N562   N     0.63773   0.24828   0.81644   0.00000  Uiso   1.00
O563   O     0.46308   0.24619   0.75299   0.00000  Uiso   1.00
O564   O     0.53692   0.08714   0.74702   0.00000  Uiso   1.00
O565   O     0.55946   0.23721   0.74519   0.00000  Uiso   1.00
O566   O     0.44054   0.09613   0.75482   0.00000  Uiso   1.00
O567   O     0.45181   0.17117   0.81998   0.00000  Uiso   1.00
O568   O     0.54819   0.16216   0.68003   0.00000  Uiso   1.00
O569   O     0.54819   0.16219   0.81218   0.00000  Uiso   1.00
O570   O     0.45181   0.17115   0.68783   0.00000  Uiso   1.00
Zn571  Zn    0.43565   0.17266   0.75521   0.00000  Uiso   1.00
Zn572  Zn    0.56435   0.16067   0.74479   0.00000  Uiso   1.00
C573   C     0.84845   0.26480   0.74889   0.00000  Uiso   1.00
C574   C     0.85731   0.21006   0.90606   0.00000  Uiso   1.00
C575   C     0.83230   0.16689   0.61621   0.00000  Uiso   1.00
C576   C     0.83437   0.16644   0.88379   0.00000  Uiso   1.00
C577   C     0.85545   0.21050   0.59369   0.00000  Uiso   1.00
C578   C     0.81122   0.12283   0.90631   0.00000  Uiso   1.00
C579   C     0.85577   0.21156   0.54693   0.00000  Uiso   1.00
C580   C     0.81090   0.12177   0.95307   0.00000  Uiso   1.00
C581   C     0.83304   0.16675   0.52345   0.00000  Uiso   1.00
C582   C     0.83363   0.16659   0.97655   0.00000  Uiso   1.00
C583   C     0.80978   0.12207   0.54711   0.00000  Uiso   1.00
C584   C     0.81822   0.06854   0.75111   0.00000  Uiso   1.00
C585   C     0.85689   0.21126   0.95289   0.00000  Uiso   1.00
C586   C     0.87828   0.25616   0.52344   0.00000  Uiso   1.00
C587   C     0.78839   0.07718   0.97656   0.00000  Uiso   1.00
C588   C     0.90061   0.30243   0.54743   0.00000  Uiso   1.00
C589   C     0.76606   0.03090   0.95258   0.00000  Uiso   1.00
C590   C     0.90190   0.30207   0.95226   0.00000  Uiso   1.00
C591   C     0.76477   0.03126   0.54774   0.00000  Uiso   1.00
C592   C     0.67528   0.11594   0.70836   0.00000  Uiso   1.00
C593   C     0.99139   0.21739   0.79164   0.00000  Uiso   1.00
C594   C     0.87886   0.25600   0.97630   0.00000  Uiso   1.00
C595   C     0.78781   0.07733   0.52370   0.00000  Uiso   1.00
C596   C     0.85643   0.31929   0.74822   0.00000  Uiso   1.00
C597   C     0.81024   0.01404   0.75178   0.00000  Uiso   1.00
C598   C     0.83369   0.16675   0.83628   0.00000  Uiso   1.00
C599   C     0.83298   0.16658   0.66372   0.00000  Uiso   1.00
C600   C     0.80936   0.12328   0.59394   0.00000  Uiso   1.00
H601   H     0.87274   0.24341   0.61322   0.00000  Uiso   1.00
H602   H     0.79392   0.08992   0.88678   0.00000  Uiso   1.00
H603   H     0.79221   0.09026   0.61361   0.00000  Uiso   1.00
H604   H     0.87446   0.24307   0.88639   0.00000  Uiso   1.00
H605   H     0.90016   0.00277   0.74480   0.00000  Uiso   1.00
H606   H     0.76651   0.33056   0.75520   0.00000  Uiso   1.00
N607   N     0.98344   0.15265   0.73783   0.00000  Uiso   1.00
N608   N     0.68322   0.18068   0.76217   0.00000  Uiso   1.00
N609   N     0.91832   0.00599   0.56646   0.00000  Uiso   1.00
N610   N     0.74835   0.32735   0.93354   0.00000  Uiso   1.00
N611   N     0.92021   0.00545   0.93319   0.00000  Uiso   1.00
N612   N     0.74646   0.32788   0.56681   0.00000  Uiso   1.00
N613   N     0.69560   0.08506   0.68356   0.00000  Uiso   1.00
N614   N     0.97107   0.24828   0.81644   0.00000  Uiso   1.00
O615   O     0.79642   0.24619   0.75299   0.00000  Uiso   1.00
O616   O     0.87025   0.08714   0.74702   0.00000  Uiso   1.00
O617   O     0.89280   0.23721   0.74519   0.00000  Uiso   1.00
O618   O     0.77387   0.09613   0.75482   0.00000  Uiso   1.00
O619   O     0.78514   0.17117   0.81998   0.00000  Uiso   1.00
O620   O     0.88153   0.16216   0.68003   0.00000  Uiso   1.00
O621   O     0.88152   0.16219   0.81218   0.00000  Uiso   1.00
O622   O     0.78515   0.17115   0.68783   0.00000  Uiso   1.00
Zn623  Zn    0.76898   0.17266   0.75521   0.00000  Uiso   1.00
Zn624  Zn    0.89769   0.16067   0.74479   0.00000  Uiso   1.00
C625   C     0.18178   0.59813   0.74889   0.00000  Uiso   1.00
C626   C     0.19064   0.54339   0.90606   0.00000  Uiso   1.00
C627   C     0.16563   0.50023   0.61621   0.00000  Uiso   1.00
C628   C     0.16770   0.49977   0.88379   0.00000  Uiso   1.00
C629   C     0.18878   0.54383   0.59369   0.00000  Uiso   1.00
C630   C     0.14455   0.45617   0.90631   0.00000  Uiso   1.00
C631   C     0.18910   0.54489   0.54693   0.00000  Uiso   1.00
C632   C     0.14423   0.45511   0.95307   0.00000  Uiso   1.00
C633   C     0.16637   0.50008   0.52345   0.00000  Uiso   1.00
C634   C     0.16696   0.49992   0.97655   0.00000  Uiso   1.00
C635   C     0.14311   0.45540   0.54711   0.00000  Uiso   1.00
C636   C     0.15155   0.40187   0.75111   0.00000  Uiso   1.00
C637   C     0.19022   0.54460   0.95289   0.00000  Uiso   1.00
C638   C     0.21161   0.58949   0.52344   0.00000  Uiso   1.00
C639   C     0.12172   0.41051   0.97656   0.00000  Uiso   1.00
C640   C     0.23394   0.63577   0.54743   0.00000  Uiso   1.00
C641   C     0.09940   0.36424   0.95258   0.00000  Uiso   1.00
C642   C     0.23523   0.63540   0.95226   0.00000  Uiso   1.00
C643   C     0.09810   0.36460   0.54774   0.00000  Uiso   1.00
C644   C     0.00861   0.44927   0.70836   0.00000  Uiso   1.00
C645   C     0.32472   0.55073   0.79164   0.00000  Uiso   1.00
C646   C     0.21219   0.58934   0.97630   0.00000  Uiso   1.00
C647   C     0.12114   0.41066   0.52370   0.00000  Uiso   1.00
C648   C     0.18976   0.65263   0.74822   0.00000  Uiso   1.00
C649   C     0.14357   0.34737   0.75178   0.00000  Uiso   1.00
C650   C     0.16702   0.50009   0.83628   0.00000  Uiso   1.00
C651   C     0.16632   0.49991   0.66372   0.00000  Uiso   1.00
C652   C     0.14269   0.45661   0.59394   0.00000  Uiso   1.00
H653   H     0.20608   0.57674   0.61322   0.00000  Uiso   1.00
H654   H     0.12726   0.42326   0.88678   0.00000  Uiso   1.00
H655   H     0.12554   0.42359   0.61361   0.00000  Uiso   1.00
H656   H     0.20779   0.57641   0.88639   0.00000  Uiso   1.00
H657   H     0.23349   0.33611   0.74480   0.00000  Uiso   1.00
H658   H     0.09984   0.66389   0.75520   0.00000  Uiso   1.00
N659   N     0.31678   0.48598   0.73783   0.00000  Uiso   1.00
N660   N     0.01656   0.51402   0.76217   0.00000  Uiso   1.00
N661   N     0.25165   0.33932   0.56646   0.00000  Uiso   1.00
N662   N     0.08168   0.66068   0.93354   0.00000  Uiso   1.00
N663   N     0.25354   0.33879   0.93319   0.00000  Uiso   1.00
N664   N     0.07979   0.66121   0.56681   0.00000  Uiso   1.00
N665   N     0.02893   0.41839   0.68356   0.00000  Uiso   1.00
N666   N     0.30440   0.58161   0.81644   0.00000  Uiso   1.00
O667   O     0.12975   0.57952   0.75299   0.00000  Uiso   1.00
O668   O     0.20358   0.42048   0.74702   0.00000  Uiso   1.00
O669   O     0.22613   0.57054   0.74519   0.00000  Uiso   1.00
O670   O     0.10720   0.42946   0.75482   0.00000  Uiso   1.00
O671   O     0.11847   0.50450   0.81998   0.00000  Uiso   1.00
O672   O     0.21486   0.49550   0.68003   0.00000  Uiso   1.00
O673   O     0.21485   0.49552   0.81218   0.00000  Uiso   1.00
O674   O     0.11848   0.50448   0.68783   0.00000  Uiso   1.00
Zn675  Zn    0.10231   0.50600   0.75521   0.00000  Uiso   1.00
Zn676  Zn    0.23102   0.49400   0.74479   0.00000  Uiso   1.00
C677   C     0.51511   0.59813   0.74889   0.00000  Uiso   1.00
C678   C     0.52397   0.54339   0.90606   0.00000  Uiso   1.00
C679   C     0.49897   0.50023   0.61621   0.00000  Uiso   1.00
C680   C     0.50103   0.49977   0.88379   0.00000  Uiso   1.00
C681   C     0.52212   0.54383   0.59369   0.00000  Uiso   1.00
C682   C     0.47788   0.45617   0.90631   0.00000  Uiso   1.00
C683   C     0.52244   0.54489   0.54693   0.00000  Uiso   1.00
C684   C     0.47756   0.45511   0.95307   0.00000  Uiso   1.00
C685   C     0.49970   0.50008   0.52345   0.00000  Uiso   1.00
C686   C     0.50030   0.49992   0.97655   0.00000  Uiso   1.00
C687   C     0.47644   0.45540   0.54711   0.00000  Uiso   1.00
C688   C     0.48489   0.40187   0.75111   0.00000  Uiso   1.00
C689   C     0.52356   0.54460   0.95289   0.00000  Uiso   1.00
C690   C     0.54495   0.58949   0.52344   0.00000  Uiso   1.00
C691   C     0.45505   0.41051   0.97656   0.00000  Uiso   1.00
C692   C     0.56727   0.63577   0.54743   0.00000  Uiso   1.00
C693   C     0.43273   0.36424   0.95258   0.00000  Uiso   1.00
C694   C     0.56857   0.63540   0.95226   0.00000  Uiso   1.00
C695   C     0.43144   0.36460   0.54774   0.00000  Uiso   1.00
C696   C     0.34194   0.44927   0.70836   0.00000  Uiso   1.00
C697   C     0.65806   0.55073   0.79164   0.00000  Uiso   1.00
C698   C     0.54552   0.58934   0.97630   0.00000  Uiso   1.00
C699   C     0.45448   0.41066   0.52370   0.00000  Uiso   1.00
C700   C     0.52310   0.65263   0.74822   0.00000  Uiso   1.00
C701   C     0.47690   0.34737   0.75178   0.00000  Uiso   1.00
C702   C     0.50035   0.50009   0.83628   0.00000  Uiso   1.00
C703   C     0.49965   0.49991   0.66372   0.00000  Uiso   1.00
C704   C     0.47603   0.45661   0.59394   0.00000  Uiso   1.00
H705   H     0.53941   0.57674   0.61322   0.00000  Uiso   1.00
H706   H     0.46059   0.42326   0.88678   0.00000  Uiso   1.00
H707   H     0.45887   0.42359   0.61361   0.00000  Uiso   1.00
H708   H     0.54113   0.57641   0.88639   0.00000  Uiso   1.00
H709   H     0.56683   0.33611   0.74480   0.00000  Uiso   1.00
H710   H     0.43317   0.66389   0.75520   0.00000  Uiso   1.00
N711   N     0.65011   0.48598   0.73783   0.00000  Uiso   1.00
N712   N     0.34989   0.51402   0.76217   0.00000  Uiso   1.00
N713   N     0.58498   0.33932   0.56646   0.00000  Uiso   1.00
N714   N     0.41502   0.66068   0.93354   0.00000  Uiso   1.00
N715   N     0.58687   0.33879   0.93319   0.00000  Uiso   1.00
N716   N     0.41313   0.66121   0.56681   0.00000  Uiso   1.00
N717   N     0.36227   0.41839   0.68356   0.00000  Uiso   1.00
N718   N     0.63773   0.58161   0.81644   0.00000  Uiso   1.00
O719   O     0.46308   0.57952   0.75299   0.00000  Uiso   1.00
O720   O     0.53692   0.42048   0.74702   0.00000  Uiso   1.00
O721   O     0.55946   0.57054   0.74519   0.00000  Uiso   1.00
O722   O     0.44054   0.42946   0.75482   0.00000  Uiso   1.00
O723   O     0.45181   0.50450   0.81998   0.00000  Uiso   1.00
O724   O     0.54819   0.49550   0.68003   0.00000  Uiso   1.00
O725   O     0.54819   0.49552   0.81218   0.00000  Uiso   1.00
O726   O     0.45181   0.50448   0.68783   0.00000  Uiso   1.00
Zn727  Zn    0.43565   0.50600   0.75521   0.00000  Uiso   1.00
Zn728  Zn    0.56435   0.49400   0.74479   0.00000  Uiso   1.00
C729   C     0.84845   0.59813   0.74889   0.00000  Uiso   1.00
C730   C     0.85731   0.54339   0.90606   0.00000  Uiso   1.00
C731   C     0.83230   0.50023   0.61621   0.00000  Uiso   1.00
C732   C     0.83437   0.49977   0.88379   0.00000  Uiso   1.00
C733   C     0.85545   0.54383   0.59369   0.00000  Uiso   1.00
C734   C     0.81122   0.45617   0.90631   0.00000  Uiso   1.00
C735   C     0.85577   0.54489   0.54693   0.00000  Uiso   1.00
C736   C     0.81090   0.45511   0.95307   0.00000  Uiso   1.00
C737   C     0.83304   0.50008   0.52345   0.00000  Uiso   1.00
C738   C     0.83363   0.49992   0.97655   0.00000  Uiso   1.00
C739   C     0.80978   0.45540   0.54711   0.00000  Uiso   1.00
C740   C     0.81822   0.40187   0.75111   0.00000  Uiso   1.00
C741   C     0.85689   0.54460   0.95289   0.00000  Uiso   1.00
C742   C     0.87828   0.58949   0.52344   0.00000  Uiso   1.00
C743   C     0.78839   0.41051   0.97656   0.00000  Uiso   1.00
C744   C     0.90061   0.63577   0.54743   0.00000  Uiso   1.00
C745   C     0.76606   0.36424   0.95258   0.00000  Uiso   1.00
C746   C     0.90190   0.63540   0.95226   0.00000  Uiso   1.00
C747   C     0.76477   0.36460   0.54774   0.00000  Uiso   1.00
C748   C     0.67528   0.44927   0.70836   0.00000  Uiso   1.00
C749   C     0.99139   0.55073   0.79164   0.00000  Uiso   1.00
C750   C     0.87886   0.58934   0.97630   0.00000  Uiso   1.00
C751   C     0.78781   0.41066   0.52370   0.00000  Uiso   1.00
C752   C     0.85643   0.65263   0.74822   0.00000  Uiso   1.00
C753   C     0.81024   0.34737   0.75178   0.00000  Uiso   1.00
C754   C     0.83369   0.50009   0.83628   0.00000  Uiso   1.00
C755   C     0.83298   0.49991   0.66372   0.00000  Uiso   1.00
C756   C     0.80936   0.45661   0.59394   0.00000  Uiso   1.00
H757   H     0.87274   0.57674   0.61322   0.00000  Uiso   1.00
H758   H     0.79392   0.42326   0.88678   0.00000  Uiso   1.00
H759   H     0.79221   0.42359   0.61361   0.00000  Uiso   1.00
H760   H     0.87446   0.57641   0.88639   0.00000  Uiso   1.00
H761   H     0.90016   0.33611   0.74480   0.00000  Uiso   1.00
H762   H     0.76651   0.66389   0.75520   0.00000  Uiso   1.00
N763   N     0.98344   0.48598   0.73783   0.00000  Uiso   1.00
N764   N     0.68322   0.51402   0.76217   0.00000  Uiso   1.00
N765   N     0.91832   0.33932   0.56646   0.00000  Uiso   1.00
N766   N     0.74835   0.66068   0.93354   0.00000  Uiso   1.00
N767   N     0.92021   0.33879   0.93319   0.00000  Uiso   1.00
N768   N     0.74646   0.66121   0.56681   0.00000  Uiso   1.00
N769   N     0.69560   0.41839   0.68356   0.00000  Uiso   1.00
N770   N     0.97107   0.58161   0.81644   0.00000  Uiso   1.00
O771   O     0.79642   0.57952   0.75299   0.00000  Uiso   1.00
O772   O     0.87025   0.42048   0.74702   0.00000  Uiso   1.00
O773   O     0.89280   0.57054   0.74519   0.00000  Uiso   1.00
O774   O     0.77387   0.42946   0.75482   0.00000  Uiso   1.00
O775   O     0.78514   0.50450   0.81998   0.00000  Uiso   1.00
O776   O     0.88153   0.49550   0.68003   0.00000  Uiso   1.00
O777   O     0.88152   0.49552   0.81218   0.00000  Uiso   1.00
O778   O     0.78515   0.50448   0.68783   0.00000  Uiso   1.00
Zn779  Zn    0.76898   0.50600   0.75521   0.00000  Uiso   1.00
Zn780  Zn    0.89769   0.49400   0.74479   0.00000  Uiso   1.00
C781   C     0.18178   0.93146   0.74889   0.00000  Uiso   1.00
C782   C     0.19064   0.87672   0.90606   0.00000  Uiso   1.00
C783   C     0.16563   0.83356   0.61621   0.00000  Uiso   1.00
C784   C     0.16770   0.83311   0.88379   0.00000  Uiso   1.00
C785   C     0.18878   0.87717   0.59369   0.00000  Uiso   1.00
C786   C     0.14455   0.78950   0.90631   0.00000  Uiso   1.00
C787   C     0.18910   0.87823   0.54693   0.00000  Uiso   1.00
C788   C     0.14423   0.78844   0.95307   0.00000  Uiso   1.00
C789   C     0.16637   0.83341   0.52345   0.00000  Uiso   1.00
C790   C     0.16696   0.83325   0.97655   0.00000  Uiso   1.00
C791   C     0.14311   0.78874   0.54711   0.00000  Uiso   1.00
C792   C     0.15155   0.73520   0.75111   0.00000  Uiso   1.00
C793   C     0.19022   0.87793   0.95289   0.00000  Uiso   1.00
C794   C     0.21161   0.92282   0.52344   0.00000  Uiso   1.00
C795   C     0.12172   0.74384   0.97656   0.00000  Uiso   1.00
C796   C     0.23394   0.96910   0.54743   0.00000  Uiso   1.00
C797   C     0.09940   0.69757   0.95258   0.00000  Uiso   1.00
C798   C     0.23523   0.96874   0.95226   0.00000  Uiso   1.00
C799   C     0.09810   0.69793   0.54774   0.00000  Uiso   1.00
C800   C     0.00861   0.78261   0.70836   0.00000  Uiso   1.00
C801   C     0.32472   0.88406   0.79164   0.00000  Uiso   1.00
C802   C     0.21219   0.92267   0.97630   0.00000  Uiso   1.00
C803   C     0.12114   0.74400   0.52370   0.00000  Uiso   1.00
C804   C     0.18976   0.98596   0.74822   0.00000  Uiso   1.00
C805   C     0.14357   0.68071   0.75178   0.00000  Uiso   1.00
C806   C     0.16702   0.83342   0.83628   0.00000  Uiso   1.00
C807   C     0.16632   0.83325   0.66372   0.00000  Uiso   1.00
C808   C     0.14269   0.78994   0.59394   0.00000  Uiso   1.00
H809   H     0.20608   0.91008   0.61322   0.00000  Uiso   1.00
H810   H     0.12726   0.75659   0.88678   0.00000  Uiso   1.00
H811   H     0.12554   0.75693   0.61361   0.00000  Uiso   1.00
H812   H     0.20779   0.90974   0.88639   0.00000  Uiso   1.00
H813   H     0.23349   0.66944   0.74480   0.00000  Uiso   1.00
H814   H     0.09984   0.99723   0.75520   0.00000  Uiso   1.00
N815   N     0.31678   0.81932   0.73783   0.00000  Uiso   1.00
N816   N     0.01656   0.84735   0.76217   0.00000  Uiso   1.00
N817   N     0.25165   0.67265   0.56646   0.00000  Uiso   1.00
N818   N     0.08168   0.99401   0.93354   0.00000  Uiso   1.00
N819   N     0.25354   0.67212   0.93319   0.00000  Uiso   1.00
N820   N     0.07979   0.99455   0.56681   0.00000  Uiso   1.00
N821   N     0.02893   0.75172   0.68356   0.00000  Uiso   1.00
N822   N     0.30440   0.91494   0.81644   0.00000  Uiso   1.00
O823   O     0.12975   0.91286   0.75299   0.00000  Uiso   1.00
O824   O     0.20358   0.75381   0.74702   0.00000  Uiso   1.00
O825   O     0.22613   0.90387   0.74519   0.00000  Uiso   1.00
O826   O     0.10720   0.76279   0.75482   0.00000  Uiso   1.00
O827   O     0.11847   0.83784   0.81998   0.00000  Uiso   1.00
O828   O     0.21486   0.82883   0.68003   0.00000  Uiso   1.00
O829   O     0.21485   0.82885   0.81218   0.00000  Uiso   1.00
O830   O     0.11848   0.83781   0.68783   0.00000  Uiso   1.00
Zn831  Zn    0.10231   0.83933   0.75521   0.00000  Uiso   1.00
Zn832  Zn    0.23102   0.82734   0.74479   0.00000  Uiso   1.00
C833   C     0.51511   0.93146   0.74889   0.00000  Uiso   1.00
C834   C     0.52397   0.87672   0.90606   0.00000  Uiso   1.00
C835   C     0.49897   0.83356   0.61621   0.00000  Uiso   1.00
C836   C     0.50103   0.83311   0.88379   0.00000  Uiso   1.00
C837   C     0.52212   0.87717   0.59369   0.00000  Uiso   1.00
C838   C     0.47788   0.78950   0.90631   0.00000  Uiso   1.00
C839   C     0.52244   0.87823   0.54693   0.00000  Uiso   1.00
C840   C     0.47756   0.78844   0.95307   0.00000  Uiso   1.00
C841   C     0.49970   0.83341   0.52345   0.00000  Uiso   1.00
C842   C     0.50030   0.83325   0.97655   0.00000  Uiso   1.00
C843   C     0.47644   0.78874   0.54711   0.00000  Uiso   1.00
C844   C     0.48489   0.73520   0.75111   0.00000  Uiso   1.00
C845   C     0.52356   0.87793   0.95289   0.00000  Uiso   1.00
C846   C     0.54495   0.92282   0.52344   0.00000  Uiso   1.00
C847   C     0.45505   0.74384   0.97656   0.00000  Uiso   1.00
C848   C     0.56727   0.96910   0.54743   0.00000  Uiso   1.00
C849   C     0.43273   0.69757   0.95258   0.00000  Uiso   1.00
C850   C     0.56857   0.96874   0.95226   0.00000  Uiso   1.00
C851   C     0.43144   0.69793   0.54774   0.00000  Uiso   1.00
C852   C     0.34194   0.78261   0.70836   0.00000  Uiso   1.00
C853   C     0.65806   0.88406   0.79164   0.00000  Uiso   1.00
C854   C     0.54552   0.92267   0.97630   0.00000  Uiso   1.00
C855   C     0.45448   0.74400   0.52370   0.00000  Uiso   1.00
C856   C     0.52310   0.98596   0.74822   0.00000  Uiso   1.00
C857   C     0.47690   0.68071   0.75178   0.00000  Uiso   1.00
C858   C     0.50035   0.83342   0.83628   0.00000  Uiso   1.00
C859   C     0.49965   0.83325   0.66372   0.00000  Uiso   1.00
C860   C     0.47603   0.78994   0.59394   0.00000  Uiso   1.00
H861   H     0.53941   0.91008   0.61322   0.00000  Uiso   1.00
H862   H     0.46059   0.75659   0.88678   0.00000  Uiso   1.00
H863   H     0.45887   0.75693   0.61361   0.00000  Uiso   1.00
H864   H     0.54113   0.90974   0.88639   0.00000  Uiso   1.00
H865   H     0.56683   0.66944   0.74480   0.00000  Uiso   1.00
H866   H     0.43317   0.99723   0.75520   0.00000  Uiso   1.00
N867   N     0.65011   0.81932   0.73783   0.00000  Uiso   1.00
N868   N     0.34989   0.84735   0.76217   0.00000  Uiso   1.00
N869   N     0.58498   0.67265   0.56646   0.00000  Uiso   1.00
N870   N     0.41502   0.99401   0.93354   0.00000  Uiso   1.00
N871   N     0.58687   0.67212   0.93319   0.00000  Uiso   1.00
N872   N     0.41313   0.99455   0.56681   0.00000  Uiso   1.00
N873   N     0.36227   0.75172   0.68356   0.00000  Uiso   1.00
N874   N     0.63773   0.91494   0.81644   0.00000  Uiso   1.00
O875   O     0.46308   0.91286   0.75299   0.00000  Uiso   1.00
O876   O     0.53692   0.75381   0.74702   0.00000  Uiso   1.00
O877   O     0.55946   0.90387   0.74519   0.00000  Uiso   1.00
O878   O     0.44054   0.76279   0.75482   0.00000  Uiso   1.00
O879   O     0.45181   0.83784   0.81998   0.00000  Uiso   1.00
O880   O     0.54819   0.82883   0.68003   0.00000  Uiso   1.00
O881   O     0.54819   0.82885   0.81218   0.00000  Uiso   1.00
O882   O     0.45181   0.83781   0.68783   0.00000  Uiso   1.00
Zn883  Zn    0.43565   0.83933   0.75521   0.00000  Uiso   1.00
Zn884  Zn    0.56435   0.82734   0.74479   0.00000  Uiso   1.00
C885   C     0.84845   0.93146   0.74889   0.00000  Uiso   1.00
C886   C     0.85731   0.87672   0.90606   0.00000  Uiso   1.00
C887   C     0.83230   0.83356   0.61621   0.00000  Uiso   1.00
C888   C     0.83437   0.83311   0.88379   0.00000  Uiso   1.00
C889   C     0.85545   0.87717   0.59369   0.00000  Uiso   1.00
C890   C     0.81122   0.78950   0.90631   0.00000  Uiso   1.00
C891   C     0.85577   0.87823   0.54693   0.00000  Uiso   1.00
C892   C     0.81090   0.78844   0.95307   0.00000  Uiso   1.00
C893   C     0.83304   0.83341   0.52345   0.00000  Uiso   1.00
C894   C     0.83363   0.83325   0.97655   0.00000  Uiso   1.00
C895   C     0.80978   0.78874   0.54711   0.00000  Uiso   1.00
C896   C     0.81822   0.73520   0.75111   0.00000  Uiso   1.00
C897   C     0.85689   0.87793   0.95289   0.00000  Uiso   1.00
C898   C     0.87828   0.92282   0.52344   0.00000  Uiso   1.00
C899   C     0.78839   0.74384   0.97656   0.00000  Uiso   1.00
C900   C     0.90061   0.96910   0.54743   0.00000  Uiso   1.00
C901   C     0.76606   0.69757   0.95258   0.00000  Uiso   1.00
C902   C     0.90190   0.96874   0.95226   0.00000  Uiso   1.00
C903   C     0.76477   0.69793   0.54774   0.00000  Uiso   1.00
C904   C     0.67528   0.78261   0.70836   0.00000  Uiso   1.00
C905   C     0.99139   0.88406   0.79164   0.00000  Uiso   1.00
C906   C     0.87886   0.92267   0.97630   0.00000  Uiso   1.00
C907   C     0.78781   0.74400   0.52370   0.00000  Uiso   1.00
C908   C     0.85643   0.98596   0.74822   0.00000  Uiso   1.00
C909   C     0.81024   0.68071   0.75178   0.00000  Uiso   1.00
C910   C     0.83369   0.83342   0.83628   0.00000  Uiso   1.00
C911   C     0.83298   0.83325   0.66372   0.00000  Uiso   1.00
C912   C     0.80936   0.78994   0.59394   0.00000  Uiso   1.00
H913   H     0.87274   0.91008   0.61322   0.00000  Uiso   1.00
H914   H     0.79392   0.75659   0.88678   0.00000  Uiso   1.00
H915   H     0.79221   0.75693   0.61361   0.00000  Uiso   1.00
H916   H     0.87446   0.90974   0.88639   0.00000  Uiso   1.00
H917   H     0.90016   0.66944   0.74480   0.00000  Uiso   1.00
H918   H     0.76651   0.99723   0.75520   0.00000  Uiso   1.00
N919   N     0.98344   0.81932   0.73783   0.00000  Uiso   1.00
N920   N     0.68322   0.84735   0.76217   0.00000  Uiso   1.00
N921   N     0.91832   0.67265   0.56646   0.00000  Uiso   1.00
N922   N     0.74835   0.99401   0.93354   0.00000  Uiso   1.00
N923   N     0.92021   0.67212   0.93319   0.00000  Uiso   1.00
N924   N     0.74646   0.99455   0.56681   0.00000  Uiso   1.00
N925   N     0.69560   0.75172   0.68356   0.00000  Uiso   1.00
N926   N     0.97107   0.91494   0.81644   0.00000  Uiso   1.00
O927   O     0.79642   0.91286   0.75299   0.00000  Uiso   1.00
O928   O     0.87025   0.75381   0.74702   0.00000  Uiso   1.00
O929   O     0.89280   0.90387   0.74519   0.00000  Uiso   1.00
O930   O     0.77387   0.76279   0.75482   0.00000  Uiso   1.00
O931   O     0.78514   0.83784   0.81998   0.00000  Uiso   1.00
O932   O     0.88153   0.82883   0.68003   0.00000  Uiso   1.00
O933   O     0.88152   0.82885   0.81218   0.00000  Uiso   1.00
O934   O     0.78515   0.83781   0.68783   0.00000  Uiso   1.00
Zn935  Zn    0.76898   0.83933   0.75521   0.00000  Uiso   1.00
Zn936  Zn    0.89769   0.82734   0.74479   0.00000  Uiso   1.00
loop_
_geom_bond_atom_site_label_1
_geom_bond_atom_site_label_2
_geom_bond_distance
_geom_bond_site_symmetry_2
_ccdc_geom_bond_type
C1     O45     1.289   .     A
C1     C24     1.397   .     S
C1     O43     1.283   .     A
C2     C4      1.382   .     A
C2     H32     1.084   .     S
C2     C13     1.391   .     A
C3     C27     1.415   .     S
C3     C28     1.382   .     A
C3     C5      1.383   .     A
C4     C26     1.415   .     S
C4     C6      1.383   .     A
C5     C7      1.391   .     A
C5     H29     1.084   .     S
C6     C8      1.391   .     A
C6     H30     1.084   .     S
C7     C14     1.413   .     A
C7     C9      1.422   .     A
C8     C15     1.413   .     A
C8     C10     1.422   .     A
C9     C11     1.422   .     A
C9     C478    1.393   1_554 S
C10    C13     1.422   .     A
C10    C477    1.393   .     S
C11    C28     1.391   .     A
C11    C23     1.412   .     A
C12    C25     1.397   .     S
C12    O44     1.283   .     A
C12    O46     1.289   .     A
C13    C22     1.412   .     A
C14    C16     1.454   .     S
C14    C490    1.401   1_554 S
C15    C17     1.454   .     S
C15    C491    1.401   .     S
C16    N193    1.157   .     S
C17    N350    1.157   1_545 S
C18    C22     1.454   .     S
C18    N195    1.158   .     S
C19    C23     1.454   .     S
C19    N352    1.158   1_545 S
C20    N41     1.158   .     T
C20    N139    1.385   1_455 S
C21    N42     1.158   .     T
C21    N88     1.385   .     S
C22    C482    1.401   .     S
C23    C483    1.401   1_554 S
C24    C181    1.332   .     S
C24    H189    1.088   .     S
C25    C336    1.332   1_545 S
C25    H346    1.088   1_545 S
C26    O47     1.289   .     A
C26    O49     1.290   .     A
C27    O48     1.289   .     A
C27    O50     1.290   .     A
C28    H31     1.084   .     S
H33    C336    1.088   1_545 S
H34    C181    1.088   .     S
N35    Zn52    2.030   .     S
N35    C72     1.385   .     S
N35    N88     1.279   .     S
N36    Zn51    2.030   .     S
N36    N139    1.279   1_455 S
N36    C125    1.385   1_455 S
N37    C328    1.157   1_545 S
N38    C173    1.157   .     S
N39    C330    1.158   1_545 S
N40    C175    1.158   .     S
O43    Zn51    1.955   .     S
O44    Zn52    1.955   .     S
O45    Zn52    1.970   .     S
O46    Zn51    1.970   .     S
O47    Zn51    1.997   .     S
O48    Zn52    1.997   .     S
O49    Zn52    2.007   .     S
O50    Zn51    2.007   .     S
C53    O97     1.289   .     A
C53    C76     1.397   .     S
C53    O95     1.283   .     A
C54    C56     1.382   .     A
C54    H84     1.084   .     S
C54    C65     1.391   .     A
C55    C79     1.415   .     S
C55    C80     1.382   .     A
C55    C57     1.383   .     A
C56    C78     1.415   .     S
C56    C58     1.383   .     A
C57    C59     1.391   .     A
C57    H81     1.084   .     S
C58    C60     1.391   .     A
C58    H82     1.084   .     S
C59    C66     1.413   .     A
C59    C61     1.422   .     A
C60    C67     1.413   .     A
C60    C62     1.422   .     A
C61    C63     1.422   .     A
C61    C530    1.393   1_554 S
C62    C65     1.422   .     A
C62    C529    1.393   .     S
C63    C80     1.391   .     A
C63    C75     1.412   .     A
C64    C77     1.397   .     S
C64    O96     1.283   .     A
C64    O98     1.289   .     A
C65    C74     1.412   .     A
C66    C68     1.454   .     S
C66    C542    1.401   1_554 S
C67    C69     1.454   .     S
C67    C543    1.401   .     S
C68    N245    1.157   .     S
C69    N402    1.157   1_545 S
C70    C74     1.454   .     S
C70    N247    1.158   .     S
C71    C75     1.454   .     S
C71    N404    1.158   1_545 S
C72    N93     1.158   .     T
C73    N94     1.158   .     T
C73    N140    1.385   .     S
C74    C534    1.401   .     S
C75    C535    1.401   1_554 S
C76    C233    1.332   .     S
C76    H241    1.088   .     S
C77    C388    1.332   1_545 S
C77    H398    1.088   1_545 S
C78    O99     1.289   .     A
C78    O101    1.290   .     A
C79    O100    1.289   .     A
C79    O102    1.290   .     A
C80    H83     1.084   .     S
H85    C388    1.088   1_545 S
H86    C233    1.088   .     S
N87    Zn104   2.030   .     S
N87    C124    1.385   .     S
N87    N140    1.279   .     S
N88    Zn103   2.030   .     S
N89    C380    1.157   1_545 S
N90    C225    1.157   .     S
N91    C382    1.158   1_545 S
N92    C227    1.158   .     S
O95    Zn103   1.955   .     S
O96    Zn104   1.955   .     S
O97    Zn104   1.970   .     S
O98    Zn103   1.970   .     S
O99    Zn103   1.997   .     S
O100   Zn104   1.997   .     S
O101   Zn104   2.007   .     S
O102   Zn103   2.007   .     S
C105   O149    1.289   .     A
C105   C128    1.397   .     S
C105   O147    1.283   .     A
C106   C108    1.382   .     A
C106   H136    1.084   .     S
C106   C117    1.391   .     A
C107   C131    1.415   .     S
C107   C132    1.382   .     A
C107   C109    1.383   .     A
C108   C130    1.415   .     S
C108   C110    1.383   .     A
C109   C111    1.391   .     A
C109   H133    1.084   .     S
C110   C112    1.391   .     A
C110   H134    1.084   .     S
C111   C118    1.413   .     A
C111   C113    1.422   .     A
C112   C119    1.413   .     A
C112   C114    1.422   .     A
C113   C115    1.422   .     A
C113   C582    1.393   1_554 S
C114   C117    1.422   .     A
C114   C581    1.393   .     S
C115   C132    1.391   .     A
C115   C127    1.412   .     A
C116   C129    1.397   .     S
C116   O148    1.283   .     A
C116   O150    1.289   .     A
C117   C126    1.412   .     A
C118   C120    1.454   .     S
C118   C594    1.401   1_554 S
C119   C121    1.454   .     S
C119   C595    1.401   .     S
C120   N297    1.157   .     S
C121   N454    1.157   1_545 S
C122   C126    1.454   .     S
C122   N299    1.158   .     S
C123   C127    1.454   .     S
C123   N456    1.158   1_545 S
C124   N145    1.158   .     T
C125   N146    1.158   .     T
C125   N36     1.385   1_655 S
C126   C586    1.401   .     S
C127   C587    1.401   1_554 S
C128   C285    1.332   .     S
C128   H293    1.088   .     S
C129   C440    1.332   1_545 S
C129   H450    1.088   1_545 S
C130   O151    1.289   .     A
C130   O153    1.290   .     A
C131   O152    1.289   .     A
C131   O154    1.290   .     A
C132   H135    1.084   .     S
H137   C440    1.088   1_545 S
H138   C285    1.088   .     S
N139   Zn156   2.030   .     S
N139   C20     1.385   1_655 S
N139   N36     1.279   1_655 S
N140   Zn155   2.030   .     S
N141   C432    1.157   1_545 S
N142   C277    1.157   .     S
N143   C434    1.158   1_545 S
N144   C279    1.158   .     S
O147   Zn155   1.955   .     S
O148   Zn156   1.955   .     S
O149   Zn156   1.970   .     S
O150   Zn155   1.970   .     S
O151   Zn155   1.997   .     S
O152   Zn156   1.997   .     S
O153   Zn156   2.007   .     S
O154   Zn155   2.007   .     S
C157   O201    1.289   .     A
C157   C180    1.397   .     S
C157   O199    1.283   .     A
C158   C160    1.382   .     A
C158   H188    1.084   .     S
C158   C169    1.391   .     A
C159   C183    1.415   .     S
C159   C184    1.382   .     A
C159   C161    1.383   .     A
C160   C182    1.415   .     S
C160   C162    1.383   .     A
C161   C163    1.391   .     A
C161   H185    1.084   .     S
C162   C164    1.391   .     A
C162   H186    1.084   .     S
C163   C170    1.413   .     A
C163   C165    1.422   .     A
C164   C171    1.413   .     A
C164   C166    1.422   .     A
C165   C167    1.422   .     A
C165   C634    1.393   1_554 S
C166   C169    1.422   .     A
C166   C633    1.393   .     S
C167   C184    1.391   .     A
C167   C179    1.412   .     A
C168   C181    1.397   .     S
C168   O200    1.283   .     A
C168   O202    1.289   .     A
C169   C178    1.412   .     A
C170   C172    1.454   .     S
C170   C646    1.401   1_554 S
C171   C173    1.454   .     S
C171   C647    1.401   .     S
C172   N349    1.157   .     S
C174   C178    1.454   .     S
C174   N351    1.158   .     S
C175   C179    1.454   .     S
C176   N197    1.158   .     T
C176   N295    1.385   1_455 S
C177   N198    1.158   .     T
C177   N244    1.385   .     S
C178   C638    1.401   .     S
C179   C639    1.401   1_554 S
C180   C337    1.332   .     S
C180   H345    1.088   .     S
C182   O203    1.289   .     A
C182   O205    1.290   .     A
C183   O204    1.289   .     A
C183   O206    1.290   .     A
C184   H187    1.084   .     S
H190   C337    1.088   .     S
N191   Zn208   2.030   .     S
N191   C228    1.385   .     S
N191   N244    1.279   .     S
N192   Zn207   2.030   .     S
N192   N295    1.279   1_455 S
N192   C281    1.385   1_455 S
N194   C329    1.157   .     S
N196   C331    1.158   .     S
O199   Zn207   1.955   .     S
O200   Zn208   1.955   .     S
O201   Zn208   1.970   .     S
O202   Zn207   1.970   .     S
O203   Zn207   1.997   .     S
O204   Zn208   1.997   .     S
O205   Zn208   2.007   .     S
O206   Zn207   2.007   .     S
C209   O253    1.289   .     A
C209   C232    1.397   .     S
C209   O251    1.283   .     A
C210   C212    1.382   .     A
C210   H240    1.084   .     S
C210   C221    1.391   .     A
C211   C235    1.415   .     S
C211   C236    1.382   .     A
C211   C213    1.383   .     A
C212   C234    1.415   .     S
C212   C214    1.383   .     A
C213   C215    1.391   .     A
C213   H237    1.084   .     S
C214   C216    1.391   .     A
C214   H238    1.084   .     S
C215   C222    1.413   .     A
C215   C217    1.422   .     A
C216   C223    1.413   .     A
C216   C218    1.422   .     A
C217   C219    1.422   .     A
C217   C686    1.393   1_554 S
C218   C221    1.422   .     A
C218   C685    1.393   .     S
C219   C236    1.391   .     A
C219   C231    1.412   .     A
C220   C233    1.397   .     S
C220   O252    1.283   .     A
C220   O254    1.289   .     A
C221   C230    1.412   .     A
C222   C224    1.454   .     S
C222   C698    1.401   1_554 S
C223   C225    1.454   .     S
C223   C699    1.401   .     S
C224   N401    1.157   .     S
C226   C230    1.454   .     S
C226   N403    1.158   .     S
C227   C231    1.454   .     S
C228   N249    1.158   .     T
C229   N250    1.158   .     T
C229   N296    1.385   .     S
C230   C690    1.401   .     S
C231   C691    1.401   1_554 S
C232   C389    1.332   .     S
C232   H397    1.088   .     S
C234   O255    1.289   .     A
C234   O257    1.290   .     A
C235   O256    1.289   .     A
C235   O258    1.290   .     A
C236   H239    1.084   .     S
H242   C389    1.088   .     S
N243   Zn260   2.030   .     S
N243   C280    1.385   .     S
N243   N296    1.279   .     S
N244   Zn259   2.030   .     S
N246   C381    1.157   .     S
N248   C383    1.158   .     S
O251   Zn259   1.955   .     S
O252   Zn260   1.955   .     S
O253   Zn260   1.970   .     S
O254   Zn259   1.970   .     S
O255   Zn259   1.997   .     S
O256   Zn260   1.997   .     S
O257   Zn260   2.007   .     S
O258   Zn259   2.007   .     S
C261   O305    1.289   .     A
C261   C284    1.397   .     S
C261   O303    1.283   .     A
C262   C264    1.382   .     A
C262   H292    1.084   .     S
C262   C273    1.391   .     A
C263   C287    1.415   .     S
C263   C288    1.382   .     A
C263   C265    1.383   .     A
C264   C286    1.415   .     S
C264   C266    1.383   .     A
C265   C267    1.391   .     A
C265   H289    1.084   .     S
C266   C268    1.391   .     A
C266   H290    1.084   .     S
C267   C274    1.413   .     A
C267   C269    1.422   .     A
C268   C275    1.413   .     A
C268   C270    1.422   .     A
C269   C271    1.422   .     A
C269   C738    1.393   1_554 S
C270   C273    1.422   .     A
C270   C737    1.393   .     S
C271   C288    1.391   .     A
C271   C283    1.412   .     A
C272   C285    1.397   .     S
C272   O304    1.283   .     A
C272   O306    1.289   .     A
C273   C282    1.412   .     A
C274   C276    1.454   .     S
C274   C750    1.401   1_554 S
C275   C277    1.454   .     S
C275   C751    1.401   .     S
C276   N453    1.157   .     S
C278   C282    1.454   .     S
C278   N455    1.158   .     S
C279   C283    1.454   .     S
C280   N301    1.158   .     T
C281   N302    1.158   .     T
C281   N192    1.385   1_655 S
C282   C742    1.401   .     S
C283   C743    1.401   1_554 S
C284   C441    1.332   .     S
C284   H449    1.088   .     S
C286   O307    1.289   .     A
C286   O309    1.290   .     A
C287   O308    1.289   .     A
C287   O310    1.290   .     A
C288   H291    1.084   .     S
H294   C441    1.088   .     S
N295   Zn312   2.030   .     S
N295   C176    1.385   1_655 S
N295   N192    1.279   1_655 S
N296   Zn311   2.030   .     S
N298   C433    1.157   .     S
N300   C435    1.158   .     S
O303   Zn311   1.955   .     S
O304   Zn312   1.955   .     S
O305   Zn312   1.970   .     S
O306   Zn311   1.970   .     S
O307   Zn311   1.997   .     S
O308   Zn312   1.997   .     S
O309   Zn312   2.007   .     S
O310   Zn311   2.007   .     S
C313   O357    1.289   .     A
C313   C336    1.397   .     S
C313   O355    1.283   .     A
C314   C316    1.382   .     A
C314   H344    1.084   .     S
C314   C325    1.391   .     A
C315   C339    1.415   .     S
C315   C340    1.382   .     A
C315   C317    1.383   .     A
C316   C338    1.415   .     S
C316   C318    1.383   .     A
C317   C319    1.391   .     A
C317   H341    1.084   .     S
C318   C320    1.391   .     A
C318   H342    1.084   .     S
C319   C326    1.413   .     A
C319   C321    1.422   .     A
C320   C327    1.413   .     A
C320   C322    1.422   .     A
C321   C323    1.422   .     A
C321   C790    1.393   1_554 S
C322   C325    1.422   .     A
C322   C789    1.393   .     S
C323   C340    1.391   .     A
C323   C335    1.412   .     A
C324   C337    1.397   .     S
C324   O356    1.283   .     A
C324   O358    1.289   .     A
C325   C334    1.412   .     A
C326   C328    1.454   .     S
C326   C802    1.401   1_554 S
C327   C329    1.454   .     S
C327   C803    1.401   .     S
C328   N37     1.157   1_565 S
C330   C334    1.454   .     S
C330   N39     1.158   1_565 S
C331   C335    1.454   .     S
C332   N353    1.158   .     T
C332   N451    1.385   1_455 S
C333   N354    1.158   .     T
C333   N400    1.385   .     S
C334   C794    1.401   .     S
C335   C795    1.401   1_554 S
C336   C25     1.332   1_565 S
C336   H33     1.088   1_565 S
C338   O359    1.289   .     A
C338   O361    1.290   .     A
C339   O360    1.289   .     A
C339   O362    1.290   .     A
C340   H343    1.084   .     S
H346   C25     1.088   1_565 S
N347   Zn364   2.030   .     S
N347   C384    1.385   .     S
N347   N400    1.279   .     S
N348   Zn363   2.030   .     S
N348   N451    1.279   1_455 S
N348   C437    1.385   1_455 S
N350   C17     1.157   1_565 S
N352   C19     1.158   1_565 S
O355   Zn363   1.955   .     S
O356   Zn364   1.955   .     S
O357   Zn364   1.970   .     S
O358   Zn363   1.970   .     S
O359   Zn363   1.997   .     S
O360   Zn364   1.997   .     S
O361   Zn364   2.007   .     S
O362   Zn363   2.007   .     S
C365   O409    1.289   .     A
C365   C388    1.397   .     S
C365   O407    1.283   .     A
C366   C368    1.382   .     A
C366   H396    1.084   .     S
C366   C377    1.391   .     A
C367   C391    1.415   .     S
C367   C392    1.382   .     A
C367   C369    1.383   .     A
C368   C390    1.415   .     S
C368   C370    1.383   .     A
C369   C371    1.391   .     A
C369   H393    1.084   .     S
C370   C372    1.391   .     A
C370   H394    1.084   .     S
C371   C378    1.413   .     A
C371   C373    1.422   .     A
C372   C379    1.413   .     A
C372   C374    1.422   .     A
C373   C375    1.422   .     A
C373   C842    1.393   1_554 S
C374   C377    1.422   .     A
C374   C841    1.393   .     S
C375   C392    1.391   .     A
C375   C387    1.412   .     A
C376   C389    1.397   .     S
C376   O408    1.283   .     A
C376   O410    1.289   .     A
C377   C386    1.412   .     A
C378   C380    1.454   .     S
C378   C854    1.401   1_554 S
C379   C381    1.454   .     S
C379   C855    1.401   .     S
C380   N89     1.157   1_565 S
C382   C386    1.454   .     S
C382   N91     1.158   1_565 S
C383   C387    1.454   .     S
C384   N405    1.158   .     T
C385   N406    1.158   .     T
C385   N452    1.385   .     S
C386   C846    1.401   .     S
C387   C847    1.401   1_554 S
C388   C77     1.332   1_565 S
C388   H85     1.088   1_565 S
C390   O411    1.289   .     A
C390   O413    1.290   .     A
C391   O412    1.289   .     A
C391   O414    1.290   .     A
C392   H395    1.084   .     S
H398   C77     1.088   1_565 S
N399   Zn416   2.030   .     S
N399   C436    1.385   .     S
N399   N452    1.279   .     S
N400   Zn415   2.030   .     S
N402   C69     1.157   1_565 S
N404   C71     1.158   1_565 S
O407   Zn415   1.955   .     S
O408   Zn416   1.955   .     S
O409   Zn416   1.970   .     S
O410   Zn415   1.970   .     S
O411   Zn415   1.997   .     S
O412   Zn416   1.997   .     S
O413   Zn416   2.007   .     S
O414   Zn415   2.007   .     S
C417   O461    1.289   .     A
C417   C440    1.397   .     S
C417   O459    1.283   .     A
C418   C420    1.382   .     A
C418   H448    1.084   .     S
C418   C429    1.391   .     A
C419   C443    1.415   .     S
C419   C444    1.382   .     A
C419   C421    1.383   .     A
C420   C442    1.415   .     S
C420   C422    1.383   .     A
C421   C423    1.391   .     A
C421   H445    1.084   .     S
C422   C424    1.391   .     A
C422   H446    1.084   .     S
C423   C430    1.413   .     A
C423   C425    1.422   .     A
C424   C431    1.413   .     A
C424   C426    1.422   .     A
C425   C427    1.422   .     A
C425   C894    1.393   1_554 S
C426   C429    1.422   .     A
C426   C893    1.393   .     S
C427   C444    1.391   .     A
C427   C439    1.412   .     A
C428   C441    1.397   .     S
C428   O460    1.283   .     A
C428   O462    1.289   .     A
C429   C438    1.412   .     A
C430   C432    1.454   .     S
C430   C906    1.401   1_554 S
C431   C433    1.454   .     S
C431   C907    1.401   .     S
C432   N141    1.157   1_565 S
C434   C438    1.454   .     S
C434   N143    1.158   1_565 S
C435   C439    1.454   .     S
C436   N457    1.158   .     T
C437   N458    1.158   .     T
C437   N348    1.385   1_655 S
C438   C898    1.401   .     S
C439   C899    1.401   1_554 S
C440   C129    1.332   1_565 S
C440   H137    1.088   1_565 S
C442   O463    1.289   .     A
C442   O465    1.290   .     A
C443   O464    1.289   .     A
C443   O466    1.290   .     A
C444   H447    1.084   .     S
H450   C129    1.088   1_565 S
N451   Zn468   2.030   .     S
N451   C332    1.385   1_655 S
N451   N348    1.279   1_655 S
N452   Zn467   2.030   .     S
N454   C121    1.157   1_565 S
N456   C123    1.158   1_565 S
O459   Zn467   1.955   .     S
O460   Zn468   1.955   .     S
O461   Zn468   1.970   .     S
O462   Zn467   1.970   .     S
O463   Zn467   1.997   .     S
O464   Zn468   1.997   .     S
O465   Zn468   2.007   .     S
O466   Zn467   2.007   .     S
C469   O513    1.289   .     A
C469   C492    1.397   .     S
C469   O511    1.283   .     A
C470   C472    1.382   .     A
C470   H500    1.084   .     S
C470   C481    1.391   .     A
C471   C495    1.415   .     S
C471   C496    1.382   .     A
C471   C473    1.383   .     A
C472   C494    1.415   .     S
C472   C474    1.383   .     A
C473   C475    1.391   .     A
C473   H497    1.084   .     S
C474   C476    1.391   .     A
C474   H498    1.084   .     S
C475   C482    1.413   .     A
C475   C477    1.422   .     A
C476   C483    1.413   .     A
C476   C478    1.422   .     A
C477   C479    1.422   .     A
C478   C481    1.422   .     A
C478   C9      1.393   1_556 S
C479   C496    1.391   .     A
C479   C491    1.412   .     A
C480   C493    1.397   .     S
C480   O512    1.283   .     A
C480   O514    1.289   .     A
C481   C490    1.412   .     A
C482   C484    1.454   .     S
C483   C485    1.454   .     S
C483   C23     1.401   1_556 S
C484   N661    1.157   .     S
C485   N818    1.157   1_545 S
C486   C490    1.454   .     S
C486   N663    1.158   .     S
C487   C491    1.454   .     S
C487   N820    1.158   1_545 S
C488   N509    1.158   .     T
C488   N607    1.385   1_455 S
C489   N510    1.158   .     T
C489   N556    1.385   .     S
C490   C14     1.401   1_556 S
C492   C649    1.332   .     S
C492   H657    1.088   .     S
C493   C804    1.332   1_545 S
C493   H814    1.088   1_545 S
C494   O515    1.289   .     A
C494   O517    1.290   .     A
C495   O516    1.289   .     A
C495   O518    1.290   .     A
C496   H499    1.084   .     S
H501   C804    1.088   1_545 S
H502   C649    1.088   .     S
N503   Zn520   2.030   .     S
N503   C540    1.385   .     S
N503   N556    1.279   .     S
N504   Zn519   2.030   .     S
N504   N607    1.279   1_455 S
N504   C593    1.385   1_455 S
N505   C796    1.157   1_545 S
N506   C641    1.157   .     S
N507   C798    1.158   1_545 S
N508   C643    1.158   .     S
O511   Zn519   1.955   .     S
O512   Zn520   1.955   .     S
O513   Zn520   1.970   .     S
O514   Zn519   1.970   .     S
O515   Zn519   1.997   .     S
O516   Zn520   1.997   .     S
O517   Zn520   2.007   .     S
O518   Zn519   2.007   .     S
C521   O565    1.289   .     A
C521   C544    1.397   .     S
C521   O563    1.283   .     A
C522   C524    1.382   .     A
C522   H552    1.084   .     S
C522   C533    1.391   .     A
C523   C547    1.415   .     S
C523   C548    1.382   .     A
C523   C525    1.383   .     A
C524   C546    1.415   .     S
C524   C526    1.383   .     A
C525   C527    1.391   .     A
C525   H549    1.084   .     S
C526   C528    1.391   .     A
C526   H550    1.084   .     S
C527   C534    1.413   .     A
C527   C529    1.422   .     A
C528   C535    1.413   .     A
C528   C530    1.422   .     A
C529   C531    1.422   .     A
C530   C533    1.422   .     A
C530   C61     1.393   1_556 S
C531   C548    1.391   .     A
C531   C543    1.412   .     A
C532   C545    1.397   .     S
C532   O564    1.283   .     A
C532   O566    1.289   .     A
C533   C542    1.412   .     A
C534   C536    1.454   .     S
C535   C537    1.454   .     S
C535   C75     1.401   1_556 S
C536   N713    1.157   .     S
C537   N870    1.157   1_545 S
C538   C542    1.454   .     S
C538   N715    1.158   .     S
C539   C543    1.454   .     S
C539   N872    1.158   1_545 S
C540   N561    1.158   .     T
C541   N562    1.158   .     T
C541   N608    1.385   .     S
C542   C66     1.401   1_556 S
C544   C701    1.332   .     S
C544   H709    1.088   .     S
C545   C856    1.332   1_545 S
C545   H866    1.088   1_545 S
C546   O567    1.289   .     A
C546   O569    1.290   .     A
C547   O568    1.289   .     A
C547   O570    1.290   .     A
C548   H551    1.084   .     S
H553   C856    1.088   1_545 S
H554   C701    1.088   .     S
N555   Zn572   2.030   .     S
N555   C592    1.385   .     S
N555   N608    1.279   .     S
N556   Zn571   2.030   .     S
N557   C848    1.157   1_545 S
N558   C693    1.157   .     S
N559   C850    1.158   1_545 S
N560   C695    1.158   .     S
O563   Zn571   1.955   .     S
O564   Zn572   1.955   .     S
O565   Zn572   1.970   .     S
O566   Zn571   1.970   .     S
O567   Zn571   1.997   .     S
O568   Zn572   1.997   .     S
O569   Zn572   2.007   .     S
O570   Zn571   2.007   .     S
C573   O617    1.289   .     A
C573   C596    1.397   .     S
C573   O615    1.283   .     A
C574   C576    1.382   .     A
C574   H604    1.084   .     S
C574   C585    1.391   .     A
C575   C599    1.415   .     S
C575   C600    1.382   .     A
C575   C577    1.383   .     A
C576   C598    1.415   .     S
C576   C578    1.383   .     A
C577   C579    1.391   .     A
C577   H601    1.084   .     S
C578   C580    1.391   .     A
C578   H602    1.084   .     S
C579   C586    1.413   .     A
C579   C581    1.422   .     A
C580   C587    1.413   .     A
C580   C582    1.422   .     A
C581   C583    1.422   .     A
C582   C585    1.422   .     A
C582   C113    1.393   1_556 S
C583   C600    1.391   .     A
C583   C595    1.412   .     A
C584   C597    1.397   .     S
C584   O616    1.283   .     A
C584   O618    1.289   .     A
C585   C594    1.412   .     A
C586   C588    1.454   .     S
C587   C589    1.454   .     S
C587   C127    1.401   1_556 S
C588   N765    1.157   .     S
C589   N922    1.157   1_545 S
C590   C594    1.454   .     S
C590   N767    1.158   .     S
C591   C595    1.454   .     S
C591   N924    1.158   1_545 S
C592   N613    1.158   .     T
C593   N614    1.158   .     T
C593   N504    1.385   1_655 S
C594   C118    1.401   1_556 S
C596   C753    1.332   .     S
C596   H761    1.088   .     S
C597   C908    1.332   1_545 S
C597   H918    1.088   1_545 S
C598   O619    1.289   .     A
C598   O621    1.290   .     A
C599   O620    1.289   .     A
C599   O622    1.290   .     A
C600   H603    1.084   .     S
H605   C908    1.088   1_545 S
H606   C753    1.088   .     S
N607   Zn624   2.030   .     S
N607   C488    1.385   1_655 S
N607   N504    1.279   1_655 S
N608   Zn623   2.030   .     S
N609   C900    1.157   1_545 S
N610   C745    1.157   .     S
N611   C902    1.158   1_545 S
N612   C747    1.158   .     S
O615   Zn623   1.955   .     S
O616   Zn624   1.955   .     S
O617   Zn624   1.970   .     S
O618   Zn623   1.970   .     S
O619   Zn623   1.997   .     S
O620   Zn624   1.997   .     S
O621   Zn624   2.007   .     S
O622   Zn623   2.007   .     S
C625   O669    1.289   .     A
C625   C648    1.397   .     S
C625   O667    1.283   .     A
C626   C628    1.382   .     A
C626   H656    1.084   .     S
C626   C637    1.391   .     A
C627   C651    1.415   .     S
C627   C652    1.382   .     A
C627   C629    1.383   .     A
C628   C650    1.415   .     S
C628   C630    1.383   .     A
C629   C631    1.391   .     A
C629   H653    1.084   .     S
C630   C632    1.391   .     A
C630   H654    1.084   .     S
C631   C638    1.413   .     A
C631   C633    1.422   .     A
C632   C639    1.413   .     A
C632   C634    1.422   .     A
C633   C635    1.422   .     A
C634   C637    1.422   .     A
C634   C165    1.393   1_556 S
C635   C652    1.391   .     A
C635   C647    1.412   .     A
C636   C649    1.397   .     S
C636   O668    1.283   .     A
C636   O670    1.289   .     A
C637   C646    1.412   .     A
C638   C640    1.454   .     S
C639   C641    1.454   .     S
C639   C179    1.401   1_556 S
C640   N817    1.157   .     S
C642   C646    1.454   .     S
C642   N819    1.158   .     S
C643   C647    1.454   .     S
C644   N665    1.158   .     T
C644   N763    1.385   1_455 S
C645   N666    1.158   .     T
C645   N712    1.385   .     S
C646   C170    1.401   1_556 S
C648   C805    1.332   .     S
C648   H813    1.088   .     S
C650   O671    1.289   .     A
C650   O673    1.290   .     A
C651   O672    1.289   .     A
C651   O674    1.290   .     A
C652   H655    1.084   .     S
H658   C805    1.088   .     S
N659   Zn676   2.030   .     S
N659   C696    1.385   .     S
N659   N712    1.279   .     S
N660   Zn675   2.030   .     S
N660   N763    1.279   1_455 S
N660   C749    1.385   1_455 S
N662   C797    1.157   .     S
N664   C799    1.158   .     S
O667   Zn675   1.955   .     S
O668   Zn676   1.955   .     S
O669   Zn676   1.970   .     S
O670   Zn675   1.970   .     S
O671   Zn675   1.997   .     S
O672   Zn676   1.997   .     S
O673   Zn676   2.007   .     S
O674   Zn675   2.007   .     S
C677   O721    1.289   .     A
C677   C700    1.397   .     S
C677   O719    1.283   .     A
C678   C680    1.382   .     A
C678   H708    1.084   .     S
C678   C689    1.391   .     A
C679   C703    1.415   .     S
C679   C704    1.382   .     A
C679   C681    1.383   .     A
C680   C702    1.415   .     S
C680   C682    1.383   .     A
C681   C683    1.391   .     A
C681   H705    1.084   .     S
C682   C684    1.391   .     A
C682   H706    1.084   .     S
C683   C690    1.413   .     A
C683   C685    1.422   .     A
C684   C691    1.413   .     A
C684   C686    1.422   .     A
C685   C687    1.422   .     A
C686   C689    1.422   .     A
C686   C217    1.393   1_556 S
C687   C704    1.391   .     A
C687   C699    1.412   .     A
C688   C701    1.397   .     S
C688   O720    1.283   .     A
C688   O722    1.289   .     A
C689   C698    1.412   .     A
C690   C692    1.454   .     S
C691   C693    1.454   .     S
C691   C231    1.401   1_556 S
C692   N869    1.157   .     S
C694   C698    1.454   .     S
C694   N871    1.158   .     S
C695   C699    1.454   .     S
C696   N717    1.158   .     T
C697   N718    1.158   .     T
C697   N764    1.385   .     S
C698   C222    1.401   1_556 S
C700   C857    1.332   .     S
C700   H865    1.088   .     S
C702   O723    1.289   .     A
C702   O725    1.290   .     A
C703   O724    1.289   .     A
C703   O726    1.290   .     A
C704   H707    1.084   .     S
H710   C857    1.088   .     S
N711   Zn728   2.030   .     S
N711   C748    1.385   .     S
N711   N764    1.279   .     S
N712   Zn727   2.030   .     S
N714   C849    1.157   .     S
N716   C851    1.158   .     S
O719   Zn727   1.955   .     S
O720   Zn728   1.955   .     S
O721   Zn728   1.970   .     S
O722   Zn727   1.970   .     S
O723   Zn727   1.997   .     S
O724   Zn728   1.997   .     S
O725   Zn728   2.007   .     S
O726   Zn727   2.007   .     S
C729   O773    1.289   .     A
C729   C752    1.397   .     S
C729   O771    1.283   .     A
C730   C732    1.382   .     A
C730   H760    1.084   .     S
C730   C741    1.391   .     A
C731   C755    1.415   .     S
C731   C756    1.382   .     A
C731   C733    1.383   .     A
C732   C754    1.415   .     S
C732   C734    1.383   .     A
C733   C735    1.391   .     A
C733   H757    1.084   .     S
C734   C736    1.391   .     A
C734   H758    1.084   .     S
C735   C742    1.413   .     A
C735   C737    1.422   .     A
C736   C743    1.413   .     A
C736   C738    1.422   .     A
C737   C739    1.422   .     A
C738   C741    1.422   .     A
C738   C269    1.393   1_556 S
C739   C756    1.391   .     A
C739   C751    1.412   .     A
C740   C753    1.397   .     S
C740   O772    1.283   .     A
C740   O774    1.289   .     A
C741   C750    1.412   .     A
C742   C744    1.454   .     S
C743   C745    1.454   .     S
C743   C283    1.401   1_556 S
C744   N921    1.157   .     S
C746   C750    1.454   .     S
C746   N923    1.158   .     S
C747   C751    1.454   .     S
C748   N769    1.158   .     T
C749   N770    1.158   .     T
C749   N660    1.385   1_655 S
C750   C274    1.401   1_556 S
C752   C909    1.332   .     S
C752   H917    1.088   .     S
C754   O775    1.289   .     A
C754   O777    1.290   .     A
C755   O776    1.289   .     A
C755   O778    1.290   .     A
C756   H759    1.084   .     S
H762   C909    1.088   .     S
N763   Zn780   2.030   .     S
N763   C644    1.385   1_655 S
N763   N660    1.279   1_655 S
N764   Zn779   2.030   .     S
N766   C901    1.157   .     S
N768   C903    1.158   .     S
O771   Zn779   1.955   .     S
O772   Zn780   1.955   .     S
O773   Zn780   1.970   .     S
O774   Zn779   1.970   .     S
O775   Zn779   1.997   .     S
O776   Zn780   1.997   .     S
O777   Zn780   2.007   .     S
O778   Zn779   2.007   .     S
C781   O825    1.289   .     A
C781   C804    1.397   .     S
C781   O823    1.283   .     A
C782   C784    1.382   .     A
C782   H812    1.084   .     S
C782   C793    1.391   .     A
C783   C807    1.415   .     S
C783   C808    1.382   .     A
C783   C785    1.383   .     A
C784   C806    1.415   .     S
C784   C786    1.383   .     A
C785   C787    1.391   .     A
C785   H809    1.084   .     S
C786   C788    1.391   .     A
C786   H810    1.084   .     S
C787   C794    1.413   .     A
C787   C789    1.422   .     A
C788   C795    1.413   .     A
C788   C790    1.422   .     A
C789   C791    1.422   .     A
C790   C793    1.422   .     A
C790   C321    1.393   1_556 S
C791   C808    1.391   .     A
C791   C803    1.412   .     A
C792   C805    1.397   .     S
C792   O824    1.283   .     A
C792   O826    1.289   .     A
C793   C802    1.412   .     A
C794   C796    1.454   .     S
C795   C797    1.454   .     S
C795   C335    1.401   1_556 S
C796   N505    1.157   1_565 S
C798   C802    1.454   .     S
C798   N507    1.158   1_565 S
C799   C803    1.454   .     S
C800   N821    1.158   .     T
C800   N919    1.385   1_455 S
C801   N822    1.158   .     T
C801   N868    1.385   .     S
C802   C326    1.401   1_556 S
C804   C493    1.332   1_565 S
C804   H501    1.088   1_565 S
C806   O827    1.289   .     A
C806   O829    1.290   .     A
C807   O828    1.289   .     A
C807   O830    1.290   .     A
C808   H811    1.084   .     S
H814   C493    1.088   1_565 S
N815   Zn832   2.030   .     S
N815   C852    1.385   .     S
N815   N868    1.279   .     S
N816   Zn831   2.030   .     S
N816   N919    1.279   1_455 S
N816   C905    1.385   1_455 S
N818   C485    1.157   1_565 S
N820   C487    1.158   1_565 S
O823   Zn831   1.955   .     S
O824   Zn832   1.955   .     S
O825   Zn832   1.970   .     S
O826   Zn831   1.970   .     S
O827   Zn831   1.997   .     S
O828   Zn832   1.997   .     S
O829   Zn832   2.007   .     S
O830   Zn831   2.007   .     S
C833   O877    1.289   .     A
C833   C856    1.397   .     S
C833   O875    1.283   .     A
C834   C836    1.382   .     A
C834   H864    1.084   .     S
C834   C845    1.391   .     A
C835   C859    1.415   .     S
C835   C860    1.382   .     A
C835   C837    1.383   .     A
C836   C858    1.415   .     S
C836   C838    1.383   .     A
C837   C839    1.391   .     A
C837   H861    1.084   .     S
C838   C840    1.391   .     A
C838   H862    1.084   .     S
C839   C846    1.413   .     A
C839   C841    1.422   .     A
C840   C847    1.413   .     A
C840   C842    1.422   .     A
C841   C843    1.422   .     A
C842   C845    1.422   .     A
C842   C373    1.393   1_556 S
C843   C860    1.391   .     A
C843   C855    1.412   .     A
C844   C857    1.397   .     S
C844   O876    1.283   .     A
C844   O878    1.289   .     A
C845   C854    1.412   .     A
C846   C848    1.454   .     S
C847   C849    1.454   .     S
C847   C387    1.401   1_556 S
C848   N557    1.157   1_565 S
C850   C854    1.454   .     S
C850   N559    1.158   1_565 S
C851   C855    1.454   .     S
C852   N873    1.158   .     T
C853   N874    1.158   .     T
C853   N920    1.385   .     S
C854   C378    1.401   1_556 S
C856   C545    1.332   1_565 S
C856   H553    1.088   1_565 S
C858   O879    1.289   .     A
C858   O881    1.290   .     A
C859   O880    1.289   .     A
C859   O882    1.290   .     A
C860   H863    1.084   .     S
H866   C545    1.088   1_565 S
N867   Zn884   2.030   .     S
N867   C904    1.385   .     S
N867   N920    1.279   .     S
N868   Zn883   2.030   .     S
N870   C537    1.157   1_565 S
N872   C539    1.158   1_565 S
O875   Zn883   1.955   .     S
O876   Zn884   1.955   .     S
O877   Zn884   1.970   .     S
O878   Zn883   1.970   .     S
O879   Zn883   1.997   .     S
O880   Zn884   1.997   .     S
O881   Zn884   2.007   .     S
O882   Zn883   2.007   .     S
C885   O929    1.289   .     A
C885   C908    1.397   .     S
C885   O927    1.283   .     A
C886   C888    1.382   .     A
C886   H916    1.084   .     S
C886   C897    1.391   .     A
C887   C911    1.415   .     S
C887   C912    1.382   .     A
C887   C889    1.383   .     A
C888   C910    1.415   .     S
C888   C890    1.383   .     A
C889   C891    1.391   .     A
C889   H913    1.084   .     S
C890   C892    1.391   .     A
C890   H914    1.084   .     S
C891   C898    1.413   .     A
C891   C893    1.422   .     A
C892   C899    1.413   .     A
C892   C894    1.422   .     A
C893   C895    1.422   .     A
C894   C897    1.422   .     A
C894   C425    1.393   1_556 S
C895   C912    1.391   .     A
C895   C907    1.412   .     A
C896   C909    1.397   .     S
C896   O928    1.283   .     A
C896   O930    1.289   .     A
C897   C906    1.412   .     A
C898   C900    1.454   .     S
C899   C901    1.454   .     S
C899   C439    1.401   1_556 S
C900   N609    1.157   1_565 S
C902   C906    1.454   .     S
C902   N611    1.158   1_565 S
C903   C907    1.454   .     S
C904   N925    1.158   .     T
C905   N926    1.158   .     T
C905   N816    1.385   1_655 S
C906   C430    1.401   1_556 S
C908   C597    1.332   1_565 S
C908   H605    1.088   1_565 S
C910   O931    1.289   .     A
C910   O933    1.290   .     A
C911   O932    1.289   .     A
C911   O934    1.290   .     A
C912   H915    1.084   .     S
H918   C597    1.088   1_565 S
N919   Zn936   2.030   .     S
N919   C800    1.385   1_655 S
N919   N816    1.279   1_655 S
N920   Zn935   2.030   .     S
N922   C589    1.157   1_565 S
N924   C591    1.158   1_565 S
O927   Zn935   1.955   .     S
O928   Zn936   1.955   .     S
O929   Zn936   1.970   .     S
O930   Zn935   1.970   .     S
O931   Zn935   1.997   .     S
O932   Zn936   1.997   .     S
O933   Zn936   2.007   .     S
O934   Zn935   2.007   .     S
