data_str_m3_o10_o18_pcu_sym.30
_audit_creation_date              2020-01-03
_audit_creation_method            'Materials Studio'
_symmetry_space_group_name_H-M    'P1'
_symmetry_Int_Tables_number       1
_symmetry_cell_setting            triclinic
loop_
_symmetry_equiv_pos_as_xyz
  x,y,z
_cell_length_a                    23.6922
_cell_length_b                    25.8144
_cell_length_c                    27.1545
_cell_angle_alpha                 94.4962
_cell_angle_beta                  92.7447
_cell_angle_gamma                 93.8168
loop_
_atom_site_label
_atom_site_type_symbol
_atom_site_fract_x
_atom_site_fract_y
_atom_site_fract_z
_atom_site_U_iso_or_equiv
_atom_site_adp_type
_atom_site_occupancy
Br1    Br    0.25039   0.25418   0.11254   0.00000  Uiso   1.00
Br2    Br    0.08295   0.07915   0.38747   0.00000  Uiso   1.00
Br3    Br    0.16751   0.09739   0.19374   0.00000  Uiso   1.00
Br4    Br    0.16583   0.23594   0.30626   0.00000  Uiso   1.00
C5     C     0.01476   0.26465   0.24886   0.00000  Uiso   1.00
C6     C     0.31264   0.16291   0.15875   0.00000  Uiso   1.00
C7     C     0.03057   0.17599   0.39452   0.00000  Uiso   1.00
C8     C     0.30276   0.15735   0.10548   0.00000  Uiso   1.00
C9     C     0.02102   0.22420   0.47310   0.00000  Uiso   1.00
C10    C     0.31231   0.10913   0.02690   0.00000  Uiso   1.00
C11    C     0.00308   0.21268   0.42365   0.00000  Uiso   1.00
C12    C     0.33025   0.12065   0.07635   0.00000  Uiso   1.00
C13    C     0.07407   0.14961   0.41509   0.00000  Uiso   1.00
C14    C     0.25926   0.18372   0.08491   0.00000  Uiso   1.00
C15    C     0.10069   0.16994   0.46041   0.00000  Uiso   1.00
C16    C     0.31858   0.06868   0.25114   0.00000  Uiso   1.00
C17    C     0.23264   0.16340   0.03959   0.00000  Uiso   1.00
C18    C     0.07048   0.20384   0.49145   0.00000  Uiso   1.00
C19    C     0.26285   0.12949   0.00855   0.00000  Uiso   1.00
C20    C     0.15630   0.15876   0.47549   0.00000  Uiso   1.00
C21    C     0.17703   0.17458   0.02451   0.00000  Uiso   1.00
C22    C     0.14028   0.19815   0.05762   0.00000  Uiso   1.00
C23    C     0.19305   0.13519   0.44238   0.00000  Uiso   1.00
C24    C     0.08940   0.21568   0.04058   0.00000  Uiso   1.00
C25    C     0.24394   0.11766   0.45942   0.00000  Uiso   1.00
C26    C     0.02276   0.31896   0.24962   0.00000  Uiso   1.00
C27    C     0.31058   0.01437   0.25038   0.00000  Uiso   1.00
C28    C     0.02070   0.17042   0.34125   0.00000  Uiso   1.00
F29    F     0.07751   0.00602   0.25084   0.00000  Uiso   1.00
F30    F     0.25582   0.32731   0.24916   0.00000  Uiso   1.00
H31    H     0.06419   0.23741   0.06611   0.00000  Uiso   1.00
H32    H     0.26914   0.09593   0.43389   0.00000  Uiso   1.00
H33    H     0.03174   0.10092   0.09183   0.00000  Uiso   1.00
H34    H     0.30159   0.23241   0.40817   0.00000  Uiso   1.00
H35    H     0.33146   0.25086   0.49616   0.00000  Uiso   1.00
H36    H     0.00187   0.08247   0.00384   0.00000  Uiso   1.00
H37    H     0.15024   0.20335   0.09694   0.00000  Uiso   1.00
H38    H     0.18310   0.12998   0.40306   0.00000  Uiso   1.00
N39    N     0.14695   0.15216   0.23740   0.00000  Uiso   1.00
N40    N     0.18638   0.18117   0.26261   0.00000  Uiso   1.00
O41    O     0.29719   0.24631   0.25310   0.00000  Uiso   1.00
O42    O     0.03614   0.08702   0.24691   0.00000  Uiso   1.00
O43    O     0.05822   0.23702   0.24502   0.00000  Uiso   1.00
O44    O     0.27512   0.09632   0.25499   0.00000  Uiso   1.00
O45    O     0.30328   0.17397   0.32247   0.00000  Uiso   1.00
O46    O     0.03005   0.15937   0.17753   0.00000  Uiso   1.00
O47    O     0.06431   0.16467   0.31439   0.00000  Uiso   1.00
O48    O     0.26902   0.16866   0.18561   0.00000  Uiso   1.00
Zn49   Zn    0.27033   0.17287   0.25540   0.00000  Uiso   1.00
Zn50   Zn    0.06300   0.16046   0.24461   0.00000  Uiso   1.00
Br51   Br    0.58372   0.25418   0.11254   0.00000  Uiso   1.00
Br52   Br    0.41628   0.07915   0.38747   0.00000  Uiso   1.00
Br53   Br    0.50084   0.09739   0.19374   0.00000  Uiso   1.00
Br54   Br    0.49916   0.23594   0.30626   0.00000  Uiso   1.00
C55    C     0.34809   0.26465   0.24886   0.00000  Uiso   1.00
C56    C     0.64597   0.16291   0.15875   0.00000  Uiso   1.00
C57    C     0.36390   0.17599   0.39452   0.00000  Uiso   1.00
C58    C     0.63610   0.15735   0.10548   0.00000  Uiso   1.00
C59    C     0.35436   0.22420   0.47310   0.00000  Uiso   1.00
C60    C     0.64564   0.10913   0.02690   0.00000  Uiso   1.00
C61    C     0.33642   0.21268   0.42365   0.00000  Uiso   1.00
C62    C     0.66358   0.12065   0.07635   0.00000  Uiso   1.00
C63    C     0.40741   0.14961   0.41509   0.00000  Uiso   1.00
C64    C     0.59259   0.18372   0.08491   0.00000  Uiso   1.00
C65    C     0.43403   0.16994   0.46041   0.00000  Uiso   1.00
C66    C     0.65191   0.06868   0.25114   0.00000  Uiso   1.00
C67    C     0.56598   0.16340   0.03959   0.00000  Uiso   1.00
C68    C     0.40382   0.20384   0.49145   0.00000  Uiso   1.00
C69    C     0.59618   0.12949   0.00855   0.00000  Uiso   1.00
C70    C     0.48964   0.15876   0.47549   0.00000  Uiso   1.00
C71    C     0.51036   0.17458   0.02451   0.00000  Uiso   1.00
C72    C     0.47362   0.19815   0.05762   0.00000  Uiso   1.00
C73    C     0.52638   0.13519   0.44238   0.00000  Uiso   1.00
C74    C     0.42273   0.21568   0.04058   0.00000  Uiso   1.00
C75    C     0.57727   0.11766   0.45942   0.00000  Uiso   1.00
C76    C     0.35609   0.31896   0.24962   0.00000  Uiso   1.00
C77    C     0.64391   0.01437   0.25038   0.00000  Uiso   1.00
C78    C     0.35403   0.17042   0.34125   0.00000  Uiso   1.00
F79    F     0.41084   0.00602   0.25084   0.00000  Uiso   1.00
F80    F     0.58916   0.32731   0.24916   0.00000  Uiso   1.00
H81    H     0.39753   0.23741   0.06611   0.00000  Uiso   1.00
H82    H     0.60247   0.09593   0.43389   0.00000  Uiso   1.00
H83    H     0.36508   0.10092   0.09183   0.00000  Uiso   1.00
H84    H     0.63492   0.23241   0.40817   0.00000  Uiso   1.00
H85    H     0.66480   0.25086   0.49616   0.00000  Uiso   1.00
H86    H     0.33521   0.08247   0.00384   0.00000  Uiso   1.00
H87    H     0.48357   0.20335   0.09694   0.00000  Uiso   1.00
H88    H     0.51643   0.12998   0.40306   0.00000  Uiso   1.00
N89    N     0.48029   0.15216   0.23740   0.00000  Uiso   1.00
N90    N     0.51971   0.18117   0.26261   0.00000  Uiso   1.00
O91    O     0.63052   0.24631   0.25310   0.00000  Uiso   1.00
O92    O     0.36948   0.08702   0.24691   0.00000  Uiso   1.00
O93    O     0.39155   0.23702   0.24502   0.00000  Uiso   1.00
O94    O     0.60845   0.09632   0.25499   0.00000  Uiso   1.00
O95    O     0.63662   0.17397   0.32247   0.00000  Uiso   1.00
O96    O     0.36338   0.15937   0.17753   0.00000  Uiso   1.00
O97    O     0.39764   0.16467   0.31439   0.00000  Uiso   1.00
O98    O     0.60236   0.16866   0.18561   0.00000  Uiso   1.00
Zn99   Zn    0.60366   0.17287   0.25540   0.00000  Uiso   1.00
Zn100  Zn    0.39634   0.16046   0.24461   0.00000  Uiso   1.00
Br101  Br    0.91705   0.25418   0.11254   0.00000  Uiso   1.00
Br102  Br    0.74961   0.07915   0.38747   0.00000  Uiso   1.00
Br103  Br    0.83417   0.09739   0.19374   0.00000  Uiso   1.00
Br104  Br    0.83249   0.23594   0.30626   0.00000  Uiso   1.00
C105   C     0.68142   0.26465   0.24886   0.00000  Uiso   1.00
C106   C     0.97930   0.16291   0.15875   0.00000  Uiso   1.00
C107   C     0.69724   0.17599   0.39452   0.00000  Uiso   1.00
C108   C     0.96943   0.15735   0.10548   0.00000  Uiso   1.00
C109   C     0.68769   0.22420   0.47310   0.00000  Uiso   1.00
C110   C     0.97898   0.10913   0.02690   0.00000  Uiso   1.00
C111   C     0.66975   0.21268   0.42365   0.00000  Uiso   1.00
C112   C     0.99692   0.12065   0.07635   0.00000  Uiso   1.00
C113   C     0.74074   0.14961   0.41509   0.00000  Uiso   1.00
C114   C     0.92593   0.18372   0.08491   0.00000  Uiso   1.00
C115   C     0.76736   0.16994   0.46041   0.00000  Uiso   1.00
C116   C     0.98525   0.06868   0.25114   0.00000  Uiso   1.00
C117   C     0.89931   0.16340   0.03959   0.00000  Uiso   1.00
C118   C     0.73715   0.20384   0.49145   0.00000  Uiso   1.00
C119   C     0.92952   0.12949   0.00855   0.00000  Uiso   1.00
C120   C     0.82297   0.15876   0.47549   0.00000  Uiso   1.00
C121   C     0.84370   0.17458   0.02451   0.00000  Uiso   1.00
C122   C     0.80695   0.19815   0.05762   0.00000  Uiso   1.00
C123   C     0.85972   0.13519   0.44238   0.00000  Uiso   1.00
C124   C     0.75606   0.21568   0.04058   0.00000  Uiso   1.00
C125   C     0.91060   0.11766   0.45942   0.00000  Uiso   1.00
C126   C     0.68942   0.31896   0.24962   0.00000  Uiso   1.00
C127   C     0.97724   0.01437   0.25038   0.00000  Uiso   1.00
C128   C     0.68736   0.17042   0.34125   0.00000  Uiso   1.00
F129   F     0.74418   0.00602   0.25084   0.00000  Uiso   1.00
F130   F     0.92249   0.32731   0.24916   0.00000  Uiso   1.00
H131   H     0.73086   0.23741   0.06611   0.00000  Uiso   1.00
H132   H     0.93581   0.09593   0.43389   0.00000  Uiso   1.00
H133   H     0.69841   0.10092   0.09183   0.00000  Uiso   1.00
H134   H     0.96826   0.23241   0.40817   0.00000  Uiso   1.00
H135   H     0.99813   0.25086   0.49616   0.00000  Uiso   1.00
H136   H     0.66854   0.08247   0.00384   0.00000  Uiso   1.00
H137   H     0.81690   0.20335   0.09694   0.00000  Uiso   1.00
H138   H     0.84976   0.12998   0.40306   0.00000  Uiso   1.00
N139   N     0.81362   0.15216   0.23740   0.00000  Uiso   1.00
N140   N     0.85305   0.18117   0.26261   0.00000  Uiso   1.00
O141   O     0.96386   0.24631   0.25310   0.00000  Uiso   1.00
O142   O     0.70281   0.08702   0.24691   0.00000  Uiso   1.00
O143   O     0.72488   0.23702   0.24502   0.00000  Uiso   1.00
O144   O     0.94178   0.09632   0.25499   0.00000  Uiso   1.00
O145   O     0.96995   0.17397   0.32247   0.00000  Uiso   1.00
O146   O     0.69672   0.15937   0.17753   0.00000  Uiso   1.00
O147   O     0.73098   0.16467   0.31439   0.00000  Uiso   1.00
O148   O     0.93569   0.16866   0.18561   0.00000  Uiso   1.00
Zn149  Zn    0.93700   0.17287   0.25540   0.00000  Uiso   1.00
Zn150  Zn    0.72967   0.16046   0.24461   0.00000  Uiso   1.00
Br151  Br    0.25039   0.58751   0.11254   0.00000  Uiso   1.00
Br152  Br    0.08295   0.41249   0.38747   0.00000  Uiso   1.00
Br153  Br    0.16751   0.43072   0.19374   0.00000  Uiso   1.00
Br154  Br    0.16583   0.56928   0.30626   0.00000  Uiso   1.00
C155   C     0.01476   0.59799   0.24886   0.00000  Uiso   1.00
C156   C     0.31264   0.49624   0.15875   0.00000  Uiso   1.00
C157   C     0.03057   0.50932   0.39452   0.00000  Uiso   1.00
C158   C     0.30276   0.49068   0.10548   0.00000  Uiso   1.00
C159   C     0.02102   0.55754   0.47310   0.00000  Uiso   1.00
C160   C     0.31231   0.44246   0.02690   0.00000  Uiso   1.00
C161   C     0.00308   0.54602   0.42365   0.00000  Uiso   1.00
C162   C     0.33025   0.45398   0.07635   0.00000  Uiso   1.00
C163   C     0.07407   0.48294   0.41509   0.00000  Uiso   1.00
C164   C     0.25926   0.51706   0.08491   0.00000  Uiso   1.00
C165   C     0.10069   0.50327   0.46041   0.00000  Uiso   1.00
C166   C     0.31858   0.40202   0.25114   0.00000  Uiso   1.00
C167   C     0.23264   0.49673   0.03959   0.00000  Uiso   1.00
C168   C     0.07048   0.53718   0.49145   0.00000  Uiso   1.00
C169   C     0.26285   0.46282   0.00855   0.00000  Uiso   1.00
C170   C     0.15630   0.49209   0.47549   0.00000  Uiso   1.00
C171   C     0.17703   0.50791   0.02451   0.00000  Uiso   1.00
C172   C     0.14028   0.53148   0.05762   0.00000  Uiso   1.00
C173   C     0.19305   0.46852   0.44238   0.00000  Uiso   1.00
C174   C     0.08940   0.54901   0.04058   0.00000  Uiso   1.00
C175   C     0.24394   0.45099   0.45942   0.00000  Uiso   1.00
C176   C     0.02276   0.65229   0.24962   0.00000  Uiso   1.00
C177   C     0.31058   0.34771   0.25038   0.00000  Uiso   1.00
C178   C     0.02070   0.50376   0.34125   0.00000  Uiso   1.00
F179   F     0.07751   0.33936   0.25084   0.00000  Uiso   1.00
F180   F     0.25582   0.66064   0.24916   0.00000  Uiso   1.00
H181   H     0.06419   0.57074   0.06611   0.00000  Uiso   1.00
H182   H     0.26914   0.42926   0.43389   0.00000  Uiso   1.00
H183   H     0.03174   0.43426   0.09183   0.00000  Uiso   1.00
H184   H     0.30159   0.56574   0.40817   0.00000  Uiso   1.00
H185   H     0.33146   0.58419   0.49616   0.00000  Uiso   1.00
H186   H     0.00187   0.41581   0.00384   0.00000  Uiso   1.00
H187   H     0.15024   0.53669   0.09694   0.00000  Uiso   1.00
H188   H     0.18310   0.46331   0.40306   0.00000  Uiso   1.00
N189   N     0.14695   0.48550   0.23740   0.00000  Uiso   1.00
N190   N     0.18638   0.51450   0.26261   0.00000  Uiso   1.00
O191   O     0.29719   0.57964   0.25310   0.00000  Uiso   1.00
O192   O     0.03614   0.42036   0.24691   0.00000  Uiso   1.00
O193   O     0.05822   0.57035   0.24502   0.00000  Uiso   1.00
O194   O     0.27512   0.42965   0.25499   0.00000  Uiso   1.00
O195   O     0.30328   0.50730   0.32247   0.00000  Uiso   1.00
O196   O     0.03005   0.49270   0.17753   0.00000  Uiso   1.00
O197   O     0.06431   0.49801   0.31439   0.00000  Uiso   1.00
O198   O     0.26902   0.50199   0.18561   0.00000  Uiso   1.00
Zn199  Zn    0.27033   0.50621   0.25540   0.00000  Uiso   1.00
Zn200  Zn    0.06300   0.49379   0.24461   0.00000  Uiso   1.00
Br201  Br    0.58372   0.58751   0.11254   0.00000  Uiso   1.00
Br202  Br    0.41628   0.41249   0.38747   0.00000  Uiso   1.00
Br203  Br    0.50084   0.43072   0.19374   0.00000  Uiso   1.00
Br204  Br    0.49916   0.56928   0.30626   0.00000  Uiso   1.00
C205   C     0.34809   0.59799   0.24886   0.00000  Uiso   1.00
C206   C     0.64597   0.49624   0.15875   0.00000  Uiso   1.00
C207   C     0.36390   0.50932   0.39452   0.00000  Uiso   1.00
C208   C     0.63610   0.49068   0.10548   0.00000  Uiso   1.00
C209   C     0.35436   0.55754   0.47310   0.00000  Uiso   1.00
C210   C     0.64564   0.44246   0.02690   0.00000  Uiso   1.00
C211   C     0.33642   0.54602   0.42365   0.00000  Uiso   1.00
C212   C     0.66358   0.45398   0.07635   0.00000  Uiso   1.00
C213   C     0.40741   0.48294   0.41509   0.00000  Uiso   1.00
C214   C     0.59259   0.51706   0.08491   0.00000  Uiso   1.00
C215   C     0.43403   0.50327   0.46041   0.00000  Uiso   1.00
C216   C     0.65191   0.40202   0.25114   0.00000  Uiso   1.00
C217   C     0.56598   0.49673   0.03959   0.00000  Uiso   1.00
C218   C     0.40382   0.53718   0.49145   0.00000  Uiso   1.00
C219   C     0.59618   0.46282   0.00855   0.00000  Uiso   1.00
C220   C     0.48964   0.49209   0.47549   0.00000  Uiso   1.00
C221   C     0.51036   0.50791   0.02451   0.00000  Uiso   1.00
C222   C     0.47362   0.53148   0.05762   0.00000  Uiso   1.00
C223   C     0.52638   0.46852   0.44238   0.00000  Uiso   1.00
C224   C     0.42273   0.54901   0.04058   0.00000  Uiso   1.00
C225   C     0.57727   0.45099   0.45942   0.00000  Uiso   1.00
C226   C     0.35609   0.65229   0.24962   0.00000  Uiso   1.00
C227   C     0.64391   0.34771   0.25038   0.00000  Uiso   1.00
C228   C     0.35403   0.50376   0.34125   0.00000  Uiso   1.00
F229   F     0.41084   0.33936   0.25084   0.00000  Uiso   1.00
F230   F     0.58916   0.66064   0.24916   0.00000  Uiso   1.00
H231   H     0.39753   0.57074   0.06611   0.00000  Uiso   1.00
H232   H     0.60247   0.42926   0.43389   0.00000  Uiso   1.00
H233   H     0.36508   0.43426   0.09183   0.00000  Uiso   1.00
H234   H     0.63492   0.56574   0.40817   0.00000  Uiso   1.00
H235   H     0.66480   0.58419   0.49616   0.00000  Uiso   1.00
H236   H     0.33521   0.41581   0.00384   0.00000  Uiso   1.00
H237   H     0.48357   0.53669   0.09694   0.00000  Uiso   1.00
H238   H     0.51643   0.46331   0.40306   0.00000  Uiso   1.00
N239   N     0.48029   0.48550   0.23740   0.00000  Uiso   1.00
N240   N     0.51971   0.51450   0.26261   0.00000  Uiso   1.00
O241   O     0.63052   0.57964   0.25310   0.00000  Uiso   1.00
O242   O     0.36948   0.42036   0.24691   0.00000  Uiso   1.00
O243   O     0.39155   0.57035   0.24502   0.00000  Uiso   1.00
O244   O     0.60845   0.42965   0.25499   0.00000  Uiso   1.00
O245   O     0.63662   0.50730   0.32247   0.00000  Uiso   1.00
O246   O     0.36338   0.49270   0.17753   0.00000  Uiso   1.00
O247   O     0.39764   0.49801   0.31439   0.00000  Uiso   1.00
O248   O     0.60236   0.50199   0.18561   0.00000  Uiso   1.00
Zn249  Zn    0.60366   0.50621   0.25540   0.00000  Uiso   1.00
Zn250  Zn    0.39634   0.49379   0.24461   0.00000  Uiso   1.00
Br251  Br    0.91705   0.58751   0.11254   0.00000  Uiso   1.00
Br252  Br    0.74961   0.41249   0.38747   0.00000  Uiso   1.00
Br253  Br    0.83417   0.43072   0.19374   0.00000  Uiso   1.00
Br254  Br    0.83249   0.56928   0.30626   0.00000  Uiso   1.00
C255   C     0.68142   0.59799   0.24886   0.00000  Uiso   1.00
C256   C     0.97930   0.49624   0.15875   0.00000  Uiso   1.00
C257   C     0.69724   0.50932   0.39452   0.00000  Uiso   1.00
C258   C     0.96943   0.49068   0.10548   0.00000  Uiso   1.00
C259   C     0.68769   0.55754   0.47310   0.00000  Uiso   1.00
C260   C     0.97898   0.44246   0.02690   0.00000  Uiso   1.00
C261   C     0.66975   0.54602   0.42365   0.00000  Uiso   1.00
C262   C     0.99692   0.45398   0.07635   0.00000  Uiso   1.00
C263   C     0.74074   0.48294   0.41509   0.00000  Uiso   1.00
C264   C     0.92593   0.51706   0.08491   0.00000  Uiso   1.00
C265   C     0.76736   0.50327   0.46041   0.00000  Uiso   1.00
C266   C     0.98525   0.40202   0.25114   0.00000  Uiso   1.00
C267   C     0.89931   0.49673   0.03959   0.00000  Uiso   1.00
C268   C     0.73715   0.53718   0.49145   0.00000  Uiso   1.00
C269   C     0.92952   0.46282   0.00855   0.00000  Uiso   1.00
C270   C     0.82297   0.49209   0.47549   0.00000  Uiso   1.00
C271   C     0.84370   0.50791   0.02451   0.00000  Uiso   1.00
C272   C     0.80695   0.53148   0.05762   0.00000  Uiso   1.00
C273   C     0.85972   0.46852   0.44238   0.00000  Uiso   1.00
C274   C     0.75606   0.54901   0.04058   0.00000  Uiso   1.00
C275   C     0.91060   0.45099   0.45942   0.00000  Uiso   1.00
C276   C     0.68942   0.65229   0.24962   0.00000  Uiso   1.00
C277   C     0.97724   0.34771   0.25038   0.00000  Uiso   1.00
C278   C     0.68736   0.50376   0.34125   0.00000  Uiso   1.00
F279   F     0.74418   0.33936   0.25084   0.00000  Uiso   1.00
F280   F     0.92249   0.66064   0.24916   0.00000  Uiso   1.00
H281   H     0.73086   0.57074   0.06611   0.00000  Uiso   1.00
H282   H     0.93581   0.42926   0.43389   0.00000  Uiso   1.00
H283   H     0.69841   0.43426   0.09183   0.00000  Uiso   1.00
H284   H     0.96826   0.56574   0.40817   0.00000  Uiso   1.00
H285   H     0.99813   0.58419   0.49616   0.00000  Uiso   1.00
H286   H     0.66854   0.41581   0.00384   0.00000  Uiso   1.00
H287   H     0.81690   0.53669   0.09694   0.00000  Uiso   1.00
H288   H     0.84976   0.46331   0.40306   0.00000  Uiso   1.00
N289   N     0.81362   0.48550   0.23740   0.00000  Uiso   1.00
N290   N     0.85305   0.51450   0.26261   0.00000  Uiso   1.00
O291   O     0.96386   0.57964   0.25310   0.00000  Uiso   1.00
O292   O     0.70281   0.42036   0.24691   0.00000  Uiso   1.00
O293   O     0.72488   0.57035   0.24502   0.00000  Uiso   1.00
O294   O     0.94178   0.42965   0.25499   0.00000  Uiso   1.00
O295   O     0.96995   0.50730   0.32247   0.00000  Uiso   1.00
O296   O     0.69672   0.49270   0.17753   0.00000  Uiso   1.00
O297   O     0.73098   0.49801   0.31439   0.00000  Uiso   1.00
O298   O     0.93569   0.50199   0.18561   0.00000  Uiso   1.00
Zn299  Zn    0.93700   0.50621   0.25540   0.00000  Uiso   1.00
Zn300  Zn    0.72967   0.49379   0.24461   0.00000  Uiso   1.00
Br301  Br    0.25039   0.92085   0.11254   0.00000  Uiso   1.00
Br302  Br    0.08295   0.74582   0.38747   0.00000  Uiso   1.00
Br303  Br    0.16751   0.76406   0.19374   0.00000  Uiso   1.00
Br304  Br    0.16583   0.90261   0.30626   0.00000  Uiso   1.00
C305   C     0.01476   0.93132   0.24886   0.00000  Uiso   1.00
C306   C     0.31264   0.82958   0.15875   0.00000  Uiso   1.00
C307   C     0.03057   0.84266   0.39452   0.00000  Uiso   1.00
C308   C     0.30276   0.82401   0.10548   0.00000  Uiso   1.00
C309   C     0.02102   0.89087   0.47310   0.00000  Uiso   1.00
C310   C     0.31231   0.77580   0.02690   0.00000  Uiso   1.00
C311   C     0.00308   0.87935   0.42365   0.00000  Uiso   1.00
C312   C     0.33025   0.78732   0.07635   0.00000  Uiso   1.00
C313   C     0.07407   0.81628   0.41509   0.00000  Uiso   1.00
C314   C     0.25926   0.85039   0.08491   0.00000  Uiso   1.00
C315   C     0.10069   0.83660   0.46041   0.00000  Uiso   1.00
C316   C     0.31858   0.73535   0.25114   0.00000  Uiso   1.00
C317   C     0.23264   0.83006   0.03959   0.00000  Uiso   1.00
C318   C     0.07048   0.87051   0.49145   0.00000  Uiso   1.00
C319   C     0.26285   0.79616   0.00855   0.00000  Uiso   1.00
C320   C     0.15630   0.82542   0.47549   0.00000  Uiso   1.00
C321   C     0.17703   0.84124   0.02451   0.00000  Uiso   1.00
C322   C     0.14028   0.86481   0.05762   0.00000  Uiso   1.00
C323   C     0.19305   0.80186   0.44238   0.00000  Uiso   1.00
C324   C     0.08940   0.88234   0.04058   0.00000  Uiso   1.00
C325   C     0.24394   0.78433   0.45942   0.00000  Uiso   1.00
C326   C     0.02276   0.98563   0.24962   0.00000  Uiso   1.00
C327   C     0.31058   0.68104   0.25038   0.00000  Uiso   1.00
C328   C     0.02070   0.83709   0.34125   0.00000  Uiso   1.00
F329   F     0.07751   0.67269   0.25084   0.00000  Uiso   1.00
F330   F     0.25582   0.99398   0.24916   0.00000  Uiso   1.00
H331   H     0.06419   0.90407   0.06611   0.00000  Uiso   1.00
H332   H     0.26914   0.76259   0.43389   0.00000  Uiso   1.00
H333   H     0.03174   0.76759   0.09183   0.00000  Uiso   1.00
H334   H     0.30159   0.89908   0.40817   0.00000  Uiso   1.00
H335   H     0.33146   0.91753   0.49616   0.00000  Uiso   1.00
H336   H     0.00187   0.74914   0.00384   0.00000  Uiso   1.00
H337   H     0.15024   0.87002   0.09694   0.00000  Uiso   1.00
H338   H     0.18310   0.79665   0.40306   0.00000  Uiso   1.00
N339   N     0.14695   0.81883   0.23740   0.00000  Uiso   1.00
N340   N     0.18638   0.84784   0.26261   0.00000  Uiso   1.00
O341   O     0.29719   0.91298   0.25310   0.00000  Uiso   1.00
O342   O     0.03614   0.75369   0.24691   0.00000  Uiso   1.00
O343   O     0.05822   0.90368   0.24502   0.00000  Uiso   1.00
O344   O     0.27512   0.76298   0.25499   0.00000  Uiso   1.00
O345   O     0.30328   0.84063   0.32247   0.00000  Uiso   1.00
O346   O     0.03005   0.82603   0.17753   0.00000  Uiso   1.00
O347   O     0.06431   0.83134   0.31439   0.00000  Uiso   1.00
O348   O     0.26902   0.83533   0.18561   0.00000  Uiso   1.00
Zn349  Zn    0.27033   0.83954   0.25540   0.00000  Uiso   1.00
Zn350  Zn    0.06300   0.82713   0.24461   0.00000  Uiso   1.00
Br351  Br    0.58372   0.92085   0.11254   0.00000  Uiso   1.00
Br352  Br    0.41628   0.74582   0.38747   0.00000  Uiso   1.00
Br353  Br    0.50084   0.76406   0.19374   0.00000  Uiso   1.00
Br354  Br    0.49916   0.90261   0.30626   0.00000  Uiso   1.00
C355   C     0.34809   0.93132   0.24886   0.00000  Uiso   1.00
C356   C     0.64597   0.82958   0.15875   0.00000  Uiso   1.00
C357   C     0.36390   0.84266   0.39452   0.00000  Uiso   1.00
C358   C     0.63610   0.82401   0.10548   0.00000  Uiso   1.00
C359   C     0.35436   0.89087   0.47310   0.00000  Uiso   1.00
C360   C     0.64564   0.77580   0.02690   0.00000  Uiso   1.00
C361   C     0.33642   0.87935   0.42365   0.00000  Uiso   1.00
C362   C     0.66358   0.78732   0.07635   0.00000  Uiso   1.00
C363   C     0.40741   0.81628   0.41509   0.00000  Uiso   1.00
C364   C     0.59259   0.85039   0.08491   0.00000  Uiso   1.00
C365   C     0.43403   0.83660   0.46041   0.00000  Uiso   1.00
C366   C     0.65191   0.73535   0.25114   0.00000  Uiso   1.00
C367   C     0.56598   0.83006   0.03959   0.00000  Uiso   1.00
C368   C     0.40382   0.87051   0.49145   0.00000  Uiso   1.00
C369   C     0.59618   0.79616   0.00855   0.00000  Uiso   1.00
C370   C     0.48964   0.82542   0.47549   0.00000  Uiso   1.00
C371   C     0.51036   0.84124   0.02451   0.00000  Uiso   1.00
C372   C     0.47362   0.86481   0.05762   0.00000  Uiso   1.00
C373   C     0.52638   0.80186   0.44238   0.00000  Uiso   1.00
C374   C     0.42273   0.88234   0.04058   0.00000  Uiso   1.00
C375   C     0.57727   0.78433   0.45942   0.00000  Uiso   1.00
C376   C     0.35609   0.98563   0.24962   0.00000  Uiso   1.00
C377   C     0.64391   0.68104   0.25038   0.00000  Uiso   1.00
C378   C     0.35403   0.83709   0.34125   0.00000  Uiso   1.00
F379   F     0.41084   0.67269   0.25084   0.00000  Uiso   1.00
F380   F     0.58916   0.99398   0.24916   0.00000  Uiso   1.00
H381   H     0.39753   0.90407   0.06611   0.00000  Uiso   1.00
H382   H     0.60247   0.76259   0.43389   0.00000  Uiso   1.00
H383   H     0.36508   0.76759   0.09183   0.00000  Uiso   1.00
H384   H     0.63492   0.89908   0.40817   0.00000  Uiso   1.00
H385   H     0.66480   0.91753   0.49616   0.00000  Uiso   1.00
H386   H     0.33521   0.74914   0.00384   0.00000  Uiso   1.00
H387   H     0.48357   0.87002   0.09694   0.00000  Uiso   1.00
H388   H     0.51643   0.79665   0.40306   0.00000  Uiso   1.00
N389   N     0.48029   0.81883   0.23740   0.00000  Uiso   1.00
N390   N     0.51971   0.84784   0.26261   0.00000  Uiso   1.00
O391   O     0.63052   0.91298   0.25310   0.00000  Uiso   1.00
O392   O     0.36948   0.75369   0.24691   0.00000  Uiso   1.00
O393   O     0.39155   0.90368   0.24502   0.00000  Uiso   1.00
O394   O     0.60845   0.76298   0.25499   0.00000  Uiso   1.00
O395   O     0.63662   0.84063   0.32247   0.00000  Uiso   1.00
O396   O     0.36338   0.82603   0.17753   0.00000  Uiso   1.00
O397   O     0.39764   0.83134   0.31439   0.00000  Uiso   1.00
O398   O     0.60236   0.83533   0.18561   0.00000  Uiso   1.00
Zn399  Zn    0.60366   0.83954   0.25540   0.00000  Uiso   1.00
Zn400  Zn    0.39634   0.82713   0.24461   0.00000  Uiso   1.00
Br401  Br    0.91705   0.92085   0.11254   0.00000  Uiso   1.00
Br402  Br    0.74961   0.74582   0.38747   0.00000  Uiso   1.00
Br403  Br    0.83417   0.76406   0.19374   0.00000  Uiso   1.00
Br404  Br    0.83249   0.90261   0.30626   0.00000  Uiso   1.00
C405   C     0.68142   0.93132   0.24886   0.00000  Uiso   1.00
C406   C     0.97930   0.82958   0.15875   0.00000  Uiso   1.00
C407   C     0.69724   0.84266   0.39452   0.00000  Uiso   1.00
C408   C     0.96943   0.82401   0.10548   0.00000  Uiso   1.00
C409   C     0.68769   0.89087   0.47310   0.00000  Uiso   1.00
C410   C     0.97898   0.77580   0.02690   0.00000  Uiso   1.00
C411   C     0.66975   0.87935   0.42365   0.00000  Uiso   1.00
C412   C     0.99692   0.78732   0.07635   0.00000  Uiso   1.00
C413   C     0.74074   0.81628   0.41509   0.00000  Uiso   1.00
C414   C     0.92593   0.85039   0.08491   0.00000  Uiso   1.00
C415   C     0.76736   0.83660   0.46041   0.00000  Uiso   1.00
C416   C     0.98525   0.73535   0.25114   0.00000  Uiso   1.00
C417   C     0.89931   0.83006   0.03959   0.00000  Uiso   1.00
C418   C     0.73715   0.87051   0.49145   0.00000  Uiso   1.00
C419   C     0.92952   0.79616   0.00855   0.00000  Uiso   1.00
C420   C     0.82297   0.82542   0.47549   0.00000  Uiso   1.00
C421   C     0.84370   0.84124   0.02451   0.00000  Uiso   1.00
C422   C     0.80695   0.86481   0.05762   0.00000  Uiso   1.00
C423   C     0.85972   0.80186   0.44238   0.00000  Uiso   1.00
C424   C     0.75606   0.88234   0.04058   0.00000  Uiso   1.00
C425   C     0.91060   0.78433   0.45942   0.00000  Uiso   1.00
C426   C     0.68942   0.98563   0.24962   0.00000  Uiso   1.00
C427   C     0.97724   0.68104   0.25038   0.00000  Uiso   1.00
C428   C     0.68736   0.83709   0.34125   0.00000  Uiso   1.00
F429   F     0.74418   0.67269   0.25084   0.00000  Uiso   1.00
F430   F     0.92249   0.99398   0.24916   0.00000  Uiso   1.00
H431   H     0.73086   0.90407   0.06611   0.00000  Uiso   1.00
H432   H     0.93581   0.76259   0.43389   0.00000  Uiso   1.00
H433   H     0.69841   0.76759   0.09183   0.00000  Uiso   1.00
H434   H     0.96826   0.89908   0.40817   0.00000  Uiso   1.00
H435   H     0.99813   0.91753   0.49616   0.00000  Uiso   1.00
H436   H     0.66854   0.74914   0.00384   0.00000  Uiso   1.00
H437   H     0.81690   0.87002   0.09694   0.00000  Uiso   1.00
H438   H     0.84976   0.79665   0.40306   0.00000  Uiso   1.00
N439   N     0.81362   0.81883   0.23740   0.00000  Uiso   1.00
N440   N     0.85305   0.84784   0.26261   0.00000  Uiso   1.00
O441   O     0.96386   0.91298   0.25310   0.00000  Uiso   1.00
O442   O     0.70281   0.75369   0.24691   0.00000  Uiso   1.00
O443   O     0.72488   0.90368   0.24502   0.00000  Uiso   1.00
O444   O     0.94178   0.76298   0.25499   0.00000  Uiso   1.00
O445   O     0.96995   0.84063   0.32247   0.00000  Uiso   1.00
O446   O     0.69672   0.82603   0.17753   0.00000  Uiso   1.00
O447   O     0.73098   0.83134   0.31439   0.00000  Uiso   1.00
O448   O     0.93569   0.83533   0.18561   0.00000  Uiso   1.00
Zn449  Zn    0.93700   0.83954   0.25540   0.00000  Uiso   1.00
Zn450  Zn    0.72967   0.82713   0.24461   0.00000  Uiso   1.00
Br451  Br    0.25039   0.25418   0.61254   0.00000  Uiso   1.00
Br452  Br    0.08295   0.07915   0.88747   0.00000  Uiso   1.00
Br453  Br    0.16751   0.09739   0.69374   0.00000  Uiso   1.00
Br454  Br    0.16583   0.23594   0.80626   0.00000  Uiso   1.00
C455   C     0.01476   0.26465   0.74886   0.00000  Uiso   1.00
C456   C     0.31264   0.16291   0.65875   0.00000  Uiso   1.00
C457   C     0.03057   0.17599   0.89452   0.00000  Uiso   1.00
C458   C     0.30276   0.15735   0.60548   0.00000  Uiso   1.00
C459   C     0.02102   0.22420   0.97310   0.00000  Uiso   1.00
C460   C     0.31231   0.10913   0.52690   0.00000  Uiso   1.00
C461   C     0.00308   0.21268   0.92365   0.00000  Uiso   1.00
C462   C     0.33025   0.12065   0.57635   0.00000  Uiso   1.00
C463   C     0.07407   0.14961   0.91509   0.00000  Uiso   1.00
C464   C     0.25926   0.18372   0.58491   0.00000  Uiso   1.00
C465   C     0.10069   0.16994   0.96041   0.00000  Uiso   1.00
C466   C     0.31858   0.06868   0.75114   0.00000  Uiso   1.00
C467   C     0.23264   0.16340   0.53959   0.00000  Uiso   1.00
C468   C     0.07048   0.20384   0.99145   0.00000  Uiso   1.00
C469   C     0.26285   0.12949   0.50855   0.00000  Uiso   1.00
C470   C     0.15630   0.15876   0.97549   0.00000  Uiso   1.00
C471   C     0.17703   0.17458   0.52451   0.00000  Uiso   1.00
C472   C     0.14028   0.19815   0.55762   0.00000  Uiso   1.00
C473   C     0.19305   0.13519   0.94238   0.00000  Uiso   1.00
C474   C     0.08940   0.21568   0.54058   0.00000  Uiso   1.00
C475   C     0.24394   0.11766   0.95942   0.00000  Uiso   1.00
C476   C     0.02276   0.31896   0.74962   0.00000  Uiso   1.00
C477   C     0.31058   0.01437   0.75038   0.00000  Uiso   1.00
C478   C     0.02070   0.17042   0.84125   0.00000  Uiso   1.00
F479   F     0.07751   0.00602   0.75084   0.00000  Uiso   1.00
F480   F     0.25582   0.32731   0.74916   0.00000  Uiso   1.00
H481   H     0.06419   0.23741   0.56611   0.00000  Uiso   1.00
H482   H     0.26914   0.09593   0.93389   0.00000  Uiso   1.00
H483   H     0.03174   0.10092   0.59183   0.00000  Uiso   1.00
H484   H     0.30159   0.23241   0.90817   0.00000  Uiso   1.00
H485   H     0.33146   0.25086   0.99616   0.00000  Uiso   1.00
H486   H     0.00187   0.08247   0.50384   0.00000  Uiso   1.00
H487   H     0.15024   0.20335   0.59694   0.00000  Uiso   1.00
H488   H     0.18310   0.12998   0.90306   0.00000  Uiso   1.00
N489   N     0.14695   0.15216   0.73740   0.00000  Uiso   1.00
N490   N     0.18638   0.18117   0.76261   0.00000  Uiso   1.00
O491   O     0.29719   0.24631   0.75310   0.00000  Uiso   1.00
O492   O     0.03614   0.08702   0.74691   0.00000  Uiso   1.00
O493   O     0.05822   0.23702   0.74502   0.00000  Uiso   1.00
O494   O     0.27512   0.09632   0.75499   0.00000  Uiso   1.00
O495   O     0.30328   0.17397   0.82247   0.00000  Uiso   1.00
O496   O     0.03005   0.15937   0.67753   0.00000  Uiso   1.00
O497   O     0.06431   0.16467   0.81439   0.00000  Uiso   1.00
O498   O     0.26902   0.16866   0.68561   0.00000  Uiso   1.00
Zn499  Zn    0.27033   0.17287   0.75540   0.00000  Uiso   1.00
Zn500  Zn    0.06300   0.16046   0.74461   0.00000  Uiso   1.00
Br501  Br    0.58372   0.25418   0.61254   0.00000  Uiso   1.00
Br502  Br    0.41628   0.07915   0.88747   0.00000  Uiso   1.00
Br503  Br    0.50084   0.09739   0.69374   0.00000  Uiso   1.00
Br504  Br    0.49916   0.23594   0.80626   0.00000  Uiso   1.00
C505   C     0.34809   0.26465   0.74886   0.00000  Uiso   1.00
C506   C     0.64597   0.16291   0.65875   0.00000  Uiso   1.00
C507   C     0.36390   0.17599   0.89452   0.00000  Uiso   1.00
C508   C     0.63610   0.15735   0.60548   0.00000  Uiso   1.00
C509   C     0.35436   0.22420   0.97310   0.00000  Uiso   1.00
C510   C     0.64564   0.10913   0.52690   0.00000  Uiso   1.00
C511   C     0.33642   0.21268   0.92365   0.00000  Uiso   1.00
C512   C     0.66358   0.12065   0.57635   0.00000  Uiso   1.00
C513   C     0.40741   0.14961   0.91509   0.00000  Uiso   1.00
C514   C     0.59259   0.18372   0.58491   0.00000  Uiso   1.00
C515   C     0.43403   0.16994   0.96041   0.00000  Uiso   1.00
C516   C     0.65191   0.06868   0.75114   0.00000  Uiso   1.00
C517   C     0.56598   0.16340   0.53959   0.00000  Uiso   1.00
C518   C     0.40382   0.20384   0.99145   0.00000  Uiso   1.00
C519   C     0.59618   0.12949   0.50855   0.00000  Uiso   1.00
C520   C     0.48964   0.15876   0.97549   0.00000  Uiso   1.00
C521   C     0.51036   0.17458   0.52451   0.00000  Uiso   1.00
C522   C     0.47362   0.19815   0.55762   0.00000  Uiso   1.00
C523   C     0.52638   0.13519   0.94238   0.00000  Uiso   1.00
C524   C     0.42273   0.21568   0.54058   0.00000  Uiso   1.00
C525   C     0.57727   0.11766   0.95942   0.00000  Uiso   1.00
C526   C     0.35609   0.31896   0.74962   0.00000  Uiso   1.00
C527   C     0.64391   0.01437   0.75038   0.00000  Uiso   1.00
C528   C     0.35403   0.17042   0.84125   0.00000  Uiso   1.00
F529   F     0.41084   0.00602   0.75084   0.00000  Uiso   1.00
F530   F     0.58916   0.32731   0.74916   0.00000  Uiso   1.00
H531   H     0.39753   0.23741   0.56611   0.00000  Uiso   1.00
H532   H     0.60247   0.09593   0.93389   0.00000  Uiso   1.00
H533   H     0.36508   0.10092   0.59183   0.00000  Uiso   1.00
H534   H     0.63492   0.23241   0.90817   0.00000  Uiso   1.00
H535   H     0.66480   0.25086   0.99616   0.00000  Uiso   1.00
H536   H     0.33521   0.08247   0.50384   0.00000  Uiso   1.00
H537   H     0.48357   0.20335   0.59694   0.00000  Uiso   1.00
H538   H     0.51643   0.12998   0.90306   0.00000  Uiso   1.00
N539   N     0.48029   0.15216   0.73740   0.00000  Uiso   1.00
N540   N     0.51971   0.18117   0.76261   0.00000  Uiso   1.00
O541   O     0.63052   0.24631   0.75310   0.00000  Uiso   1.00
O542   O     0.36948   0.08702   0.74691   0.00000  Uiso   1.00
O543   O     0.39155   0.23702   0.74502   0.00000  Uiso   1.00
O544   O     0.60845   0.09632   0.75499   0.00000  Uiso   1.00
O545   O     0.63662   0.17397   0.82247   0.00000  Uiso   1.00
O546   O     0.36338   0.15937   0.67753   0.00000  Uiso   1.00
O547   O     0.39764   0.16467   0.81439   0.00000  Uiso   1.00
O548   O     0.60236   0.16866   0.68561   0.00000  Uiso   1.00
Zn549  Zn    0.60366   0.17287   0.75540   0.00000  Uiso   1.00
Zn550  Zn    0.39634   0.16046   0.74461   0.00000  Uiso   1.00
Br551  Br    0.91705   0.25418   0.61254   0.00000  Uiso   1.00
Br552  Br    0.74961   0.07915   0.88747   0.00000  Uiso   1.00
Br553  Br    0.83417   0.09739   0.69374   0.00000  Uiso   1.00
Br554  Br    0.83249   0.23594   0.80626   0.00000  Uiso   1.00
C555   C     0.68142   0.26465   0.74886   0.00000  Uiso   1.00
C556   C     0.97930   0.16291   0.65875   0.00000  Uiso   1.00
C557   C     0.69724   0.17599   0.89452   0.00000  Uiso   1.00
C558   C     0.96943   0.15735   0.60548   0.00000  Uiso   1.00
C559   C     0.68769   0.22420   0.97310   0.00000  Uiso   1.00
C560   C     0.97898   0.10913   0.52690   0.00000  Uiso   1.00
C561   C     0.66975   0.21268   0.92365   0.00000  Uiso   1.00
C562   C     0.99692   0.12065   0.57635   0.00000  Uiso   1.00
C563   C     0.74074   0.14961   0.91509   0.00000  Uiso   1.00
C564   C     0.92593   0.18372   0.58491   0.00000  Uiso   1.00
C565   C     0.76736   0.16994   0.96041   0.00000  Uiso   1.00
C566   C     0.98525   0.06868   0.75114   0.00000  Uiso   1.00
C567   C     0.89931   0.16340   0.53959   0.00000  Uiso   1.00
C568   C     0.73715   0.20384   0.99145   0.00000  Uiso   1.00
C569   C     0.92952   0.12949   0.50855   0.00000  Uiso   1.00
C570   C     0.82297   0.15876   0.97549   0.00000  Uiso   1.00
C571   C     0.84370   0.17458   0.52451   0.00000  Uiso   1.00
C572   C     0.80695   0.19815   0.55762   0.00000  Uiso   1.00
C573   C     0.85972   0.13519   0.94238   0.00000  Uiso   1.00
C574   C     0.75606   0.21568   0.54058   0.00000  Uiso   1.00
C575   C     0.91060   0.11766   0.95942   0.00000  Uiso   1.00
C576   C     0.68942   0.31896   0.74962   0.00000  Uiso   1.00
C577   C     0.97724   0.01437   0.75038   0.00000  Uiso   1.00
C578   C     0.68736   0.17042   0.84125   0.00000  Uiso   1.00
F579   F     0.74418   0.00602   0.75084   0.00000  Uiso   1.00
F580   F     0.92249   0.32731   0.74916   0.00000  Uiso   1.00
H581   H     0.73086   0.23741   0.56611   0.00000  Uiso   1.00
H582   H     0.93581   0.09593   0.93389   0.00000  Uiso   1.00
H583   H     0.69841   0.10092   0.59183   0.00000  Uiso   1.00
H584   H     0.96826   0.23241   0.90817   0.00000  Uiso   1.00
H585   H     0.99813   0.25086   0.99616   0.00000  Uiso   1.00
H586   H     0.66854   0.08247   0.50384   0.00000  Uiso   1.00
H587   H     0.81690   0.20335   0.59694   0.00000  Uiso   1.00
H588   H     0.84976   0.12998   0.90306   0.00000  Uiso   1.00
N589   N     0.81362   0.15216   0.73740   0.00000  Uiso   1.00
N590   N     0.85305   0.18117   0.76261   0.00000  Uiso   1.00
O591   O     0.96386   0.24631   0.75310   0.00000  Uiso   1.00
O592   O     0.70281   0.08702   0.74691   0.00000  Uiso   1.00
O593   O     0.72488   0.23702   0.74502   0.00000  Uiso   1.00
O594   O     0.94178   0.09632   0.75499   0.00000  Uiso   1.00
O595   O     0.96995   0.17397   0.82247   0.00000  Uiso   1.00
O596   O     0.69672   0.15937   0.67753   0.00000  Uiso   1.00
O597   O     0.73098   0.16467   0.81439   0.00000  Uiso   1.00
O598   O     0.93569   0.16866   0.68561   0.00000  Uiso   1.00
Zn599  Zn    0.93700   0.17287   0.75540   0.00000  Uiso   1.00
Zn600  Zn    0.72967   0.16046   0.74461   0.00000  Uiso   1.00
Br601  Br    0.25039   0.58751   0.61254   0.00000  Uiso   1.00
Br602  Br    0.08295   0.41249   0.88747   0.00000  Uiso   1.00
Br603  Br    0.16751   0.43072   0.69374   0.00000  Uiso   1.00
Br604  Br    0.16583   0.56928   0.80626   0.00000  Uiso   1.00
C605   C     0.01476   0.59799   0.74886   0.00000  Uiso   1.00
C606   C     0.31264   0.49624   0.65875   0.00000  Uiso   1.00
C607   C     0.03057   0.50932   0.89452   0.00000  Uiso   1.00
C608   C     0.30276   0.49068   0.60548   0.00000  Uiso   1.00
C609   C     0.02102   0.55754   0.97310   0.00000  Uiso   1.00
C610   C     0.31231   0.44246   0.52690   0.00000  Uiso   1.00
C611   C     0.00308   0.54602   0.92365   0.00000  Uiso   1.00
C612   C     0.33025   0.45398   0.57635   0.00000  Uiso   1.00
C613   C     0.07407   0.48294   0.91509   0.00000  Uiso   1.00
C614   C     0.25926   0.51706   0.58491   0.00000  Uiso   1.00
C615   C     0.10069   0.50327   0.96041   0.00000  Uiso   1.00
C616   C     0.31858   0.40202   0.75114   0.00000  Uiso   1.00
C617   C     0.23264   0.49673   0.53959   0.00000  Uiso   1.00
C618   C     0.07048   0.53718   0.99145   0.00000  Uiso   1.00
C619   C     0.26285   0.46282   0.50855   0.00000  Uiso   1.00
C620   C     0.15630   0.49209   0.97549   0.00000  Uiso   1.00
C621   C     0.17703   0.50791   0.52451   0.00000  Uiso   1.00
C622   C     0.14028   0.53148   0.55762   0.00000  Uiso   1.00
C623   C     0.19305   0.46852   0.94238   0.00000  Uiso   1.00
C624   C     0.08940   0.54901   0.54058   0.00000  Uiso   1.00
C625   C     0.24394   0.45099   0.95942   0.00000  Uiso   1.00
C626   C     0.02276   0.65229   0.74962   0.00000  Uiso   1.00
C627   C     0.31058   0.34771   0.75038   0.00000  Uiso   1.00
C628   C     0.02070   0.50376   0.84125   0.00000  Uiso   1.00
F629   F     0.07751   0.33936   0.75084   0.00000  Uiso   1.00
F630   F     0.25582   0.66064   0.74916   0.00000  Uiso   1.00
H631   H     0.06419   0.57074   0.56611   0.00000  Uiso   1.00
H632   H     0.26914   0.42926   0.93389   0.00000  Uiso   1.00
H633   H     0.03174   0.43426   0.59183   0.00000  Uiso   1.00
H634   H     0.30159   0.56574   0.90817   0.00000  Uiso   1.00
H635   H     0.33146   0.58419   0.99616   0.00000  Uiso   1.00
H636   H     0.00187   0.41581   0.50384   0.00000  Uiso   1.00
H637   H     0.15024   0.53669   0.59694   0.00000  Uiso   1.00
H638   H     0.18310   0.46331   0.90306   0.00000  Uiso   1.00
N639   N     0.14695   0.48550   0.73740   0.00000  Uiso   1.00
N640   N     0.18638   0.51450   0.76261   0.00000  Uiso   1.00
O641   O     0.29719   0.57964   0.75310   0.00000  Uiso   1.00
O642   O     0.03614   0.42036   0.74691   0.00000  Uiso   1.00
O643   O     0.05822   0.57035   0.74502   0.00000  Uiso   1.00
O644   O     0.27512   0.42965   0.75499   0.00000  Uiso   1.00
O645   O     0.30328   0.50730   0.82247   0.00000  Uiso   1.00
O646   O     0.03005   0.49270   0.67753   0.00000  Uiso   1.00
O647   O     0.06431   0.49801   0.81439   0.00000  Uiso   1.00
O648   O     0.26902   0.50199   0.68561   0.00000  Uiso   1.00
Zn649  Zn    0.27033   0.50621   0.75540   0.00000  Uiso   1.00
Zn650  Zn    0.06300   0.49379   0.74461   0.00000  Uiso   1.00
Br651  Br    0.58372   0.58751   0.61254   0.00000  Uiso   1.00
Br652  Br    0.41628   0.41249   0.88747   0.00000  Uiso   1.00
Br653  Br    0.50084   0.43072   0.69374   0.00000  Uiso   1.00
Br654  Br    0.49916   0.56928   0.80626   0.00000  Uiso   1.00
C655   C     0.34809   0.59799   0.74886   0.00000  Uiso   1.00
C656   C     0.64597   0.49624   0.65875   0.00000  Uiso   1.00
C657   C     0.36390   0.50932   0.89452   0.00000  Uiso   1.00
C658   C     0.63610   0.49068   0.60548   0.00000  Uiso   1.00
C659   C     0.35436   0.55754   0.97310   0.00000  Uiso   1.00
C660   C     0.64564   0.44246   0.52690   0.00000  Uiso   1.00
C661   C     0.33642   0.54602   0.92365   0.00000  Uiso   1.00
C662   C     0.66358   0.45398   0.57635   0.00000  Uiso   1.00
C663   C     0.40741   0.48294   0.91509   0.00000  Uiso   1.00
C664   C     0.59259   0.51706   0.58491   0.00000  Uiso   1.00
C665   C     0.43403   0.50327   0.96041   0.00000  Uiso   1.00
C666   C     0.65191   0.40202   0.75114   0.00000  Uiso   1.00
C667   C     0.56598   0.49673   0.53959   0.00000  Uiso   1.00
C668   C     0.40382   0.53718   0.99145   0.00000  Uiso   1.00
C669   C     0.59618   0.46282   0.50855   0.00000  Uiso   1.00
C670   C     0.48964   0.49209   0.97549   0.00000  Uiso   1.00
C671   C     0.51036   0.50791   0.52451   0.00000  Uiso   1.00
C672   C     0.47362   0.53148   0.55762   0.00000  Uiso   1.00
C673   C     0.52638   0.46852   0.94238   0.00000  Uiso   1.00
C674   C     0.42273   0.54901   0.54058   0.00000  Uiso   1.00
C675   C     0.57727   0.45099   0.95942   0.00000  Uiso   1.00
C676   C     0.35609   0.65229   0.74962   0.00000  Uiso   1.00
C677   C     0.64391   0.34771   0.75038   0.00000  Uiso   1.00
C678   C     0.35403   0.50376   0.84125   0.00000  Uiso   1.00
F679   F     0.41084   0.33936   0.75084   0.00000  Uiso   1.00
F680   F     0.58916   0.66064   0.74916   0.00000  Uiso   1.00
H681   H     0.39753   0.57074   0.56611   0.00000  Uiso   1.00
H682   H     0.60247   0.42926   0.93389   0.00000  Uiso   1.00
H683   H     0.36508   0.43426   0.59183   0.00000  Uiso   1.00
H684   H     0.63492   0.56574   0.90817   0.00000  Uiso   1.00
H685   H     0.66480   0.58419   0.99616   0.00000  Uiso   1.00
H686   H     0.33521   0.41581   0.50384   0.00000  Uiso   1.00
H687   H     0.48357   0.53669   0.59694   0.00000  Uiso   1.00
H688   H     0.51643   0.46331   0.90306   0.00000  Uiso   1.00
N689   N     0.48029   0.48550   0.73740   0.00000  Uiso   1.00
N690   N     0.51971   0.51450   0.76261   0.00000  Uiso   1.00
O691   O     0.63052   0.57964   0.75310   0.00000  Uiso   1.00
O692   O     0.36948   0.42036   0.74691   0.00000  Uiso   1.00
O693   O     0.39155   0.57035   0.74502   0.00000  Uiso   1.00
O694   O     0.60845   0.42965   0.75499   0.00000  Uiso   1.00
O695   O     0.63662   0.50730   0.82247   0.00000  Uiso   1.00
O696   O     0.36338   0.49270   0.67753   0.00000  Uiso   1.00
O697   O     0.39764   0.49801   0.81439   0.00000  Uiso   1.00
O698   O     0.60236   0.50199   0.68561   0.00000  Uiso   1.00
Zn699  Zn    0.60366   0.50621   0.75540   0.00000  Uiso   1.00
Zn700  Zn    0.39634   0.49379   0.74461   0.00000  Uiso   1.00
Br701  Br    0.91705   0.58751   0.61254   0.00000  Uiso   1.00
Br702  Br    0.74961   0.41249   0.88747   0.00000  Uiso   1.00
Br703  Br    0.83417   0.43072   0.69374   0.00000  Uiso   1.00
Br704  Br    0.83249   0.56928   0.80626   0.00000  Uiso   1.00
C705   C     0.68142   0.59799   0.74886   0.00000  Uiso   1.00
C706   C     0.97930   0.49624   0.65875   0.00000  Uiso   1.00
C707   C     0.69724   0.50932   0.89452   0.00000  Uiso   1.00
C708   C     0.96943   0.49068   0.60548   0.00000  Uiso   1.00
C709   C     0.68769   0.55754   0.97310   0.00000  Uiso   1.00
C710   C     0.97898   0.44246   0.52690   0.00000  Uiso   1.00
C711   C     0.66975   0.54602   0.92365   0.00000  Uiso   1.00
C712   C     0.99692   0.45398   0.57635   0.00000  Uiso   1.00
C713   C     0.74074   0.48294   0.91509   0.00000  Uiso   1.00
C714   C     0.92593   0.51706   0.58491   0.00000  Uiso   1.00
C715   C     0.76736   0.50327   0.96041   0.00000  Uiso   1.00
C716   C     0.98525   0.40202   0.75114   0.00000  Uiso   1.00
C717   C     0.89931   0.49673   0.53959   0.00000  Uiso   1.00
C718   C     0.73715   0.53718   0.99145   0.00000  Uiso   1.00
C719   C     0.92952   0.46282   0.50855   0.00000  Uiso   1.00
C720   C     0.82297   0.49209   0.97549   0.00000  Uiso   1.00
C721   C     0.84370   0.50791   0.52451   0.00000  Uiso   1.00
C722   C     0.80695   0.53148   0.55762   0.00000  Uiso   1.00
C723   C     0.85972   0.46852   0.94238   0.00000  Uiso   1.00
C724   C     0.75606   0.54901   0.54058   0.00000  Uiso   1.00
C725   C     0.91060   0.45099   0.95942   0.00000  Uiso   1.00
C726   C     0.68942   0.65229   0.74962   0.00000  Uiso   1.00
C727   C     0.97724   0.34771   0.75038   0.00000  Uiso   1.00
C728   C     0.68736   0.50376   0.84125   0.00000  Uiso   1.00
F729   F     0.74418   0.33936   0.75084   0.00000  Uiso   1.00
F730   F     0.92249   0.66064   0.74916   0.00000  Uiso   1.00
H731   H     0.73086   0.57074   0.56611   0.00000  Uiso   1.00
H732   H     0.93581   0.42926   0.93389   0.00000  Uiso   1.00
H733   H     0.69841   0.43426   0.59183   0.00000  Uiso   1.00
H734   H     0.96826   0.56574   0.90817   0.00000  Uiso   1.00
H735   H     0.99813   0.58419   0.99616   0.00000  Uiso   1.00
H736   H     0.66854   0.41581   0.50384   0.00000  Uiso   1.00
H737   H     0.81690   0.53669   0.59694   0.00000  Uiso   1.00
H738   H     0.84976   0.46331   0.90306   0.00000  Uiso   1.00
N739   N     0.81362   0.48550   0.73740   0.00000  Uiso   1.00
N740   N     0.85305   0.51450   0.76261   0.00000  Uiso   1.00
O741   O     0.96386   0.57964   0.75310   0.00000  Uiso   1.00
O742   O     0.70281   0.42036   0.74691   0.00000  Uiso   1.00
O743   O     0.72488   0.57035   0.74502   0.00000  Uiso   1.00
O744   O     0.94178   0.42965   0.75499   0.00000  Uiso   1.00
O745   O     0.96995   0.50730   0.82247   0.00000  Uiso   1.00
O746   O     0.69672   0.49270   0.67753   0.00000  Uiso   1.00
O747   O     0.73098   0.49801   0.81439   0.00000  Uiso   1.00
O748   O     0.93569   0.50199   0.68561   0.00000  Uiso   1.00
Zn749  Zn    0.93700   0.50621   0.75540   0.00000  Uiso   1.00
Zn750  Zn    0.72967   0.49379   0.74461   0.00000  Uiso   1.00
Br751  Br    0.25039   0.92085   0.61254   0.00000  Uiso   1.00
Br752  Br    0.08295   0.74582   0.88747   0.00000  Uiso   1.00
Br753  Br    0.16751   0.76406   0.69374   0.00000  Uiso   1.00
Br754  Br    0.16583   0.90261   0.80626   0.00000  Uiso   1.00
C755   C     0.01476   0.93132   0.74886   0.00000  Uiso   1.00
C756   C     0.31264   0.82958   0.65875   0.00000  Uiso   1.00
C757   C     0.03057   0.84266   0.89452   0.00000  Uiso   1.00
C758   C     0.30276   0.82401   0.60548   0.00000  Uiso   1.00
C759   C     0.02102   0.89087   0.97310   0.00000  Uiso   1.00
C760   C     0.31231   0.77580   0.52690   0.00000  Uiso   1.00
C761   C     0.00308   0.87935   0.92365   0.00000  Uiso   1.00
C762   C     0.33025   0.78732   0.57635   0.00000  Uiso   1.00
C763   C     0.07407   0.81628   0.91509   0.00000  Uiso   1.00
C764   C     0.25926   0.85039   0.58491   0.00000  Uiso   1.00
C765   C     0.10069   0.83660   0.96041   0.00000  Uiso   1.00
C766   C     0.31858   0.73535   0.75114   0.00000  Uiso   1.00
C767   C     0.23264   0.83006   0.53959   0.00000  Uiso   1.00
C768   C     0.07048   0.87051   0.99145   0.00000  Uiso   1.00
C769   C     0.26285   0.79616   0.50855   0.00000  Uiso   1.00
C770   C     0.15630   0.82542   0.97549   0.00000  Uiso   1.00
C771   C     0.17703   0.84124   0.52451   0.00000  Uiso   1.00
C772   C     0.14028   0.86481   0.55762   0.00000  Uiso   1.00
C773   C     0.19305   0.80186   0.94238   0.00000  Uiso   1.00
C774   C     0.08940   0.88234   0.54058   0.00000  Uiso   1.00
C775   C     0.24394   0.78433   0.95942   0.00000  Uiso   1.00
C776   C     0.02276   0.98563   0.74962   0.00000  Uiso   1.00
C777   C     0.31058   0.68104   0.75038   0.00000  Uiso   1.00
C778   C     0.02070   0.83709   0.84125   0.00000  Uiso   1.00
F779   F     0.07751   0.67269   0.75084   0.00000  Uiso   1.00
F780   F     0.25582   0.99398   0.74916   0.00000  Uiso   1.00
H781   H     0.06419   0.90407   0.56611   0.00000  Uiso   1.00
H782   H     0.26914   0.76259   0.93389   0.00000  Uiso   1.00
H783   H     0.03174   0.76759   0.59183   0.00000  Uiso   1.00
H784   H     0.30159   0.89908   0.90817   0.00000  Uiso   1.00
H785   H     0.33146   0.91753   0.99616   0.00000  Uiso   1.00
H786   H     0.00187   0.74914   0.50384   0.00000  Uiso   1.00
H787   H     0.15024   0.87002   0.59694   0.00000  Uiso   1.00
H788   H     0.18310   0.79665   0.90306   0.00000  Uiso   1.00
N789   N     0.14695   0.81883   0.73740   0.00000  Uiso   1.00
N790   N     0.18638   0.84784   0.76261   0.00000  Uiso   1.00
O791   O     0.29719   0.91298   0.75310   0.00000  Uiso   1.00
O792   O     0.03614   0.75369   0.74691   0.00000  Uiso   1.00
O793   O     0.05822   0.90368   0.74502   0.00000  Uiso   1.00
O794   O     0.27512   0.76298   0.75499   0.00000  Uiso   1.00
O795   O     0.30328   0.84063   0.82247   0.00000  Uiso   1.00
O796   O     0.03005   0.82603   0.67753   0.00000  Uiso   1.00
O797   O     0.06431   0.83134   0.81439   0.00000  Uiso   1.00
O798   O     0.26902   0.83533   0.68561   0.00000  Uiso   1.00
Zn799  Zn    0.27033   0.83954   0.75540   0.00000  Uiso   1.00
Zn800  Zn    0.06300   0.82713   0.74461   0.00000  Uiso   1.00
Br801  Br    0.58372   0.92085   0.61254   0.00000  Uiso   1.00
Br802  Br    0.41628   0.74582   0.88747   0.00000  Uiso   1.00
Br803  Br    0.50084   0.76406   0.69374   0.00000  Uiso   1.00
Br804  Br    0.49916   0.90261   0.80626   0.00000  Uiso   1.00
C805   C     0.34809   0.93132   0.74886   0.00000  Uiso   1.00
C806   C     0.64597   0.82958   0.65875   0.00000  Uiso   1.00
C807   C     0.36390   0.84266   0.89452   0.00000  Uiso   1.00
C808   C     0.63610   0.82401   0.60548   0.00000  Uiso   1.00
C809   C     0.35436   0.89087   0.97310   0.00000  Uiso   1.00
C810   C     0.64564   0.77580   0.52690   0.00000  Uiso   1.00
C811   C     0.33642   0.87935   0.92365   0.00000  Uiso   1.00
C812   C     0.66358   0.78732   0.57635   0.00000  Uiso   1.00
C813   C     0.40741   0.81628   0.91509   0.00000  Uiso   1.00
C814   C     0.59259   0.85039   0.58491   0.00000  Uiso   1.00
C815   C     0.43403   0.83660   0.96041   0.00000  Uiso   1.00
C816   C     0.65191   0.73535   0.75114   0.00000  Uiso   1.00
C817   C     0.56598   0.83006   0.53959   0.00000  Uiso   1.00
C818   C     0.40382   0.87051   0.99145   0.00000  Uiso   1.00
C819   C     0.59618   0.79616   0.50855   0.00000  Uiso   1.00
C820   C     0.48964   0.82542   0.97549   0.00000  Uiso   1.00
C821   C     0.51036   0.84124   0.52451   0.00000  Uiso   1.00
C822   C     0.47362   0.86481   0.55762   0.00000  Uiso   1.00
C823   C     0.52638   0.80186   0.94238   0.00000  Uiso   1.00
C824   C     0.42273   0.88234   0.54058   0.00000  Uiso   1.00
C825   C     0.57727   0.78433   0.95942   0.00000  Uiso   1.00
C826   C     0.35609   0.98563   0.74962   0.00000  Uiso   1.00
C827   C     0.64391   0.68104   0.75038   0.00000  Uiso   1.00
C828   C     0.35403   0.83709   0.84125   0.00000  Uiso   1.00
F829   F     0.41084   0.67269   0.75084   0.00000  Uiso   1.00
F830   F     0.58916   0.99398   0.74916   0.00000  Uiso   1.00
H831   H     0.39753   0.90407   0.56611   0.00000  Uiso   1.00
H832   H     0.60247   0.76259   0.93389   0.00000  Uiso   1.00
H833   H     0.36508   0.76759   0.59183   0.00000  Uiso   1.00
H834   H     0.63492   0.89908   0.90817   0.00000  Uiso   1.00
H835   H     0.66480   0.91753   0.99616   0.00000  Uiso   1.00
H836   H     0.33521   0.74914   0.50384   0.00000  Uiso   1.00
H837   H     0.48357   0.87002   0.59694   0.00000  Uiso   1.00
H838   H     0.51643   0.79665   0.90306   0.00000  Uiso   1.00
N839   N     0.48029   0.81883   0.73740   0.00000  Uiso   1.00
N840   N     0.51971   0.84784   0.76261   0.00000  Uiso   1.00
O841   O     0.63052   0.91298   0.75310   0.00000  Uiso   1.00
O842   O     0.36948   0.75369   0.74691   0.00000  Uiso   1.00
O843   O     0.39155   0.90368   0.74502   0.00000  Uiso   1.00
O844   O     0.60845   0.76298   0.75499   0.00000  Uiso   1.00
O845   O     0.63662   0.84063   0.82247   0.00000  Uiso   1.00
O846   O     0.36338   0.82603   0.67753   0.00000  Uiso   1.00
O847   O     0.39764   0.83134   0.81439   0.00000  Uiso   1.00
O848   O     0.60236   0.83533   0.68561   0.00000  Uiso   1.00
Zn849  Zn    0.60366   0.83954   0.75540   0.00000  Uiso   1.00
Zn850  Zn    0.39634   0.82713   0.74461   0.00000  Uiso   1.00
Br851  Br    0.91705   0.92085   0.61254   0.00000  Uiso   1.00
Br852  Br    0.74961   0.74582   0.88747   0.00000  Uiso   1.00
Br853  Br    0.83417   0.76406   0.69374   0.00000  Uiso   1.00
Br854  Br    0.83249   0.90261   0.80626   0.00000  Uiso   1.00
C855   C     0.68142   0.93132   0.74886   0.00000  Uiso   1.00
C856   C     0.97930   0.82958   0.65875   0.00000  Uiso   1.00
C857   C     0.69724   0.84266   0.89452   0.00000  Uiso   1.00
C858   C     0.96943   0.82401   0.60548   0.00000  Uiso   1.00
C859   C     0.68769   0.89087   0.97310   0.00000  Uiso   1.00
C860   C     0.97898   0.77580   0.52690   0.00000  Uiso   1.00
C861   C     0.66975   0.87935   0.92365   0.00000  Uiso   1.00
C862   C     0.99692   0.78732   0.57635   0.00000  Uiso   1.00
C863   C     0.74074   0.81628   0.91509   0.00000  Uiso   1.00
C864   C     0.92593   0.85039   0.58491   0.00000  Uiso   1.00
C865   C     0.76736   0.83660   0.96041   0.00000  Uiso   1.00
C866   C     0.98525   0.73535   0.75114   0.00000  Uiso   1.00
C867   C     0.89931   0.83006   0.53959   0.00000  Uiso   1.00
C868   C     0.73715   0.87051   0.99145   0.00000  Uiso   1.00
C869   C     0.92952   0.79616   0.50855   0.00000  Uiso   1.00
C870   C     0.82297   0.82542   0.97549   0.00000  Uiso   1.00
C871   C     0.84370   0.84124   0.52451   0.00000  Uiso   1.00
C872   C     0.80695   0.86481   0.55762   0.00000  Uiso   1.00
C873   C     0.85972   0.80186   0.94238   0.00000  Uiso   1.00
C874   C     0.75606   0.88234   0.54058   0.00000  Uiso   1.00
C875   C     0.91060   0.78433   0.95942   0.00000  Uiso   1.00
C876   C     0.68942   0.98563   0.74962   0.00000  Uiso   1.00
C877   C     0.97724   0.68104   0.75038   0.00000  Uiso   1.00
C878   C     0.68736   0.83709   0.84125   0.00000  Uiso   1.00
F879   F     0.74418   0.67269   0.75084   0.00000  Uiso   1.00
F880   F     0.92249   0.99398   0.74916   0.00000  Uiso   1.00
H881   H     0.73086   0.90407   0.56611   0.00000  Uiso   1.00
H882   H     0.93581   0.76259   0.93389   0.00000  Uiso   1.00
H883   H     0.69841   0.76759   0.59183   0.00000  Uiso   1.00
H884   H     0.96826   0.89908   0.90817   0.00000  Uiso   1.00
H885   H     0.99813   0.91753   0.99616   0.00000  Uiso   1.00
H886   H     0.66854   0.74914   0.50384   0.00000  Uiso   1.00
H887   H     0.81690   0.87002   0.59694   0.00000  Uiso   1.00
H888   H     0.84976   0.79665   0.90306   0.00000  Uiso   1.00
N889   N     0.81362   0.81883   0.73740   0.00000  Uiso   1.00
N890   N     0.85305   0.84784   0.76261   0.00000  Uiso   1.00
O891   O     0.96386   0.91298   0.75310   0.00000  Uiso   1.00
O892   O     0.70281   0.75369   0.74691   0.00000  Uiso   1.00
O893   O     0.72488   0.90368   0.74502   0.00000  Uiso   1.00
O894   O     0.94178   0.76298   0.75499   0.00000  Uiso   1.00
O895   O     0.96995   0.84063   0.82247   0.00000  Uiso   1.00
O896   O     0.69672   0.82603   0.67753   0.00000  Uiso   1.00
O897   O     0.73098   0.83134   0.81439   0.00000  Uiso   1.00
O898   O     0.93569   0.83533   0.68561   0.00000  Uiso   1.00
Zn899  Zn    0.93700   0.83954   0.75540   0.00000  Uiso   1.00
Zn900  Zn    0.72967   0.82713   0.74461   0.00000  Uiso   1.00
loop_
_geom_bond_atom_site_label_1
_geom_bond_atom_site_label_2
_geom_bond_distance
_geom_bond_site_symmetry_2
_ccdc_geom_bond_type
Br1    C14     1.941   .     S
Br2    C13     1.941   .     S
Br3    N39     1.878   .     S
Br4    N40     1.878   .     S
C5     O43     1.295   .     A
C5     C26     1.401   .     S
C5     O141    1.280   1_455 S
C6     C8      1.448   .     S
C6     O48     1.303   .     A
C6     O96     1.295   .     S
C7     C11     1.400   .     A
C7     C13     1.391   .     A
C7     C28     1.448   .     S
C8     C12     1.400   .     A
C8     C14     1.391   .     A
C9     C11     1.392   .     A
C9     C18     1.402   .     A
C9     H135    1.084   1_455 S
C10    C19     1.402   .     A
C10    C12     1.392   .     A
C10    H86     1.084   .     S
C11    H134    1.083   1_455 S
C12    H83     1.083   .     S
C13    C15     1.403   .     A
C14    C17     1.403   .     A
C15    C18     1.419   .     A
C15    C20     1.416   .     A
C16    O44     1.295   .     A
C16    C27     1.401   .     S
C16    O92     1.280   .     S
C17    C19     1.419   .     A
C17    C21     1.416   .     A
C18    C474    1.391   .     S
C19    C475    1.391   1_554 S
C20    C23     1.413   .     A
C20    C471    1.416   .     S
C21    C22     1.413   .     A
C21    C470    1.416   1_554 S
C22    C24     1.387   .     A
C22    H37     1.078   .     S
C23    H38     1.078   .     S
C23    C25     1.387   .     A
C24    H31     1.084   .     S
C24    C468    1.391   1_554 S
C25    H32     1.084   .     S
C25    C469    1.391   .     S
C26    C277    1.349   1_455 S
C26    F179    1.365   .     S
C27    C376    1.349   1_545 S
C27    F330    1.365   1_545 S
C28    O47     1.303   .     A
C28    O145    1.295   1_455 S
F29    C326    1.365   1_545 S
F30    C177    1.365   .     S
H33    C112    1.083   1_455 S
H34    C61     1.083   .     S
H35    C59     1.084   .     S
H36    C110    1.084   1_455 S
N39    Zn50    2.032   .     S
N39    N40     1.291   .     D
N40    Zn49    2.032   .     S
O41    Zn49    1.966   .     S
O41    C55     1.280   .     S
O42    Zn50    1.966   .     S
O42    C116    1.280   1_455 S
O43    Zn50    1.986   .     S
O44    Zn49    1.986   .     S
O45    Zn49    1.944   .     S
O45    C78     1.295   .     S
O46    Zn50    1.944   .     S
O46    C106    1.295   1_455 S
O47    Zn50    1.888   .     S
O48    Zn49    1.888   .     S
Br51   C64     1.941   .     S
Br52   C63     1.941   .     S
Br53   N89     1.878   .     S
Br54   N90     1.878   .     S
C55    O93     1.295   .     A
C55    C76     1.401   .     S
C56    C58     1.448   .     S
C56    O98     1.303   .     A
C56    O146    1.295   .     S
C57    C61     1.400   .     A
C57    C63     1.391   .     A
C57    C78     1.448   .     S
C58    C62     1.400   .     A
C58    C64     1.391   .     A
C59    C61     1.392   .     A
C59    C68     1.402   .     A
C60    C69     1.402   .     A
C60    C62     1.392   .     A
C60    H136    1.084   .     S
C62    H133    1.083   .     S
C63    C65     1.403   .     A
C64    C67     1.403   .     A
C65    C68     1.419   .     A
C65    C70     1.416   .     A
C66    O94     1.295   .     A
C66    C77     1.401   .     S
C66    O142    1.280   .     S
C67    C69     1.419   .     A
C67    C71     1.416   .     A
C68    C524    1.391   .     S
C69    C525    1.391   1_554 S
C70    C73     1.413   .     A
C70    C521    1.416   .     S
C71    C72     1.413   .     A
C71    C520    1.416   1_554 S
C72    C74     1.387   .     A
C72    H87     1.078   .     S
C73    H88     1.078   .     S
C73    C75     1.387   .     A
C74    H81     1.084   .     S
C74    C518    1.391   1_554 S
C75    H82     1.084   .     S
C75    C519    1.391   .     S
C76    C177    1.349   .     S
C76    F229    1.365   .     S
C77    C426    1.349   1_545 S
C77    F380    1.365   1_545 S
C78    O97     1.303   .     A
F79    C376    1.365   1_545 S
F80    C227    1.365   .     S
H84    C111    1.083   .     S
H85    C109    1.084   .     S
N89    Zn100   2.032   .     S
N89    N90     1.291   .     D
N90    Zn99    2.032   .     S
O91    Zn99    1.966   .     S
O91    C105    1.280   .     S
O92    Zn100   1.966   .     S
O93    Zn100   1.986   .     S
O94    Zn99    1.986   .     S
O95    Zn99    1.944   .     S
O95    C128    1.295   .     S
O96    Zn100   1.944   .     S
O97    Zn100   1.888   .     S
O98    Zn99    1.888   .     S
Br101  C114    1.941   .     S
Br102  C113    1.941   .     S
Br103  N139    1.878   .     S
Br104  N140    1.878   .     S
C105   O143    1.295   .     A
C105   C126    1.401   .     S
C106   C108    1.448   .     S
C106   O148    1.303   .     A
C106   O46     1.295   1_655 S
C107   C111    1.400   .     A
C107   C113    1.391   .     A
C107   C128    1.448   .     S
C108   C112    1.400   .     A
C108   C114    1.391   .     A
C109   C111    1.392   .     A
C109   C118    1.402   .     A
C110   C119    1.402   .     A
C110   C112    1.392   .     A
C110   H36     1.084   1_655 S
C112   H33     1.083   1_655 S
C113   C115    1.403   .     A
C114   C117    1.403   .     A
C115   C118    1.419   .     A
C115   C120    1.416   .     A
C116   O144    1.295   .     A
C116   C127    1.401   .     S
C116   O42     1.280   1_655 S
C117   C119    1.419   .     A
C117   C121    1.416   .     A
C118   C574    1.391   .     S
C119   C575    1.391   1_554 S
C120   C123    1.413   .     A
C120   C571    1.416   .     S
C121   C122    1.413   .     A
C121   C570    1.416   1_554 S
C122   C124    1.387   .     A
C122   H137    1.078   .     S
C123   H138    1.078   .     S
C123   C125    1.387   .     A
C124   H131    1.084   .     S
C124   C568    1.391   1_554 S
C125   H132    1.084   .     S
C125   C569    1.391   .     S
C126   C227    1.349   .     S
C126   F279    1.365   .     S
C127   C326    1.349   1_645 S
C127   F430    1.365   1_545 S
C128   O147    1.303   .     A
F129   C426    1.365   1_545 S
F130   C277    1.365   .     S
H134   C11     1.083   1_655 S
H135   C9      1.084   1_655 S
N139   Zn150   2.032   .     S
N139   N140    1.291   .     D
N140   Zn149   2.032   .     S
O141   Zn149   1.966   .     S
O141   C5      1.280   1_655 S
O142   Zn150   1.966   .     S
O143   Zn150   1.986   .     S
O144   Zn149   1.986   .     S
O145   Zn149   1.944   .     S
O145   C28     1.295   1_655 S
O146   Zn150   1.944   .     S
O147   Zn150   1.888   .     S
O148   Zn149   1.888   .     S
Br151  C164    1.941   .     S
Br152  C163    1.941   .     S
Br153  N189    1.878   .     S
Br154  N190    1.878   .     S
C155   O193    1.295   .     A
C155   C176    1.401   .     S
C155   O291    1.280   1_455 S
C156   C158    1.448   .     S
C156   O198    1.303   .     A
C156   O246    1.295   .     S
C157   C161    1.400   .     A
C157   C163    1.391   .     A
C157   C178    1.448   .     S
C158   C162    1.400   .     A
C158   C164    1.391   .     A
C159   C161    1.392   .     A
C159   C168    1.402   .     A
C159   H285    1.084   1_455 S
C160   C169    1.402   .     A
C160   C162    1.392   .     A
C160   H236    1.084   .     S
C161   H284    1.083   1_455 S
C162   H233    1.083   .     S
C163   C165    1.403   .     A
C164   C167    1.403   .     A
C165   C168    1.419   .     A
C165   C170    1.416   .     A
C166   O194    1.295   .     A
C166   C177    1.401   .     S
C166   O242    1.280   .     S
C167   C169    1.419   .     A
C167   C171    1.416   .     A
C168   C624    1.391   .     S
C169   C625    1.391   1_554 S
C170   C173    1.413   .     A
C170   C621    1.416   .     S
C171   C172    1.413   .     A
C171   C620    1.416   1_554 S
C172   C174    1.387   .     A
C172   H187    1.078   .     S
C173   H188    1.078   .     S
C173   C175    1.387   .     A
C174   H181    1.084   .     S
C174   C618    1.391   1_554 S
C175   H182    1.084   .     S
C175   C619    1.391   .     S
C176   C427    1.349   1_455 S
C176   F329    1.365   .     S
C178   O197    1.303   .     A
C178   O295    1.295   1_455 S
F180   C327    1.365   .     S
H183   C262    1.083   1_455 S
H184   C211    1.083   .     S
H185   C209    1.084   .     S
H186   C260    1.084   1_455 S
N189   Zn200   2.032   .     S
N189   N190    1.291   .     D
N190   Zn199   2.032   .     S
O191   Zn199   1.966   .     S
O191   C205    1.280   .     S
O192   Zn200   1.966   .     S
O192   C266    1.280   1_455 S
O193   Zn200   1.986   .     S
O194   Zn199   1.986   .     S
O195   Zn199   1.944   .     S
O195   C228    1.295   .     S
O196   Zn200   1.944   .     S
O196   C256    1.295   1_455 S
O197   Zn200   1.888   .     S
O198   Zn199   1.888   .     S
Br201  C214    1.941   .     S
Br202  C213    1.941   .     S
Br203  N239    1.878   .     S
Br204  N240    1.878   .     S
C205   O243    1.295   .     A
C205   C226    1.401   .     S
C206   C208    1.448   .     S
C206   O248    1.303   .     A
C206   O296    1.295   .     S
C207   C211    1.400   .     A
C207   C213    1.391   .     A
C207   C228    1.448   .     S
C208   C212    1.400   .     A
C208   C214    1.391   .     A
C209   C211    1.392   .     A
C209   C218    1.402   .     A
C210   C219    1.402   .     A
C210   C212    1.392   .     A
C210   H286    1.084   .     S
C212   H283    1.083   .     S
C213   C215    1.403   .     A
C214   C217    1.403   .     A
C215   C218    1.419   .     A
C215   C220    1.416   .     A
C216   O244    1.295   .     A
C216   C227    1.401   .     S
C216   O292    1.280   .     S
C217   C219    1.419   .     A
C217   C221    1.416   .     A
C218   C674    1.391   .     S
C219   C675    1.391   1_554 S
C220   C223    1.413   .     A
C220   C671    1.416   .     S
C221   C222    1.413   .     A
C221   C670    1.416   1_554 S
C222   C224    1.387   .     A
C222   H237    1.078   .     S
C223   H238    1.078   .     S
C223   C225    1.387   .     A
C224   H231    1.084   .     S
C224   C668    1.391   1_554 S
C225   H232    1.084   .     S
C225   C669    1.391   .     S
C226   C327    1.349   .     S
C226   F379    1.365   .     S
C228   O247    1.303   .     A
F230   C377    1.365   .     S
H234   C261    1.083   .     S
H235   C259    1.084   .     S
N239   Zn250   2.032   .     S
N239   N240    1.291   .     D
N240   Zn249   2.032   .     S
O241   Zn249   1.966   .     S
O241   C255    1.280   .     S
O242   Zn250   1.966   .     S
O243   Zn250   1.986   .     S
O244   Zn249   1.986   .     S
O245   Zn249   1.944   .     S
O245   C278    1.295   .     S
O246   Zn250   1.944   .     S
O247   Zn250   1.888   .     S
O248   Zn249   1.888   .     S
Br251  C264    1.941   .     S
Br252  C263    1.941   .     S
Br253  N289    1.878   .     S
Br254  N290    1.878   .     S
C255   O293    1.295   .     A
C255   C276    1.401   .     S
C256   C258    1.448   .     S
C256   O298    1.303   .     A
C256   O196    1.295   1_655 S
C257   C261    1.400   .     A
C257   C263    1.391   .     A
C257   C278    1.448   .     S
C258   C262    1.400   .     A
C258   C264    1.391   .     A
C259   C261    1.392   .     A
C259   C268    1.402   .     A
C260   C269    1.402   .     A
C260   C262    1.392   .     A
C260   H186    1.084   1_655 S
C262   H183    1.083   1_655 S
C263   C265    1.403   .     A
C264   C267    1.403   .     A
C265   C268    1.419   .     A
C265   C270    1.416   .     A
C266   O294    1.295   .     A
C266   C277    1.401   .     S
C266   O192    1.280   1_655 S
C267   C269    1.419   .     A
C267   C271    1.416   .     A
C268   C724    1.391   .     S
C269   C725    1.391   1_554 S
C270   C273    1.413   .     A
C270   C721    1.416   .     S
C271   C272    1.413   .     A
C271   C720    1.416   1_554 S
C272   C274    1.387   .     A
C272   H287    1.078   .     S
C273   H288    1.078   .     S
C273   C275    1.387   .     A
C274   H281    1.084   .     S
C274   C718    1.391   1_554 S
C275   H282    1.084   .     S
C275   C719    1.391   .     S
C276   C377    1.349   .     S
C276   F429    1.365   .     S
C277   C26     1.349   1_655 S
C278   O297    1.303   .     A
F280   C427    1.365   .     S
H284   C161    1.083   1_655 S
H285   C159    1.084   1_655 S
N289   Zn300   2.032   .     S
N289   N290    1.291   .     D
N290   Zn299   2.032   .     S
O291   Zn299   1.966   .     S
O291   C155    1.280   1_655 S
O292   Zn300   1.966   .     S
O293   Zn300   1.986   .     S
O294   Zn299   1.986   .     S
O295   Zn299   1.944   .     S
O295   C178    1.295   1_655 S
O296   Zn300   1.944   .     S
O297   Zn300   1.888   .     S
O298   Zn299   1.888   .     S
Br301  C314    1.941   .     S
Br302  C313    1.941   .     S
Br303  N339    1.878   .     S
Br304  N340    1.878   .     S
C305   O343    1.295   .     A
C305   C326    1.401   .     S
C305   O441    1.280   1_455 S
C306   C308    1.448   .     S
C306   O348    1.303   .     A
C306   O396    1.295   .     S
C307   C311    1.400   .     A
C307   C313    1.391   .     A
C307   C328    1.448   .     S
C308   C312    1.400   .     A
C308   C314    1.391   .     A
C309   C311    1.392   .     A
C309   C318    1.402   .     A
C309   H435    1.084   1_455 S
C310   C319    1.402   .     A
C310   C312    1.392   .     A
C310   H386    1.084   .     S
C311   H434    1.083   1_455 S
C312   H383    1.083   .     S
C313   C315    1.403   .     A
C314   C317    1.403   .     A
C315   C318    1.419   .     A
C315   C320    1.416   .     A
C316   O344    1.295   .     A
C316   C327    1.401   .     S
C316   O392    1.280   .     S
C317   C319    1.419   .     A
C317   C321    1.416   .     A
C318   C774    1.391   .     S
C319   C775    1.391   1_554 S
C320   C323    1.413   .     A
C320   C771    1.416   .     S
C321   C322    1.413   .     A
C321   C770    1.416   1_554 S
C322   C324    1.387   .     A
C322   H337    1.078   .     S
C323   H338    1.078   .     S
C323   C325    1.387   .     A
C324   H331    1.084   .     S
C324   C768    1.391   1_554 S
C325   H332    1.084   .     S
C325   C769    1.391   .     S
C326   C127    1.349   1_465 S
C326   F29     1.365   1_565 S
C328   O347    1.303   .     A
C328   O445    1.295   1_455 S
F330   C27     1.365   1_565 S
H333   C412    1.083   1_455 S
H334   C361    1.083   .     S
H335   C359    1.084   .     S
H336   C410    1.084   1_455 S
N339   Zn350   2.032   .     S
N339   N340    1.291   .     D
N340   Zn349   2.032   .     S
O341   Zn349   1.966   .     S
O341   C355    1.280   .     S
O342   Zn350   1.966   .     S
O342   C416    1.280   1_455 S
O343   Zn350   1.986   .     S
O344   Zn349   1.986   .     S
O345   Zn349   1.944   .     S
O345   C378    1.295   .     S
O346   Zn350   1.944   .     S
O346   C406    1.295   1_455 S
O347   Zn350   1.888   .     S
O348   Zn349   1.888   .     S
Br351  C364    1.941   .     S
Br352  C363    1.941   .     S
Br353  N389    1.878   .     S
Br354  N390    1.878   .     S
C355   O393    1.295   .     A
C355   C376    1.401   .     S
C356   C358    1.448   .     S
C356   O398    1.303   .     A
C356   O446    1.295   .     S
C357   C361    1.400   .     A
C357   C363    1.391   .     A
C357   C378    1.448   .     S
C358   C362    1.400   .     A
C358   C364    1.391   .     A
C359   C361    1.392   .     A
C359   C368    1.402   .     A
C360   C369    1.402   .     A
C360   C362    1.392   .     A
C360   H436    1.084   .     S
C362   H433    1.083   .     S
C363   C365    1.403   .     A
C364   C367    1.403   .     A
C365   C368    1.419   .     A
C365   C370    1.416   .     A
C366   O394    1.295   .     A
C366   C377    1.401   .     S
C366   O442    1.280   .     S
C367   C369    1.419   .     A
C367   C371    1.416   .     A
C368   C824    1.391   .     S
C369   C825    1.391   1_554 S
C370   C373    1.413   .     A
C370   C821    1.416   .     S
C371   C372    1.413   .     A
C371   C820    1.416   1_554 S
C372   C374    1.387   .     A
C372   H387    1.078   .     S
C373   H388    1.078   .     S
C373   C375    1.387   .     A
C374   H381    1.084   .     S
C374   C818    1.391   1_554 S
C375   H382    1.084   .     S
C375   C819    1.391   .     S
C376   C27     1.349   1_565 S
C376   F79     1.365   1_565 S
C378   O397    1.303   .     A
F380   C77     1.365   1_565 S
H384   C411    1.083   .     S
H385   C409    1.084   .     S
N389   Zn400   2.032   .     S
N389   N390    1.291   .     D
N390   Zn399   2.032   .     S
O391   Zn399   1.966   .     S
O391   C405    1.280   .     S
O392   Zn400   1.966   .     S
O393   Zn400   1.986   .     S
O394   Zn399   1.986   .     S
O395   Zn399   1.944   .     S
O395   C428    1.295   .     S
O396   Zn400   1.944   .     S
O397   Zn400   1.888   .     S
O398   Zn399   1.888   .     S
Br401  C414    1.941   .     S
Br402  C413    1.941   .     S
Br403  N439    1.878   .     S
Br404  N440    1.878   .     S
C405   O443    1.295   .     A
C405   C426    1.401   .     S
C406   C408    1.448   .     S
C406   O448    1.303   .     A
C406   O346    1.295   1_655 S
C407   C411    1.400   .     A
C407   C413    1.391   .     A
C407   C428    1.448   .     S
C408   C412    1.400   .     A
C408   C414    1.391   .     A
C409   C411    1.392   .     A
C409   C418    1.402   .     A
C410   C419    1.402   .     A
C410   C412    1.392   .     A
C410   H336    1.084   1_655 S
C412   H333    1.083   1_655 S
C413   C415    1.403   .     A
C414   C417    1.403   .     A
C415   C418    1.419   .     A
C415   C420    1.416   .     A
C416   O444    1.295   .     A
C416   C427    1.401   .     S
C416   O342    1.280   1_655 S
C417   C419    1.419   .     A
C417   C421    1.416   .     A
C418   C874    1.391   .     S
C419   C875    1.391   1_554 S
C420   C423    1.413   .     A
C420   C871    1.416   .     S
C421   C422    1.413   .     A
C421   C870    1.416   1_554 S
C422   C424    1.387   .     A
C422   H437    1.078   .     S
C423   H438    1.078   .     S
C423   C425    1.387   .     A
C424   H431    1.084   .     S
C424   C868    1.391   1_554 S
C425   H432    1.084   .     S
C425   C869    1.391   .     S
C426   C77     1.349   1_565 S
C426   F129    1.365   1_565 S
C427   C176    1.349   1_655 S
C428   O447    1.303   .     A
F430   C127    1.365   1_565 S
H434   C311    1.083   1_655 S
H435   C309    1.084   1_655 S
N439   Zn450   2.032   .     S
N439   N440    1.291   .     D
N440   Zn449   2.032   .     S
O441   Zn449   1.966   .     S
O441   C305    1.280   1_655 S
O442   Zn450   1.966   .     S
O443   Zn450   1.986   .     S
O444   Zn449   1.986   .     S
O445   Zn449   1.944   .     S
O445   C328    1.295   1_655 S
O446   Zn450   1.944   .     S
O447   Zn450   1.888   .     S
O448   Zn449   1.888   .     S
Br451  C464    1.941   .     S
Br452  C463    1.941   .     S
Br453  N489    1.878   .     S
Br454  N490    1.878   .     S
C455   O493    1.295   .     A
C455   C476    1.401   .     S
C455   O591    1.280   1_455 S
C456   C458    1.448   .     S
C456   O498    1.303   .     A
C456   O546    1.295   .     S
C457   C461    1.400   .     A
C457   C463    1.391   .     A
C457   C478    1.448   .     S
C458   C462    1.400   .     A
C458   C464    1.391   .     A
C459   C461    1.392   .     A
C459   C468    1.402   .     A
C459   H585    1.084   1_455 S
C460   C469    1.402   .     A
C460   C462    1.392   .     A
C460   H536    1.084   .     S
C461   H584    1.083   1_455 S
C462   H533    1.083   .     S
C463   C465    1.403   .     A
C464   C467    1.403   .     A
C465   C468    1.419   .     A
C465   C470    1.416   .     A
C466   O494    1.295   .     A
C466   C477    1.401   .     S
C466   O542    1.280   .     S
C467   C469    1.419   .     A
C467   C471    1.416   .     A
C468   C24     1.391   1_556 S
C470   C473    1.413   .     A
C470   C21     1.416   1_556 S
C471   C472    1.413   .     A
C472   C474    1.387   .     A
C472   H487    1.078   .     S
C473   H488    1.078   .     S
C473   C475    1.387   .     A
C474   H481    1.084   .     S
C475   H482    1.084   .     S
C475   C19     1.391   1_556 S
C476   C727    1.349   1_455 S
C476   F629    1.365   .     S
C477   C826    1.349   1_545 S
C477   F780    1.365   1_545 S
C478   O497    1.303   .     A
C478   O595    1.295   1_455 S
F479   C776    1.365   1_545 S
F480   C627    1.365   .     S
H483   C562    1.083   1_455 S
H484   C511    1.083   .     S
H485   C509    1.084   .     S
H486   C560    1.084   1_455 S
N489   Zn500   2.032   .     S
N489   N490    1.291   .     D
N490   Zn499   2.032   .     S
O491   Zn499   1.966   .     S
O491   C505    1.280   .     S
O492   Zn500   1.966   .     S
O492   C566    1.280   1_455 S
O493   Zn500   1.986   .     S
O494   Zn499   1.986   .     S
O495   Zn499   1.944   .     S
O495   C528    1.295   .     S
O496   Zn500   1.944   .     S
O496   C556    1.295   1_455 S
O497   Zn500   1.888   .     S
O498   Zn499   1.888   .     S
Br501  C514    1.941   .     S
Br502  C513    1.941   .     S
Br503  N539    1.878   .     S
Br504  N540    1.878   .     S
C505   O543    1.295   .     A
C505   C526    1.401   .     S
C506   C508    1.448   .     S
C506   O548    1.303   .     A
C506   O596    1.295   .     S
C507   C511    1.400   .     A
C507   C513    1.391   .     A
C507   C528    1.448   .     S
C508   C512    1.400   .     A
C508   C514    1.391   .     A
C509   C511    1.392   .     A
C509   C518    1.402   .     A
C510   C519    1.402   .     A
C510   C512    1.392   .     A
C510   H586    1.084   .     S
C512   H583    1.083   .     S
C513   C515    1.403   .     A
C514   C517    1.403   .     A
C515   C518    1.419   .     A
C515   C520    1.416   .     A
C516   O544    1.295   .     A
C516   C527    1.401   .     S
C516   O592    1.280   .     S
C517   C519    1.419   .     A
C517   C521    1.416   .     A
C518   C74     1.391   1_556 S
C520   C523    1.413   .     A
C520   C71     1.416   1_556 S
C521   C522    1.413   .     A
C522   C524    1.387   .     A
C522   H537    1.078   .     S
C523   H538    1.078   .     S
C523   C525    1.387   .     A
C524   H531    1.084   .     S
C525   H532    1.084   .     S
C525   C69     1.391   1_556 S
C526   C627    1.349   .     S
C526   F679    1.365   .     S
C527   C876    1.349   1_545 S
C527   F830    1.365   1_545 S
C528   O547    1.303   .     A
F529   C826    1.365   1_545 S
F530   C677    1.365   .     S
H534   C561    1.083   .     S
H535   C559    1.084   .     S
N539   Zn550   2.032   .     S
N539   N540    1.291   .     D
N540   Zn549   2.032   .     S
O541   Zn549   1.966   .     S
O541   C555    1.280   .     S
O542   Zn550   1.966   .     S
O543   Zn550   1.986   .     S
O544   Zn549   1.986   .     S
O545   Zn549   1.944   .     S
O545   C578    1.295   .     S
O546   Zn550   1.944   .     S
O547   Zn550   1.888   .     S
O548   Zn549   1.888   .     S
Br551  C564    1.941   .     S
Br552  C563    1.941   .     S
Br553  N589    1.878   .     S
Br554  N590    1.878   .     S
C555   O593    1.295   .     A
C555   C576    1.401   .     S
C556   C558    1.448   .     S
C556   O598    1.303   .     A
C556   O496    1.295   1_655 S
C557   C561    1.400   .     A
C557   C563    1.391   .     A
C557   C578    1.448   .     S
C558   C562    1.400   .     A
C558   C564    1.391   .     A
C559   C561    1.392   .     A
C559   C568    1.402   .     A
C560   C569    1.402   .     A
C560   C562    1.392   .     A
C560   H486    1.084   1_655 S
C562   H483    1.083   1_655 S
C563   C565    1.403   .     A
C564   C567    1.403   .     A
C565   C568    1.419   .     A
C565   C570    1.416   .     A
C566   O594    1.295   .     A
C566   C577    1.401   .     S
C566   O492    1.280   1_655 S
C567   C569    1.419   .     A
C567   C571    1.416   .     A
C568   C124    1.391   1_556 S
C570   C573    1.413   .     A
C570   C121    1.416   1_556 S
C571   C572    1.413   .     A
C572   C574    1.387   .     A
C572   H587    1.078   .     S
C573   H588    1.078   .     S
C573   C575    1.387   .     A
C574   H581    1.084   .     S
C575   H582    1.084   .     S
C575   C119    1.391   1_556 S
C576   C677    1.349   .     S
C576   F729    1.365   .     S
C577   C776    1.349   1_645 S
C577   F880    1.365   1_545 S
C578   O597    1.303   .     A
F579   C876    1.365   1_545 S
F580   C727    1.365   .     S
H584   C461    1.083   1_655 S
H585   C459    1.084   1_655 S
N589   Zn600   2.032   .     S
N589   N590    1.291   .     D
N590   Zn599   2.032   .     S
O591   Zn599   1.966   .     S
O591   C455    1.280   1_655 S
O592   Zn600   1.966   .     S
O593   Zn600   1.986   .     S
O594   Zn599   1.986   .     S
O595   Zn599   1.944   .     S
O595   C478    1.295   1_655 S
O596   Zn600   1.944   .     S
O597   Zn600   1.888   .     S
O598   Zn599   1.888   .     S
Br601  C614    1.941   .     S
Br602  C613    1.941   .     S
Br603  N639    1.878   .     S
Br604  N640    1.878   .     S
C605   O643    1.295   .     A
C605   C626    1.401   .     S
C605   O741    1.280   1_455 S
C606   C608    1.448   .     S
C606   O648    1.303   .     A
C606   O696    1.295   .     S
C607   C611    1.400   .     A
C607   C613    1.391   .     A
C607   C628    1.448   .     S
C608   C612    1.400   .     A
C608   C614    1.391   .     A
C609   C611    1.392   .     A
C609   C618    1.402   .     A
C609   H735    1.084   1_455 S
C610   C619    1.402   .     A
C610   C612    1.392   .     A
C610   H686    1.084   .     S
C611   H734    1.083   1_455 S
C612   H683    1.083   .     S
C613   C615    1.403   .     A
C614   C617    1.403   .     A
C615   C618    1.419   .     A
C615   C620    1.416   .     A
C616   O644    1.295   .     A
C616   C627    1.401   .     S
C616   O692    1.280   .     S
C617   C619    1.419   .     A
C617   C621    1.416   .     A
C618   C174    1.391   1_556 S
C620   C623    1.413   .     A
C620   C171    1.416   1_556 S
C621   C622    1.413   .     A
C622   C624    1.387   .     A
C622   H637    1.078   .     S
C623   H638    1.078   .     S
C623   C625    1.387   .     A
C624   H631    1.084   .     S
C625   H632    1.084   .     S
C625   C169    1.391   1_556 S
C626   C877    1.349   1_455 S
C626   F779    1.365   .     S
C628   O647    1.303   .     A
C628   O745    1.295   1_455 S
F630   C777    1.365   .     S
H633   C712    1.083   1_455 S
H634   C661    1.083   .     S
H635   C659    1.084   .     S
H636   C710    1.084   1_455 S
N639   Zn650   2.032   .     S
N639   N640    1.291   .     D
N640   Zn649   2.032   .     S
O641   Zn649   1.966   .     S
O641   C655    1.280   .     S
O642   Zn650   1.966   .     S
O642   C716    1.280   1_455 S
O643   Zn650   1.986   .     S
O644   Zn649   1.986   .     S
O645   Zn649   1.944   .     S
O645   C678    1.295   .     S
O646   Zn650   1.944   .     S
O646   C706    1.295   1_455 S
O647   Zn650   1.888   .     S
O648   Zn649   1.888   .     S
Br651  C664    1.941   .     S
Br652  C663    1.941   .     S
Br653  N689    1.878   .     S
Br654  N690    1.878   .     S
C655   O693    1.295   .     A
C655   C676    1.401   .     S
C656   C658    1.448   .     S
C656   O698    1.303   .     A
C656   O746    1.295   .     S
C657   C661    1.400   .     A
C657   C663    1.391   .     A
C657   C678    1.448   .     S
C658   C662    1.400   .     A
C658   C664    1.391   .     A
C659   C661    1.392   .     A
C659   C668    1.402   .     A
C660   C669    1.402   .     A
C660   C662    1.392   .     A
C660   H736    1.084   .     S
C662   H733    1.083   .     S
C663   C665    1.403   .     A
C664   C667    1.403   .     A
C665   C668    1.419   .     A
C665   C670    1.416   .     A
C666   O694    1.295   .     A
C666   C677    1.401   .     S
C666   O742    1.280   .     S
C667   C669    1.419   .     A
C667   C671    1.416   .     A
C668   C224    1.391   1_556 S
C670   C673    1.413   .     A
C670   C221    1.416   1_556 S
C671   C672    1.413   .     A
C672   C674    1.387   .     A
C672   H687    1.078   .     S
C673   H688    1.078   .     S
C673   C675    1.387   .     A
C674   H681    1.084   .     S
C675   H682    1.084   .     S
C675   C219    1.391   1_556 S
C676   C777    1.349   .     S
C676   F829    1.365   .     S
C678   O697    1.303   .     A
F680   C827    1.365   .     S
H684   C711    1.083   .     S
H685   C709    1.084   .     S
N689   Zn700   2.032   .     S
N689   N690    1.291   .     D
N690   Zn699   2.032   .     S
O691   Zn699   1.966   .     S
O691   C705    1.280   .     S
O692   Zn700   1.966   .     S
O693   Zn700   1.986   .     S
O694   Zn699   1.986   .     S
O695   Zn699   1.944   .     S
O695   C728    1.295   .     S
O696   Zn700   1.944   .     S
O697   Zn700   1.888   .     S
O698   Zn699   1.888   .     S
Br701  C714    1.941   .     S
Br702  C713    1.941   .     S
Br703  N739    1.878   .     S
Br704  N740    1.878   .     S
C705   O743    1.295   .     A
C705   C726    1.401   .     S
C706   C708    1.448   .     S
C706   O748    1.303   .     A
C706   O646    1.295   1_655 S
C707   C711    1.400   .     A
C707   C713    1.391   .     A
C707   C728    1.448   .     S
C708   C712    1.400   .     A
C708   C714    1.391   .     A
C709   C711    1.392   .     A
C709   C718    1.402   .     A
C710   C719    1.402   .     A
C710   C712    1.392   .     A
C710   H636    1.084   1_655 S
C712   H633    1.083   1_655 S
C713   C715    1.403   .     A
C714   C717    1.403   .     A
C715   C718    1.419   .     A
C715   C720    1.416   .     A
C716   O744    1.295   .     A
C716   C727    1.401   .     S
C716   O642    1.280   1_655 S
C717   C719    1.419   .     A
C717   C721    1.416   .     A
C718   C274    1.391   1_556 S
C720   C723    1.413   .     A
C720   C271    1.416   1_556 S
C721   C722    1.413   .     A
C722   C724    1.387   .     A
C722   H737    1.078   .     S
C723   H738    1.078   .     S
C723   C725    1.387   .     A
C724   H731    1.084   .     S
C725   H732    1.084   .     S
C725   C269    1.391   1_556 S
C726   C827    1.349   .     S
C726   F879    1.365   .     S
C727   C476    1.349   1_655 S
C728   O747    1.303   .     A
F730   C877    1.365   .     S
H734   C611    1.083   1_655 S
H735   C609    1.084   1_655 S
N739   Zn750   2.032   .     S
N739   N740    1.291   .     D
N740   Zn749   2.032   .     S
O741   Zn749   1.966   .     S
O741   C605    1.280   1_655 S
O742   Zn750   1.966   .     S
O743   Zn750   1.986   .     S
O744   Zn749   1.986   .     S
O745   Zn749   1.944   .     S
O745   C628    1.295   1_655 S
O746   Zn750   1.944   .     S
O747   Zn750   1.888   .     S
O748   Zn749   1.888   .     S
Br751  C764    1.941   .     S
Br752  C763    1.941   .     S
Br753  N789    1.878   .     S
Br754  N790    1.878   .     S
C755   O793    1.295   .     A
C755   C776    1.401   .     S
C755   O891    1.280   1_455 S
C756   C758    1.448   .     S
C756   O798    1.303   .     A
C756   O846    1.295   .     S
C757   C761    1.400   .     A
C757   C763    1.391   .     A
C757   C778    1.448   .     S
C758   C762    1.400   .     A
C758   C764    1.391   .     A
C759   C761    1.392   .     A
C759   C768    1.402   .     A
C759   H885    1.084   1_455 S
C760   C769    1.402   .     A
C760   C762    1.392   .     A
C760   H836    1.084   .     S
C761   H884    1.083   1_455 S
C762   H833    1.083   .     S
C763   C765    1.403   .     A
C764   C767    1.403   .     A
C765   C768    1.419   .     A
C765   C770    1.416   .     A
C766   O794    1.295   .     A
C766   C777    1.401   .     S
C766   O842    1.280   .     S
C767   C769    1.419   .     A
C767   C771    1.416   .     A
C768   C324    1.391   1_556 S
C770   C773    1.413   .     A
C770   C321    1.416   1_556 S
C771   C772    1.413   .     A
C772   C774    1.387   .     A
C772   H787    1.078   .     S
C773   H788    1.078   .     S
C773   C775    1.387   .     A
C774   H781    1.084   .     S
C775   H782    1.084   .     S
C775   C319    1.391   1_556 S
C776   C577    1.349   1_465 S
C776   F479    1.365   1_565 S
C778   O797    1.303   .     A
C778   O895    1.295   1_455 S
F780   C477    1.365   1_565 S
H783   C862    1.083   1_455 S
H784   C811    1.083   .     S
H785   C809    1.084   .     S
H786   C860    1.084   1_455 S
N789   Zn800   2.032   .     S
N789   N790    1.291   .     D
N790   Zn799   2.032   .     S
O791   Zn799   1.966   .     S
O791   C805    1.280   .     S
O792   Zn800   1.966   .     S
O792   C866    1.280   1_455 S
O793   Zn800   1.986   .     S
O794   Zn799   1.986   .     S
O795   Zn799   1.944   .     S
O795   C828    1.295   .     S
O796   Zn800   1.944   .     S
O796   C856    1.295   1_455 S
O797   Zn800   1.888   .     S
O798   Zn799   1.888   .     S
Br801  C814    1.941   .     S
Br802  C813    1.941   .     S
Br803  N839    1.878   .     S
Br804  N840    1.878   .     S
C805   O843    1.295   .     A
C805   C826    1.401   .     S
C806   C808    1.448   .     S
C806   O848    1.303   .     A
C806   O896    1.295   .     S
C807   C811    1.400   .     A
C807   C813    1.391   .     A
C807   C828    1.448   .     S
C808   C812    1.400   .     A
C808   C814    1.391   .     A
C809   C811    1.392   .     A
C809   C818    1.402   .     A
C810   C819    1.402   .     A
C810   C812    1.392   .     A
C810   H886    1.084   .     S
C812   H883    1.083   .     S
C813   C815    1.403   .     A
C814   C817    1.403   .     A
C815   C818    1.419   .     A
C815   C820    1.416   .     A
C816   O844    1.295   .     A
C816   C827    1.401   .     S
C816   O892    1.280   .     S
C817   C819    1.419   .     A
C817   C821    1.416   .     A
C818   C374    1.391   1_556 S
C820   C823    1.413   .     A
C820   C371    1.416   1_556 S
C821   C822    1.413   .     A
C822   C824    1.387   .     A
C822   H837    1.078   .     S
C823   H838    1.078   .     S
C823   C825    1.387   .     A
C824   H831    1.084   .     S
C825   H832    1.084   .     S
C825   C369    1.391   1_556 S
C826   C477    1.349   1_565 S
C826   F529    1.365   1_565 S
C828   O847    1.303   .     A
F830   C527    1.365   1_565 S
H834   C861    1.083   .     S
H835   C859    1.084   .     S
N839   Zn850   2.032   .     S
N839   N840    1.291   .     D
N840   Zn849   2.032   .     S
O841   Zn849   1.966   .     S
O841   C855    1.280   .     S
O842   Zn850   1.966   .     S
O843   Zn850   1.986   .     S
O844   Zn849   1.986   .     S
O845   Zn849   1.944   .     S
O845   C878    1.295   .     S
O846   Zn850   1.944   .     S
O847   Zn850   1.888   .     S
O848   Zn849   1.888   .     S
Br851  C864    1.941   .     S
Br852  C863    1.941   .     S
Br853  N889    1.878   .     S
Br854  N890    1.878   .     S
C855   O893    1.295   .     A
C855   C876    1.401   .     S
C856   C858    1.448   .     S
C856   O898    1.303   .     A
C856   O796    1.295   1_655 S
C857   C861    1.400   .     A
C857   C863    1.391   .     A
C857   C878    1.448   .     S
C858   C862    1.400   .     A
C858   C864    1.391   .     A
C859   C861    1.392   .     A
C859   C868    1.402   .     A
C860   C869    1.402   .     A
C860   C862    1.392   .     A
C860   H786    1.084   1_655 S
C862   H783    1.083   1_655 S
C863   C865    1.403   .     A
C864   C867    1.403   .     A
C865   C868    1.419   .     A
C865   C870    1.416   .     A
C866   O894    1.295   .     A
C866   C877    1.401   .     S
C866   O792    1.280   1_655 S
C867   C869    1.419   .     A
C867   C871    1.416   .     A
C868   C424    1.391   1_556 S
C870   C873    1.413   .     A
C870   C421    1.416   1_556 S
C871   C872    1.413   .     A
C872   C874    1.387   .     A
C872   H887    1.078   .     S
C873   H888    1.078   .     S
C873   C875    1.387   .     A
C874   H881    1.084   .     S
C875   H882    1.084   .     S
C875   C419    1.391   1_556 S
C876   C527    1.349   1_565 S
C876   F579    1.365   1_565 S
C877   C626    1.349   1_655 S
C878   O897    1.303   .     A
F880   C577    1.365   1_565 S
H884   C761    1.083   1_655 S
H885   C759    1.084   1_655 S
N889   Zn900   2.032   .     S
N889   N890    1.291   .     D
N890   Zn899   2.032   .     S
O891   Zn899   1.966   .     S
O891   C755    1.280   1_655 S
O892   Zn900   1.966   .     S
O893   Zn900   1.986   .     S
O894   Zn899   1.986   .     S
O895   Zn899   1.944   .     S
O895   C778    1.295   1_655 S
O896   Zn900   1.944   .     S
O897   Zn900   1.888   .     S
O898   Zn899   1.888   .     S
