data_str_m2_o10_o16_pcu_sym.76
_audit_creation_date              2020-01-03
_audit_creation_method            'Materials Studio'
_symmetry_space_group_name_H-M    'P1'
_symmetry_Int_Tables_number       1
_symmetry_cell_setting            triclinic
loop_
_symmetry_equiv_pos_as_xyz
  x,y,z
_cell_length_a                    22.3786
_cell_length_b                    25.9757
_cell_length_c                    26.8958
_cell_angle_alpha                 93.4100
_cell_angle_beta                  78.3811
_cell_angle_gamma                 102.9592
loop_
_atom_site_label
_atom_site_type_symbol
_atom_site_fract_x
_atom_site_fract_y
_atom_site_fract_z
_atom_site_U_iso_or_equiv
_atom_site_adp_type
_atom_site_occupancy
C1     C     0.18217   0.26666   0.25013   0.00000  Uiso   1.00
C2     C     0.11482   0.14367   0.40084   0.00000  Uiso   1.00
C3     C     0.19139   0.32258   0.24810   0.00000  Uiso   1.00
C4     C     0.13333   0.15808   0.34644   0.00000  Uiso   1.00
C5     C     0.14296   0.01066   0.24803   0.00000  Uiso   1.00
C6     C     0.15167   0.06665   0.24832   0.00000  Uiso   1.00
C7     C     0.19997   0.17128   0.15332   0.00000  Uiso   1.00
C8     C     0.29347   0.20848   0.02297   0.00000  Uiso   1.00
C9     C     0.21823   0.17752   0.09844   0.00000  Uiso   1.00
C10    C     0.05217   0.12350   0.42142   0.00000  Uiso   1.00
C11    C     0.03198   0.11333   0.47311   0.00000  Uiso   1.00
C12    C     0.13922   0.14971   0.48606   0.00000  Uiso   1.00
C13    C     0.07474   0.13114   0.00584   0.00000  Uiso   1.00
C14    C     0.29009   0.06101   0.03390   0.00000  Uiso   1.00
C15    C     0.22578   0.02391   0.03831   0.00000  Uiso   1.00
C16    C     0.20744   0.32687   0.08793   0.00000  Uiso   1.00
C17    C     0.21468   0.06673   0.38609   0.00000  Uiso   1.00
C18    C     0.25676   0.02884   0.36345   0.00000  Uiso   1.00
C19    C     0.22234   0.30465   0.37233   0.00000  Uiso   1.00
C20    C     0.15939   0.14969   0.43286   0.00000  Uiso   1.00
C21    C     0.18528   0.16685   0.01675   0.00000  Uiso   1.00
C22    C     0.24805   0.18874   0.49342   0.00000  Uiso   1.00
C23    C     0.26652   0.18326   0.44118   0.00000  Uiso   1.00
C24    C     0.22413   0.15352   0.41384   0.00000  Uiso   1.00
C25    C     0.17191   0.16086   0.06929   0.00000  Uiso   1.00
C26    C     0.27875   0.20237   0.07538   0.00000  Uiso   1.00
Cu27   Cu    0.10710   0.16105   0.24435   0.00000  Uiso   1.00
Cu28   Cu    0.22623   0.17228   0.25564   0.00000  Uiso   1.00
H29    H     0.31456   0.21652   0.09770   0.00000  Uiso   1.00
H30    H     0.23832   0.01291   0.24677   0.00000  Uiso   1.00
H31    H     0.28941   0.08766   0.06784   0.00000  Uiso   1.00
H32    H     0.32551   0.03656   0.03259   0.00000  Uiso   1.00
H33    H     0.19015   0.04719   0.03673   0.00000  Uiso   1.00
H34    H     0.22647   0.32868   0.00584   0.00000  Uiso   1.00
H35    H     0.24300   0.30408   0.09088   0.00000  Uiso   1.00
H36    H     0.16172   0.29887   0.08910   0.00000  Uiso   1.00
H37    H     0.20319   0.02128   0.12088   0.00000  Uiso   1.00
H38    H     0.17228   0.05773   0.36878   0.00000  Uiso   1.00
H39    H     0.20034   0.05880   0.42768   0.00000  Uiso   1.00
H40    H     0.09613   0.32031   0.24848   0.00000  Uiso   1.00
H41    H     0.27329   0.03587   0.32221   0.00000  Uiso   1.00
H42    H     0.29817   0.03569   0.38159   0.00000  Uiso   1.00
H43    H     0.20930   0.29644   0.41363   0.00000  Uiso   1.00
H44    H     0.25323   0.27807   0.35407   0.00000  Uiso   1.00
H45    H     0.17928   0.29597   0.35604   0.00000  Uiso   1.00
H46    H     0.00381   0.20591   0.28950   0.00000  Uiso   1.00
H47    H     0.32945   0.12732   0.21061   0.00000  Uiso   1.00
H48    H     0.31541   0.19405   0.42357   0.00000  Uiso   1.00
H49    H     0.00790   0.22568   0.00526   0.00000  Uiso   1.00
H50    H     0.12618   0.14100   0.08824   0.00000  Uiso   1.00
H51    H     0.01857   0.11559   0.39687   0.00000  Uiso   1.00
H52    H     0.05665   0.13077   0.04599   0.00000  Uiso   1.00
N53    N     0.31574   0.18074   0.26416   0.00000  Uiso   1.00
N54    N     0.01759   0.15259   0.23584   0.00000  Uiso   1.00
O55    O     0.12797   0.23807   0.24633   0.00000  Uiso   1.00
O56    O     0.24655   0.12001   0.37572   0.00000  Uiso   1.00
O57    O     0.22858   0.24755   0.25586   0.00000  Uiso   1.00
O58    O     0.09181   0.15960   0.31840   0.00000  Uiso   1.00
O59    O     0.19242   0.16908   0.32793   0.00000  Uiso   1.00
O60    O     0.10476   0.08578   0.24414   0.00000  Uiso   1.00
O61    O     0.20536   0.09526   0.25367   0.00000  Uiso   1.00
O62    O     0.14092   0.16425   0.17207   0.00000  Uiso   1.00
O63    O     0.24152   0.17373   0.18160   0.00000  Uiso   1.00
O64    O     0.30208   0.09127   0.48961   0.00000  Uiso   1.00
C65    C     0.51550   0.26666   0.25013   0.00000  Uiso   1.00
C66    C     0.44815   0.14367   0.40084   0.00000  Uiso   1.00
C67    C     0.52473   0.32258   0.24810   0.00000  Uiso   1.00
C68    C     0.46666   0.15808   0.34644   0.00000  Uiso   1.00
C69    C     0.47630   0.01066   0.24803   0.00000  Uiso   1.00
C70    C     0.48501   0.06665   0.24832   0.00000  Uiso   1.00
C71    C     0.53330   0.17128   0.15332   0.00000  Uiso   1.00
C72    C     0.62680   0.20848   0.02297   0.00000  Uiso   1.00
C73    C     0.55156   0.17752   0.09844   0.00000  Uiso   1.00
C74    C     0.38550   0.12350   0.42142   0.00000  Uiso   1.00
C75    C     0.36532   0.11333   0.47311   0.00000  Uiso   1.00
C76    C     0.47256   0.14971   0.48606   0.00000  Uiso   1.00
C77    C     0.40807   0.13114   0.00584   0.00000  Uiso   1.00
C78    C     0.62342   0.06101   0.03390   0.00000  Uiso   1.00
C79    C     0.55912   0.02391   0.03831   0.00000  Uiso   1.00
C80    C     0.54078   0.32687   0.08793   0.00000  Uiso   1.00
C81    C     0.54801   0.06673   0.38609   0.00000  Uiso   1.00
C82    C     0.59009   0.02884   0.36345   0.00000  Uiso   1.00
C83    C     0.55567   0.30465   0.37233   0.00000  Uiso   1.00
C84    C     0.49272   0.14969   0.43286   0.00000  Uiso   1.00
C85    C     0.51861   0.16685   0.01675   0.00000  Uiso   1.00
C86    C     0.58139   0.18874   0.49342   0.00000  Uiso   1.00
C87    C     0.59985   0.18326   0.44118   0.00000  Uiso   1.00
C88    C     0.55746   0.15352   0.41384   0.00000  Uiso   1.00
C89    C     0.50525   0.16086   0.06929   0.00000  Uiso   1.00
C90    C     0.61208   0.20237   0.07538   0.00000  Uiso   1.00
Cu91   Cu    0.44043   0.16105   0.24435   0.00000  Uiso   1.00
Cu92   Cu    0.55957   0.17228   0.25564   0.00000  Uiso   1.00
H93    H     0.64789   0.21652   0.09770   0.00000  Uiso   1.00
H94    H     0.57165   0.01291   0.24677   0.00000  Uiso   1.00
H95    H     0.62275   0.08766   0.06784   0.00000  Uiso   1.00
H96    H     0.65884   0.03656   0.03259   0.00000  Uiso   1.00
H97    H     0.52348   0.04719   0.03673   0.00000  Uiso   1.00
H98    H     0.55981   0.32868   0.00584   0.00000  Uiso   1.00
H99    H     0.57633   0.30408   0.09088   0.00000  Uiso   1.00
H100   H     0.49505   0.29887   0.08910   0.00000  Uiso   1.00
H101   H     0.53653   0.02128   0.12088   0.00000  Uiso   1.00
H102   H     0.50562   0.05773   0.36878   0.00000  Uiso   1.00
H103   H     0.53368   0.05880   0.42768   0.00000  Uiso   1.00
H104   H     0.42947   0.32031   0.24848   0.00000  Uiso   1.00
H105   H     0.60663   0.03587   0.32221   0.00000  Uiso   1.00
H106   H     0.63150   0.03569   0.38159   0.00000  Uiso   1.00
H107   H     0.54263   0.29644   0.41363   0.00000  Uiso   1.00
H108   H     0.58656   0.27807   0.35407   0.00000  Uiso   1.00
H109   H     0.51261   0.29597   0.35604   0.00000  Uiso   1.00
H110   H     0.33714   0.20591   0.28950   0.00000  Uiso   1.00
H111   H     0.66278   0.12732   0.21061   0.00000  Uiso   1.00
H112   H     0.64874   0.19405   0.42357   0.00000  Uiso   1.00
H113   H     0.34123   0.22568   0.00526   0.00000  Uiso   1.00
H114   H     0.45951   0.14100   0.08824   0.00000  Uiso   1.00
H115   H     0.35190   0.11559   0.39687   0.00000  Uiso   1.00
H116   H     0.38998   0.13077   0.04599   0.00000  Uiso   1.00
N117   N     0.64908   0.18074   0.26416   0.00000  Uiso   1.00
N118   N     0.35092   0.15259   0.23584   0.00000  Uiso   1.00
O119   O     0.46131   0.23807   0.24633   0.00000  Uiso   1.00
O120   O     0.57989   0.12001   0.37572   0.00000  Uiso   1.00
O121   O     0.56191   0.24755   0.25586   0.00000  Uiso   1.00
O122   O     0.42515   0.15960   0.31840   0.00000  Uiso   1.00
O123   O     0.52575   0.16908   0.32793   0.00000  Uiso   1.00
O124   O     0.43809   0.08578   0.24414   0.00000  Uiso   1.00
O125   O     0.53869   0.09526   0.25367   0.00000  Uiso   1.00
O126   O     0.47425   0.16425   0.17207   0.00000  Uiso   1.00
O127   O     0.57485   0.17373   0.18160   0.00000  Uiso   1.00
O128   O     0.63542   0.09127   0.48961   0.00000  Uiso   1.00
C129   C     0.84884   0.26666   0.25013   0.00000  Uiso   1.00
C130   C     0.78148   0.14367   0.40084   0.00000  Uiso   1.00
C131   C     0.85806   0.32258   0.24810   0.00000  Uiso   1.00
C132   C     0.80000   0.15808   0.34644   0.00000  Uiso   1.00
C133   C     0.80963   0.01066   0.24803   0.00000  Uiso   1.00
C134   C     0.81834   0.06665   0.24832   0.00000  Uiso   1.00
C135   C     0.86663   0.17128   0.15332   0.00000  Uiso   1.00
C136   C     0.96014   0.20848   0.02297   0.00000  Uiso   1.00
C137   C     0.88489   0.17752   0.09844   0.00000  Uiso   1.00
C138   C     0.71883   0.12350   0.42142   0.00000  Uiso   1.00
C139   C     0.69865   0.11333   0.47311   0.00000  Uiso   1.00
C140   C     0.80589   0.14971   0.48606   0.00000  Uiso   1.00
C141   C     0.74141   0.13114   0.00584   0.00000  Uiso   1.00
C142   C     0.95675   0.06101   0.03390   0.00000  Uiso   1.00
C143   C     0.89245   0.02391   0.03831   0.00000  Uiso   1.00
C144   C     0.87411   0.32687   0.08793   0.00000  Uiso   1.00
C145   C     0.88134   0.06673   0.38609   0.00000  Uiso   1.00
C146   C     0.92343   0.02884   0.36345   0.00000  Uiso   1.00
C147   C     0.88900   0.30465   0.37233   0.00000  Uiso   1.00
C148   C     0.82605   0.14969   0.43286   0.00000  Uiso   1.00
C149   C     0.85194   0.16685   0.01675   0.00000  Uiso   1.00
C150   C     0.91472   0.18874   0.49342   0.00000  Uiso   1.00
C151   C     0.93319   0.18326   0.44118   0.00000  Uiso   1.00
C152   C     0.89080   0.15352   0.41384   0.00000  Uiso   1.00
C153   C     0.83858   0.16086   0.06929   0.00000  Uiso   1.00
C154   C     0.94542   0.20237   0.07538   0.00000  Uiso   1.00
Cu155  Cu    0.77377   0.16105   0.24435   0.00000  Uiso   1.00
Cu156  Cu    0.89290   0.17228   0.25564   0.00000  Uiso   1.00
H157   H     0.98123   0.21652   0.09770   0.00000  Uiso   1.00
H158   H     0.90498   0.01291   0.24677   0.00000  Uiso   1.00
H159   H     0.95608   0.08766   0.06784   0.00000  Uiso   1.00
H160   H     0.99217   0.03656   0.03259   0.00000  Uiso   1.00
H161   H     0.85682   0.04719   0.03673   0.00000  Uiso   1.00
H162   H     0.89314   0.32868   0.00584   0.00000  Uiso   1.00
H163   H     0.90966   0.30408   0.09088   0.00000  Uiso   1.00
H164   H     0.82838   0.29887   0.08910   0.00000  Uiso   1.00
H165   H     0.86986   0.02128   0.12088   0.00000  Uiso   1.00
H166   H     0.83895   0.05773   0.36878   0.00000  Uiso   1.00
H167   H     0.86701   0.05880   0.42768   0.00000  Uiso   1.00
H168   H     0.76280   0.32031   0.24848   0.00000  Uiso   1.00
H169   H     0.93996   0.03587   0.32221   0.00000  Uiso   1.00
H170   H     0.96484   0.03569   0.38159   0.00000  Uiso   1.00
H171   H     0.87597   0.29644   0.41363   0.00000  Uiso   1.00
H172   H     0.91990   0.27807   0.35407   0.00000  Uiso   1.00
H173   H     0.84595   0.29597   0.35604   0.00000  Uiso   1.00
H174   H     0.67048   0.20591   0.28950   0.00000  Uiso   1.00
H175   H     0.99612   0.12732   0.21061   0.00000  Uiso   1.00
H176   H     0.98208   0.19405   0.42357   0.00000  Uiso   1.00
H177   H     0.67456   0.22568   0.00526   0.00000  Uiso   1.00
H178   H     0.79285   0.14100   0.08824   0.00000  Uiso   1.00
H179   H     0.68524   0.11559   0.39687   0.00000  Uiso   1.00
H180   H     0.72331   0.13077   0.04599   0.00000  Uiso   1.00
N181   N     0.98241   0.18074   0.26416   0.00000  Uiso   1.00
N182   N     0.68426   0.15259   0.23584   0.00000  Uiso   1.00
O183   O     0.79464   0.23807   0.24633   0.00000  Uiso   1.00
O184   O     0.91322   0.12001   0.37572   0.00000  Uiso   1.00
O185   O     0.89524   0.24755   0.25586   0.00000  Uiso   1.00
O186   O     0.75848   0.15960   0.31840   0.00000  Uiso   1.00
O187   O     0.85908   0.16908   0.32793   0.00000  Uiso   1.00
O188   O     0.77142   0.08578   0.24414   0.00000  Uiso   1.00
O189   O     0.87203   0.09526   0.25367   0.00000  Uiso   1.00
O190   O     0.80758   0.16425   0.17207   0.00000  Uiso   1.00
O191   O     0.90819   0.17373   0.18160   0.00000  Uiso   1.00
O192   O     0.96875   0.09127   0.48961   0.00000  Uiso   1.00
C193   C     0.18217   0.59999   0.25013   0.00000  Uiso   1.00
C194   C     0.11482   0.47701   0.40084   0.00000  Uiso   1.00
C195   C     0.19139   0.65591   0.24810   0.00000  Uiso   1.00
C196   C     0.13333   0.49141   0.34644   0.00000  Uiso   1.00
C197   C     0.14296   0.34399   0.24803   0.00000  Uiso   1.00
C198   C     0.15167   0.39998   0.24832   0.00000  Uiso   1.00
C199   C     0.19997   0.50461   0.15332   0.00000  Uiso   1.00
C200   C     0.29347   0.54181   0.02297   0.00000  Uiso   1.00
C201   C     0.21823   0.51085   0.09844   0.00000  Uiso   1.00
C202   C     0.05217   0.45684   0.42142   0.00000  Uiso   1.00
C203   C     0.03198   0.44667   0.47311   0.00000  Uiso   1.00
C204   C     0.13922   0.48304   0.48606   0.00000  Uiso   1.00
C205   C     0.07474   0.46447   0.00584   0.00000  Uiso   1.00
C206   C     0.29009   0.39435   0.03390   0.00000  Uiso   1.00
C207   C     0.22578   0.35724   0.03831   0.00000  Uiso   1.00
C208   C     0.20744   0.66020   0.08793   0.00000  Uiso   1.00
C209   C     0.21468   0.40006   0.38609   0.00000  Uiso   1.00
C210   C     0.25676   0.36217   0.36345   0.00000  Uiso   1.00
C211   C     0.22234   0.63798   0.37233   0.00000  Uiso   1.00
C212   C     0.15939   0.48302   0.43286   0.00000  Uiso   1.00
C213   C     0.18528   0.50018   0.01675   0.00000  Uiso   1.00
C214   C     0.24805   0.52207   0.49342   0.00000  Uiso   1.00
C215   C     0.26652   0.51659   0.44118   0.00000  Uiso   1.00
C216   C     0.22413   0.48685   0.41384   0.00000  Uiso   1.00
C217   C     0.17191   0.49420   0.06929   0.00000  Uiso   1.00
C218   C     0.27875   0.53571   0.07538   0.00000  Uiso   1.00
Cu219  Cu    0.10710   0.49439   0.24435   0.00000  Uiso   1.00
Cu220  Cu    0.22623   0.50561   0.25564   0.00000  Uiso   1.00
H221   H     0.31456   0.54985   0.09770   0.00000  Uiso   1.00
H222   H     0.23832   0.34625   0.24677   0.00000  Uiso   1.00
H223   H     0.28941   0.42099   0.06784   0.00000  Uiso   1.00
H224   H     0.32551   0.36989   0.03259   0.00000  Uiso   1.00
H225   H     0.19015   0.38052   0.03673   0.00000  Uiso   1.00
H226   H     0.22647   0.66202   0.00584   0.00000  Uiso   1.00
H227   H     0.24300   0.63741   0.09088   0.00000  Uiso   1.00
H228   H     0.16172   0.63220   0.08910   0.00000  Uiso   1.00
H229   H     0.20319   0.35462   0.12088   0.00000  Uiso   1.00
H230   H     0.17228   0.39106   0.36878   0.00000  Uiso   1.00
H231   H     0.20034   0.39213   0.42768   0.00000  Uiso   1.00
H232   H     0.09613   0.65365   0.24848   0.00000  Uiso   1.00
H233   H     0.27329   0.36921   0.32221   0.00000  Uiso   1.00
H234   H     0.29817   0.36902   0.38159   0.00000  Uiso   1.00
H235   H     0.20930   0.62977   0.41363   0.00000  Uiso   1.00
H236   H     0.25323   0.61141   0.35407   0.00000  Uiso   1.00
H237   H     0.17928   0.62931   0.35604   0.00000  Uiso   1.00
H238   H     0.00381   0.53925   0.28950   0.00000  Uiso   1.00
H239   H     0.32945   0.46066   0.21061   0.00000  Uiso   1.00
H240   H     0.31541   0.52738   0.42357   0.00000  Uiso   1.00
H241   H     0.00790   0.55901   0.00526   0.00000  Uiso   1.00
H242   H     0.12618   0.47434   0.08824   0.00000  Uiso   1.00
H243   H     0.01857   0.44892   0.39687   0.00000  Uiso   1.00
H244   H     0.05665   0.46411   0.04599   0.00000  Uiso   1.00
N245   N     0.31574   0.51407   0.26416   0.00000  Uiso   1.00
N246   N     0.01759   0.48593   0.23584   0.00000  Uiso   1.00
O247   O     0.12797   0.57141   0.24633   0.00000  Uiso   1.00
O248   O     0.24655   0.45334   0.37572   0.00000  Uiso   1.00
O249   O     0.22858   0.58089   0.25586   0.00000  Uiso   1.00
O250   O     0.09181   0.49293   0.31840   0.00000  Uiso   1.00
O251   O     0.19242   0.50241   0.32793   0.00000  Uiso   1.00
O252   O     0.10476   0.41911   0.24414   0.00000  Uiso   1.00
O253   O     0.20536   0.42859   0.25367   0.00000  Uiso   1.00
O254   O     0.14092   0.49759   0.17207   0.00000  Uiso   1.00
O255   O     0.24152   0.50707   0.18160   0.00000  Uiso   1.00
O256   O     0.30208   0.42461   0.48961   0.00000  Uiso   1.00
C257   C     0.51550   0.59999   0.25013   0.00000  Uiso   1.00
C258   C     0.44815   0.47701   0.40084   0.00000  Uiso   1.00
C259   C     0.52473   0.65591   0.24810   0.00000  Uiso   1.00
C260   C     0.46666   0.49141   0.34644   0.00000  Uiso   1.00
C261   C     0.47630   0.34399   0.24803   0.00000  Uiso   1.00
C262   C     0.48501   0.39998   0.24832   0.00000  Uiso   1.00
C263   C     0.53330   0.50461   0.15332   0.00000  Uiso   1.00
C264   C     0.62680   0.54181   0.02297   0.00000  Uiso   1.00
C265   C     0.55156   0.51085   0.09844   0.00000  Uiso   1.00
C266   C     0.38550   0.45684   0.42142   0.00000  Uiso   1.00
C267   C     0.36532   0.44667   0.47311   0.00000  Uiso   1.00
C268   C     0.47256   0.48304   0.48606   0.00000  Uiso   1.00
C269   C     0.40807   0.46447   0.00584   0.00000  Uiso   1.00
C270   C     0.62342   0.39435   0.03390   0.00000  Uiso   1.00
C271   C     0.55912   0.35724   0.03831   0.00000  Uiso   1.00
C272   C     0.54078   0.66020   0.08793   0.00000  Uiso   1.00
C273   C     0.54801   0.40006   0.38609   0.00000  Uiso   1.00
C274   C     0.59009   0.36217   0.36345   0.00000  Uiso   1.00
C275   C     0.55567   0.63798   0.37233   0.00000  Uiso   1.00
C276   C     0.49272   0.48302   0.43286   0.00000  Uiso   1.00
C277   C     0.51861   0.50018   0.01675   0.00000  Uiso   1.00
C278   C     0.58139   0.52207   0.49342   0.00000  Uiso   1.00
C279   C     0.59985   0.51659   0.44118   0.00000  Uiso   1.00
C280   C     0.55746   0.48685   0.41384   0.00000  Uiso   1.00
C281   C     0.50525   0.49420   0.06929   0.00000  Uiso   1.00
C282   C     0.61208   0.53571   0.07538   0.00000  Uiso   1.00
Cu283  Cu    0.44043   0.49439   0.24435   0.00000  Uiso   1.00
Cu284  Cu    0.55957   0.50561   0.25564   0.00000  Uiso   1.00
H285   H     0.64789   0.54985   0.09770   0.00000  Uiso   1.00
H286   H     0.57165   0.34625   0.24677   0.00000  Uiso   1.00
H287   H     0.62275   0.42099   0.06784   0.00000  Uiso   1.00
H288   H     0.65884   0.36989   0.03259   0.00000  Uiso   1.00
H289   H     0.52348   0.38052   0.03673   0.00000  Uiso   1.00
H290   H     0.55981   0.66202   0.00584   0.00000  Uiso   1.00
H291   H     0.57633   0.63741   0.09088   0.00000  Uiso   1.00
H292   H     0.49505   0.63220   0.08910   0.00000  Uiso   1.00
H293   H     0.53653   0.35462   0.12088   0.00000  Uiso   1.00
H294   H     0.50562   0.39106   0.36878   0.00000  Uiso   1.00
H295   H     0.53368   0.39213   0.42768   0.00000  Uiso   1.00
H296   H     0.42947   0.65365   0.24848   0.00000  Uiso   1.00
H297   H     0.60663   0.36921   0.32221   0.00000  Uiso   1.00
H298   H     0.63150   0.36902   0.38159   0.00000  Uiso   1.00
H299   H     0.54263   0.62977   0.41363   0.00000  Uiso   1.00
H300   H     0.58656   0.61141   0.35407   0.00000  Uiso   1.00
H301   H     0.51261   0.62931   0.35604   0.00000  Uiso   1.00
H302   H     0.33714   0.53925   0.28950   0.00000  Uiso   1.00
H303   H     0.66278   0.46066   0.21061   0.00000  Uiso   1.00
H304   H     0.64874   0.52738   0.42357   0.00000  Uiso   1.00
H305   H     0.34123   0.55901   0.00526   0.00000  Uiso   1.00
H306   H     0.45951   0.47434   0.08824   0.00000  Uiso   1.00
H307   H     0.35190   0.44892   0.39687   0.00000  Uiso   1.00
H308   H     0.38998   0.46411   0.04599   0.00000  Uiso   1.00
N309   N     0.64908   0.51407   0.26416   0.00000  Uiso   1.00
N310   N     0.35092   0.48593   0.23584   0.00000  Uiso   1.00
O311   O     0.46131   0.57141   0.24633   0.00000  Uiso   1.00
O312   O     0.57989   0.45334   0.37572   0.00000  Uiso   1.00
O313   O     0.56191   0.58089   0.25586   0.00000  Uiso   1.00
O314   O     0.42515   0.49293   0.31840   0.00000  Uiso   1.00
O315   O     0.52575   0.50241   0.32793   0.00000  Uiso   1.00
O316   O     0.43809   0.41911   0.24414   0.00000  Uiso   1.00
O317   O     0.53869   0.42859   0.25367   0.00000  Uiso   1.00
O318   O     0.47425   0.49759   0.17207   0.00000  Uiso   1.00
O319   O     0.57485   0.50707   0.18160   0.00000  Uiso   1.00
O320   O     0.63542   0.42461   0.48961   0.00000  Uiso   1.00
C321   C     0.84884   0.59999   0.25013   0.00000  Uiso   1.00
C322   C     0.78148   0.47701   0.40084   0.00000  Uiso   1.00
C323   C     0.85806   0.65591   0.24810   0.00000  Uiso   1.00
C324   C     0.80000   0.49141   0.34644   0.00000  Uiso   1.00
C325   C     0.80963   0.34399   0.24803   0.00000  Uiso   1.00
C326   C     0.81834   0.39998   0.24832   0.00000  Uiso   1.00
C327   C     0.86663   0.50461   0.15332   0.00000  Uiso   1.00
C328   C     0.96014   0.54181   0.02297   0.00000  Uiso   1.00
C329   C     0.88489   0.51085   0.09844   0.00000  Uiso   1.00
C330   C     0.71883   0.45684   0.42142   0.00000  Uiso   1.00
C331   C     0.69865   0.44667   0.47311   0.00000  Uiso   1.00
C332   C     0.80589   0.48304   0.48606   0.00000  Uiso   1.00
C333   C     0.74141   0.46447   0.00584   0.00000  Uiso   1.00
C334   C     0.95675   0.39435   0.03390   0.00000  Uiso   1.00
C335   C     0.89245   0.35724   0.03831   0.00000  Uiso   1.00
C336   C     0.87411   0.66020   0.08793   0.00000  Uiso   1.00
C337   C     0.88134   0.40006   0.38609   0.00000  Uiso   1.00
C338   C     0.92343   0.36217   0.36345   0.00000  Uiso   1.00
C339   C     0.88900   0.63798   0.37233   0.00000  Uiso   1.00
C340   C     0.82605   0.48302   0.43286   0.00000  Uiso   1.00
C341   C     0.85194   0.50018   0.01675   0.00000  Uiso   1.00
C342   C     0.91472   0.52207   0.49342   0.00000  Uiso   1.00
C343   C     0.93319   0.51659   0.44118   0.00000  Uiso   1.00
C344   C     0.89080   0.48685   0.41384   0.00000  Uiso   1.00
C345   C     0.83858   0.49420   0.06929   0.00000  Uiso   1.00
C346   C     0.94542   0.53571   0.07538   0.00000  Uiso   1.00
Cu347  Cu    0.77377   0.49439   0.24435   0.00000  Uiso   1.00
Cu348  Cu    0.89290   0.50561   0.25564   0.00000  Uiso   1.00
H349   H     0.98123   0.54985   0.09770   0.00000  Uiso   1.00
H350   H     0.90498   0.34625   0.24677   0.00000  Uiso   1.00
H351   H     0.95608   0.42099   0.06784   0.00000  Uiso   1.00
H352   H     0.99217   0.36989   0.03259   0.00000  Uiso   1.00
H353   H     0.85682   0.38052   0.03673   0.00000  Uiso   1.00
H354   H     0.89314   0.66202   0.00584   0.00000  Uiso   1.00
H355   H     0.90966   0.63741   0.09088   0.00000  Uiso   1.00
H356   H     0.82838   0.63220   0.08910   0.00000  Uiso   1.00
H357   H     0.86986   0.35462   0.12088   0.00000  Uiso   1.00
H358   H     0.83895   0.39106   0.36878   0.00000  Uiso   1.00
H359   H     0.86701   0.39213   0.42768   0.00000  Uiso   1.00
H360   H     0.76280   0.65365   0.24848   0.00000  Uiso   1.00
H361   H     0.93996   0.36921   0.32221   0.00000  Uiso   1.00
H362   H     0.96484   0.36902   0.38159   0.00000  Uiso   1.00
H363   H     0.87597   0.62977   0.41363   0.00000  Uiso   1.00
H364   H     0.91990   0.61141   0.35407   0.00000  Uiso   1.00
H365   H     0.84595   0.62931   0.35604   0.00000  Uiso   1.00
H366   H     0.67048   0.53925   0.28950   0.00000  Uiso   1.00
H367   H     0.99612   0.46066   0.21061   0.00000  Uiso   1.00
H368   H     0.98208   0.52738   0.42357   0.00000  Uiso   1.00
H369   H     0.67456   0.55901   0.00526   0.00000  Uiso   1.00
H370   H     0.79285   0.47434   0.08824   0.00000  Uiso   1.00
H371   H     0.68524   0.44892   0.39687   0.00000  Uiso   1.00
H372   H     0.72331   0.46411   0.04599   0.00000  Uiso   1.00
N373   N     0.98241   0.51407   0.26416   0.00000  Uiso   1.00
N374   N     0.68426   0.48593   0.23584   0.00000  Uiso   1.00
O375   O     0.79464   0.57141   0.24633   0.00000  Uiso   1.00
O376   O     0.91322   0.45334   0.37572   0.00000  Uiso   1.00
O377   O     0.89524   0.58089   0.25586   0.00000  Uiso   1.00
O378   O     0.75848   0.49293   0.31840   0.00000  Uiso   1.00
O379   O     0.85908   0.50241   0.32793   0.00000  Uiso   1.00
O380   O     0.77142   0.41911   0.24414   0.00000  Uiso   1.00
O381   O     0.87203   0.42859   0.25367   0.00000  Uiso   1.00
O382   O     0.80758   0.49759   0.17207   0.00000  Uiso   1.00
O383   O     0.90819   0.50707   0.18160   0.00000  Uiso   1.00
O384   O     0.96875   0.42461   0.48961   0.00000  Uiso   1.00
C385   C     0.18217   0.93333   0.25013   0.00000  Uiso   1.00
C386   C     0.11482   0.81034   0.40084   0.00000  Uiso   1.00
C387   C     0.19139   0.98925   0.24810   0.00000  Uiso   1.00
C388   C     0.13333   0.82475   0.34644   0.00000  Uiso   1.00
C389   C     0.14296   0.67733   0.24803   0.00000  Uiso   1.00
C390   C     0.15167   0.73331   0.24832   0.00000  Uiso   1.00
C391   C     0.19997   0.83794   0.15332   0.00000  Uiso   1.00
C392   C     0.29347   0.87514   0.02297   0.00000  Uiso   1.00
C393   C     0.21823   0.84419   0.09844   0.00000  Uiso   1.00
C394   C     0.05217   0.79017   0.42142   0.00000  Uiso   1.00
C395   C     0.03198   0.78000   0.47311   0.00000  Uiso   1.00
C396   C     0.13922   0.81638   0.48606   0.00000  Uiso   1.00
C397   C     0.07474   0.79780   0.00584   0.00000  Uiso   1.00
C398   C     0.29009   0.72768   0.03390   0.00000  Uiso   1.00
C399   C     0.22578   0.69058   0.03831   0.00000  Uiso   1.00
C400   C     0.20744   0.99354   0.08793   0.00000  Uiso   1.00
C401   C     0.21468   0.73340   0.38609   0.00000  Uiso   1.00
C402   C     0.25676   0.69550   0.36345   0.00000  Uiso   1.00
C403   C     0.22234   0.97132   0.37233   0.00000  Uiso   1.00
C404   C     0.15939   0.81636   0.43286   0.00000  Uiso   1.00
C405   C     0.18528   0.83352   0.01675   0.00000  Uiso   1.00
C406   C     0.24805   0.85540   0.49342   0.00000  Uiso   1.00
C407   C     0.26652   0.84993   0.44118   0.00000  Uiso   1.00
C408   C     0.22413   0.82018   0.41384   0.00000  Uiso   1.00
C409   C     0.17191   0.82753   0.06929   0.00000  Uiso   1.00
C410   C     0.27875   0.86904   0.07538   0.00000  Uiso   1.00
Cu411  Cu    0.10710   0.82772   0.24435   0.00000  Uiso   1.00
Cu412  Cu    0.22623   0.83895   0.25564   0.00000  Uiso   1.00
H413   H     0.31456   0.88318   0.09770   0.00000  Uiso   1.00
H414   H     0.23832   0.67958   0.24677   0.00000  Uiso   1.00
H415   H     0.28941   0.75432   0.06784   0.00000  Uiso   1.00
H416   H     0.32551   0.70322   0.03259   0.00000  Uiso   1.00
H417   H     0.19015   0.71386   0.03673   0.00000  Uiso   1.00
H418   H     0.22647   0.99535   0.00584   0.00000  Uiso   1.00
H419   H     0.24300   0.97075   0.09088   0.00000  Uiso   1.00
H420   H     0.16172   0.96553   0.08910   0.00000  Uiso   1.00
H421   H     0.20319   0.68795   0.12088   0.00000  Uiso   1.00
H422   H     0.17228   0.72440   0.36878   0.00000  Uiso   1.00
H423   H     0.20034   0.72546   0.42768   0.00000  Uiso   1.00
H424   H     0.09613   0.98698   0.24848   0.00000  Uiso   1.00
H425   H     0.27329   0.70254   0.32221   0.00000  Uiso   1.00
H426   H     0.29817   0.70236   0.38159   0.00000  Uiso   1.00
H427   H     0.20930   0.96310   0.41363   0.00000  Uiso   1.00
H428   H     0.25323   0.94474   0.35407   0.00000  Uiso   1.00
H429   H     0.17928   0.96264   0.35604   0.00000  Uiso   1.00
H430   H     0.00381   0.87258   0.28950   0.00000  Uiso   1.00
H431   H     0.32945   0.79399   0.21061   0.00000  Uiso   1.00
H432   H     0.31541   0.86071   0.42357   0.00000  Uiso   1.00
H433   H     0.00790   0.89234   0.00526   0.00000  Uiso   1.00
H434   H     0.12618   0.80767   0.08824   0.00000  Uiso   1.00
H435   H     0.01857   0.78226   0.39687   0.00000  Uiso   1.00
H436   H     0.05665   0.79744   0.04599   0.00000  Uiso   1.00
N437   N     0.31574   0.84741   0.26416   0.00000  Uiso   1.00
N438   N     0.01759   0.81926   0.23584   0.00000  Uiso   1.00
O439   O     0.12797   0.90474   0.24633   0.00000  Uiso   1.00
O440   O     0.24655   0.78668   0.37572   0.00000  Uiso   1.00
O441   O     0.22858   0.91422   0.25586   0.00000  Uiso   1.00
O442   O     0.09181   0.82627   0.31840   0.00000  Uiso   1.00
O443   O     0.19242   0.83575   0.32793   0.00000  Uiso   1.00
O444   O     0.10476   0.75245   0.24414   0.00000  Uiso   1.00
O445   O     0.20536   0.76193   0.25367   0.00000  Uiso   1.00
O446   O     0.14092   0.83092   0.17207   0.00000  Uiso   1.00
O447   O     0.24152   0.84040   0.18160   0.00000  Uiso   1.00
O448   O     0.30208   0.75794   0.48961   0.00000  Uiso   1.00
C449   C     0.51550   0.93333   0.25013   0.00000  Uiso   1.00
C450   C     0.44815   0.81034   0.40084   0.00000  Uiso   1.00
C451   C     0.52473   0.98925   0.24810   0.00000  Uiso   1.00
C452   C     0.46666   0.82475   0.34644   0.00000  Uiso   1.00
C453   C     0.47630   0.67733   0.24803   0.00000  Uiso   1.00
C454   C     0.48501   0.73331   0.24832   0.00000  Uiso   1.00
C455   C     0.53330   0.83794   0.15332   0.00000  Uiso   1.00
C456   C     0.62680   0.87514   0.02297   0.00000  Uiso   1.00
C457   C     0.55156   0.84419   0.09844   0.00000  Uiso   1.00
C458   C     0.38550   0.79017   0.42142   0.00000  Uiso   1.00
C459   C     0.36532   0.78000   0.47311   0.00000  Uiso   1.00
C460   C     0.47256   0.81638   0.48606   0.00000  Uiso   1.00
C461   C     0.40807   0.79780   0.00584   0.00000  Uiso   1.00
C462   C     0.62342   0.72768   0.03390   0.00000  Uiso   1.00
C463   C     0.55912   0.69058   0.03831   0.00000  Uiso   1.00
C464   C     0.54078   0.99354   0.08793   0.00000  Uiso   1.00
C465   C     0.54801   0.73340   0.38609   0.00000  Uiso   1.00
C466   C     0.59009   0.69550   0.36345   0.00000  Uiso   1.00
C467   C     0.55567   0.97132   0.37233   0.00000  Uiso   1.00
C468   C     0.49272   0.81636   0.43286   0.00000  Uiso   1.00
C469   C     0.51861   0.83352   0.01675   0.00000  Uiso   1.00
C470   C     0.58139   0.85540   0.49342   0.00000  Uiso   1.00
C471   C     0.59985   0.84993   0.44118   0.00000  Uiso   1.00
C472   C     0.55746   0.82018   0.41384   0.00000  Uiso   1.00
C473   C     0.50525   0.82753   0.06929   0.00000  Uiso   1.00
C474   C     0.61208   0.86904   0.07538   0.00000  Uiso   1.00
Cu475  Cu    0.44043   0.82772   0.24435   0.00000  Uiso   1.00
Cu476  Cu    0.55957   0.83895   0.25564   0.00000  Uiso   1.00
H477   H     0.64789   0.88318   0.09770   0.00000  Uiso   1.00
H478   H     0.57165   0.67958   0.24677   0.00000  Uiso   1.00
H479   H     0.62275   0.75432   0.06784   0.00000  Uiso   1.00
H480   H     0.65884   0.70322   0.03259   0.00000  Uiso   1.00
H481   H     0.52348   0.71386   0.03673   0.00000  Uiso   1.00
H482   H     0.55981   0.99535   0.00584   0.00000  Uiso   1.00
H483   H     0.57633   0.97075   0.09088   0.00000  Uiso   1.00
H484   H     0.49505   0.96553   0.08910   0.00000  Uiso   1.00
H485   H     0.53653   0.68795   0.12088   0.00000  Uiso   1.00
H486   H     0.50562   0.72440   0.36878   0.00000  Uiso   1.00
H487   H     0.53368   0.72546   0.42768   0.00000  Uiso   1.00
H488   H     0.42947   0.98698   0.24848   0.00000  Uiso   1.00
H489   H     0.60663   0.70254   0.32221   0.00000  Uiso   1.00
H490   H     0.63150   0.70236   0.38159   0.00000  Uiso   1.00
H491   H     0.54263   0.96310   0.41363   0.00000  Uiso   1.00
H492   H     0.58656   0.94474   0.35407   0.00000  Uiso   1.00
H493   H     0.51261   0.96264   0.35604   0.00000  Uiso   1.00
H494   H     0.33714   0.87258   0.28950   0.00000  Uiso   1.00
H495   H     0.66278   0.79399   0.21061   0.00000  Uiso   1.00
H496   H     0.64874   0.86071   0.42357   0.00000  Uiso   1.00
H497   H     0.34123   0.89234   0.00526   0.00000  Uiso   1.00
H498   H     0.45951   0.80767   0.08824   0.00000  Uiso   1.00
H499   H     0.35190   0.78226   0.39687   0.00000  Uiso   1.00
H500   H     0.38998   0.79744   0.04599   0.00000  Uiso   1.00
N501   N     0.64908   0.84741   0.26416   0.00000  Uiso   1.00
N502   N     0.35092   0.81926   0.23584   0.00000  Uiso   1.00
O503   O     0.46131   0.90474   0.24633   0.00000  Uiso   1.00
O504   O     0.57989   0.78668   0.37572   0.00000  Uiso   1.00
O505   O     0.56191   0.91422   0.25586   0.00000  Uiso   1.00
O506   O     0.42515   0.82627   0.31840   0.00000  Uiso   1.00
O507   O     0.52575   0.83575   0.32793   0.00000  Uiso   1.00
O508   O     0.43809   0.75245   0.24414   0.00000  Uiso   1.00
O509   O     0.53869   0.76193   0.25367   0.00000  Uiso   1.00
O510   O     0.47425   0.83092   0.17207   0.00000  Uiso   1.00
O511   O     0.57485   0.84040   0.18160   0.00000  Uiso   1.00
O512   O     0.63542   0.75794   0.48961   0.00000  Uiso   1.00
C513   C     0.84884   0.93333   0.25013   0.00000  Uiso   1.00
C514   C     0.78148   0.81034   0.40084   0.00000  Uiso   1.00
C515   C     0.85806   0.98925   0.24810   0.00000  Uiso   1.00
C516   C     0.80000   0.82475   0.34644   0.00000  Uiso   1.00
C517   C     0.80963   0.67733   0.24803   0.00000  Uiso   1.00
C518   C     0.81834   0.73331   0.24832   0.00000  Uiso   1.00
C519   C     0.86663   0.83794   0.15332   0.00000  Uiso   1.00
C520   C     0.96014   0.87514   0.02297   0.00000  Uiso   1.00
C521   C     0.88489   0.84419   0.09844   0.00000  Uiso   1.00
C522   C     0.71883   0.79017   0.42142   0.00000  Uiso   1.00
C523   C     0.69865   0.78000   0.47311   0.00000  Uiso   1.00
C524   C     0.80589   0.81638   0.48606   0.00000  Uiso   1.00
C525   C     0.74141   0.79780   0.00584   0.00000  Uiso   1.00
C526   C     0.95675   0.72768   0.03390   0.00000  Uiso   1.00
C527   C     0.89245   0.69058   0.03831   0.00000  Uiso   1.00
C528   C     0.87411   0.99354   0.08793   0.00000  Uiso   1.00
C529   C     0.88134   0.73340   0.38609   0.00000  Uiso   1.00
C530   C     0.92343   0.69550   0.36345   0.00000  Uiso   1.00
C531   C     0.88900   0.97132   0.37233   0.00000  Uiso   1.00
C532   C     0.82605   0.81636   0.43286   0.00000  Uiso   1.00
C533   C     0.85194   0.83352   0.01675   0.00000  Uiso   1.00
C534   C     0.91472   0.85540   0.49342   0.00000  Uiso   1.00
C535   C     0.93319   0.84993   0.44118   0.00000  Uiso   1.00
C536   C     0.89080   0.82018   0.41384   0.00000  Uiso   1.00
C537   C     0.83858   0.82753   0.06929   0.00000  Uiso   1.00
C538   C     0.94542   0.86904   0.07538   0.00000  Uiso   1.00
Cu539  Cu    0.77377   0.82772   0.24435   0.00000  Uiso   1.00
Cu540  Cu    0.89290   0.83895   0.25564   0.00000  Uiso   1.00
H541   H     0.98123   0.88318   0.09770   0.00000  Uiso   1.00
H542   H     0.90498   0.67958   0.24677   0.00000  Uiso   1.00
H543   H     0.95608   0.75432   0.06784   0.00000  Uiso   1.00
H544   H     0.99217   0.70322   0.03259   0.00000  Uiso   1.00
H545   H     0.85682   0.71386   0.03673   0.00000  Uiso   1.00
H546   H     0.89314   0.99535   0.00584   0.00000  Uiso   1.00
H547   H     0.90966   0.97075   0.09088   0.00000  Uiso   1.00
H548   H     0.82838   0.96553   0.08910   0.00000  Uiso   1.00
H549   H     0.86986   0.68795   0.12088   0.00000  Uiso   1.00
H550   H     0.83895   0.72440   0.36878   0.00000  Uiso   1.00
H551   H     0.86701   0.72546   0.42768   0.00000  Uiso   1.00
H552   H     0.76280   0.98698   0.24848   0.00000  Uiso   1.00
H553   H     0.93996   0.70254   0.32221   0.00000  Uiso   1.00
H554   H     0.96484   0.70236   0.38159   0.00000  Uiso   1.00
H555   H     0.87597   0.96310   0.41363   0.00000  Uiso   1.00
H556   H     0.91990   0.94474   0.35407   0.00000  Uiso   1.00
H557   H     0.84595   0.96264   0.35604   0.00000  Uiso   1.00
H558   H     0.67048   0.87258   0.28950   0.00000  Uiso   1.00
H559   H     0.99612   0.79399   0.21061   0.00000  Uiso   1.00
H560   H     0.98208   0.86071   0.42357   0.00000  Uiso   1.00
H561   H     0.67456   0.89234   0.00526   0.00000  Uiso   1.00
H562   H     0.79285   0.80767   0.08824   0.00000  Uiso   1.00
H563   H     0.68524   0.78226   0.39687   0.00000  Uiso   1.00
H564   H     0.72331   0.79744   0.04599   0.00000  Uiso   1.00
N565   N     0.98241   0.84741   0.26416   0.00000  Uiso   1.00
N566   N     0.68426   0.81926   0.23584   0.00000  Uiso   1.00
O567   O     0.79464   0.90474   0.24633   0.00000  Uiso   1.00
O568   O     0.91322   0.78668   0.37572   0.00000  Uiso   1.00
O569   O     0.89524   0.91422   0.25586   0.00000  Uiso   1.00
O570   O     0.75848   0.82627   0.31840   0.00000  Uiso   1.00
O571   O     0.85908   0.83575   0.32793   0.00000  Uiso   1.00
O572   O     0.77142   0.75245   0.24414   0.00000  Uiso   1.00
O573   O     0.87203   0.76193   0.25367   0.00000  Uiso   1.00
O574   O     0.80758   0.83092   0.17207   0.00000  Uiso   1.00
O575   O     0.90819   0.84040   0.18160   0.00000  Uiso   1.00
O576   O     0.96875   0.75794   0.48961   0.00000  Uiso   1.00
C577   C     0.18217   0.26666   0.75013   0.00000  Uiso   1.00
C578   C     0.11482   0.14367   0.90084   0.00000  Uiso   1.00
C579   C     0.19139   0.32258   0.74810   0.00000  Uiso   1.00
C580   C     0.13333   0.15808   0.84644   0.00000  Uiso   1.00
C581   C     0.14296   0.01066   0.74803   0.00000  Uiso   1.00
C582   C     0.15167   0.06665   0.74832   0.00000  Uiso   1.00
C583   C     0.19997   0.17128   0.65332   0.00000  Uiso   1.00
C584   C     0.29347   0.20848   0.52297   0.00000  Uiso   1.00
C585   C     0.21823   0.17752   0.59844   0.00000  Uiso   1.00
C586   C     0.05217   0.12350   0.92142   0.00000  Uiso   1.00
C587   C     0.03198   0.11333   0.97311   0.00000  Uiso   1.00
C588   C     0.13922   0.14971   0.98606   0.00000  Uiso   1.00
C589   C     0.07474   0.13114   0.50584   0.00000  Uiso   1.00
C590   C     0.29009   0.06101   0.53390   0.00000  Uiso   1.00
C591   C     0.22578   0.02391   0.53831   0.00000  Uiso   1.00
C592   C     0.20744   0.32687   0.58793   0.00000  Uiso   1.00
C593   C     0.21468   0.06673   0.88609   0.00000  Uiso   1.00
C594   C     0.25676   0.02884   0.86345   0.00000  Uiso   1.00
C595   C     0.22234   0.30465   0.87233   0.00000  Uiso   1.00
C596   C     0.15939   0.14969   0.93286   0.00000  Uiso   1.00
C597   C     0.18528   0.16685   0.51675   0.00000  Uiso   1.00
C598   C     0.24805   0.18874   0.99342   0.00000  Uiso   1.00
C599   C     0.26652   0.18326   0.94118   0.00000  Uiso   1.00
C600   C     0.22413   0.15352   0.91384   0.00000  Uiso   1.00
C601   C     0.17191   0.16086   0.56929   0.00000  Uiso   1.00
C602   C     0.27875   0.20237   0.57538   0.00000  Uiso   1.00
Cu603  Cu    0.10710   0.16105   0.74435   0.00000  Uiso   1.00
Cu604  Cu    0.22623   0.17228   0.75564   0.00000  Uiso   1.00
H605   H     0.31456   0.21652   0.59770   0.00000  Uiso   1.00
H606   H     0.23832   0.01291   0.74677   0.00000  Uiso   1.00
H607   H     0.28941   0.08766   0.56784   0.00000  Uiso   1.00
H608   H     0.32551   0.03656   0.53259   0.00000  Uiso   1.00
H609   H     0.19015   0.04719   0.53673   0.00000  Uiso   1.00
H610   H     0.22647   0.32868   0.50584   0.00000  Uiso   1.00
H611   H     0.24300   0.30408   0.59088   0.00000  Uiso   1.00
H612   H     0.16172   0.29887   0.58910   0.00000  Uiso   1.00
H613   H     0.20319   0.02128   0.62088   0.00000  Uiso   1.00
H614   H     0.17228   0.05773   0.86878   0.00000  Uiso   1.00
H615   H     0.20034   0.05880   0.92768   0.00000  Uiso   1.00
H616   H     0.09613   0.32031   0.74848   0.00000  Uiso   1.00
H617   H     0.27329   0.03587   0.82221   0.00000  Uiso   1.00
H618   H     0.29817   0.03569   0.88159   0.00000  Uiso   1.00
H619   H     0.20930   0.29644   0.91363   0.00000  Uiso   1.00
H620   H     0.25323   0.27807   0.85407   0.00000  Uiso   1.00
H621   H     0.17928   0.29597   0.85604   0.00000  Uiso   1.00
H622   H     0.00381   0.20591   0.78950   0.00000  Uiso   1.00
H623   H     0.32945   0.12732   0.71061   0.00000  Uiso   1.00
H624   H     0.31541   0.19405   0.92357   0.00000  Uiso   1.00
H625   H     0.00790   0.22568   0.50526   0.00000  Uiso   1.00
H626   H     0.12618   0.14100   0.58824   0.00000  Uiso   1.00
H627   H     0.01857   0.11559   0.89687   0.00000  Uiso   1.00
H628   H     0.05665   0.13077   0.54599   0.00000  Uiso   1.00
N629   N     0.31574   0.18074   0.76416   0.00000  Uiso   1.00
N630   N     0.01759   0.15259   0.73584   0.00000  Uiso   1.00
O631   O     0.12797   0.23807   0.74633   0.00000  Uiso   1.00
O632   O     0.24655   0.12001   0.87572   0.00000  Uiso   1.00
O633   O     0.22858   0.24755   0.75586   0.00000  Uiso   1.00
O634   O     0.09181   0.15960   0.81840   0.00000  Uiso   1.00
O635   O     0.19242   0.16908   0.82793   0.00000  Uiso   1.00
O636   O     0.10476   0.08578   0.74414   0.00000  Uiso   1.00
O637   O     0.20536   0.09526   0.75367   0.00000  Uiso   1.00
O638   O     0.14092   0.16425   0.67207   0.00000  Uiso   1.00
O639   O     0.24152   0.17373   0.68160   0.00000  Uiso   1.00
O640   O     0.30208   0.09127   0.98961   0.00000  Uiso   1.00
C641   C     0.51550   0.26666   0.75013   0.00000  Uiso   1.00
C642   C     0.44815   0.14367   0.90084   0.00000  Uiso   1.00
C643   C     0.52473   0.32258   0.74810   0.00000  Uiso   1.00
C644   C     0.46666   0.15808   0.84644   0.00000  Uiso   1.00
C645   C     0.47630   0.01066   0.74803   0.00000  Uiso   1.00
C646   C     0.48501   0.06665   0.74832   0.00000  Uiso   1.00
C647   C     0.53330   0.17128   0.65332   0.00000  Uiso   1.00
C648   C     0.62680   0.20848   0.52297   0.00000  Uiso   1.00
C649   C     0.55156   0.17752   0.59844   0.00000  Uiso   1.00
C650   C     0.38550   0.12350   0.92142   0.00000  Uiso   1.00
C651   C     0.36532   0.11333   0.97311   0.00000  Uiso   1.00
C652   C     0.47256   0.14971   0.98606   0.00000  Uiso   1.00
C653   C     0.40807   0.13114   0.50584   0.00000  Uiso   1.00
C654   C     0.62342   0.06101   0.53390   0.00000  Uiso   1.00
C655   C     0.55912   0.02391   0.53831   0.00000  Uiso   1.00
C656   C     0.54078   0.32687   0.58793   0.00000  Uiso   1.00
C657   C     0.54801   0.06673   0.88609   0.00000  Uiso   1.00
C658   C     0.59009   0.02884   0.86345   0.00000  Uiso   1.00
C659   C     0.55567   0.30465   0.87233   0.00000  Uiso   1.00
C660   C     0.49272   0.14969   0.93286   0.00000  Uiso   1.00
C661   C     0.51861   0.16685   0.51675   0.00000  Uiso   1.00
C662   C     0.58139   0.18874   0.99342   0.00000  Uiso   1.00
C663   C     0.59985   0.18326   0.94118   0.00000  Uiso   1.00
C664   C     0.55746   0.15352   0.91384   0.00000  Uiso   1.00
C665   C     0.50525   0.16086   0.56929   0.00000  Uiso   1.00
C666   C     0.61208   0.20237   0.57538   0.00000  Uiso   1.00
Cu667  Cu    0.44043   0.16105   0.74435   0.00000  Uiso   1.00
Cu668  Cu    0.55957   0.17228   0.75564   0.00000  Uiso   1.00
H669   H     0.64789   0.21652   0.59770   0.00000  Uiso   1.00
H670   H     0.57165   0.01291   0.74677   0.00000  Uiso   1.00
H671   H     0.62275   0.08766   0.56784   0.00000  Uiso   1.00
H672   H     0.65884   0.03656   0.53259   0.00000  Uiso   1.00
H673   H     0.52348   0.04719   0.53673   0.00000  Uiso   1.00
H674   H     0.55981   0.32868   0.50584   0.00000  Uiso   1.00
H675   H     0.57633   0.30408   0.59088   0.00000  Uiso   1.00
H676   H     0.49505   0.29887   0.58910   0.00000  Uiso   1.00
H677   H     0.53653   0.02128   0.62088   0.00000  Uiso   1.00
H678   H     0.50562   0.05773   0.86878   0.00000  Uiso   1.00
H679   H     0.53368   0.05880   0.92768   0.00000  Uiso   1.00
H680   H     0.42947   0.32031   0.74848   0.00000  Uiso   1.00
H681   H     0.60663   0.03587   0.82221   0.00000  Uiso   1.00
H682   H     0.63150   0.03569   0.88159   0.00000  Uiso   1.00
H683   H     0.54263   0.29644   0.91363   0.00000  Uiso   1.00
H684   H     0.58656   0.27807   0.85407   0.00000  Uiso   1.00
H685   H     0.51261   0.29597   0.85604   0.00000  Uiso   1.00
H686   H     0.33714   0.20591   0.78950   0.00000  Uiso   1.00
H687   H     0.66278   0.12732   0.71061   0.00000  Uiso   1.00
H688   H     0.64874   0.19405   0.92357   0.00000  Uiso   1.00
H689   H     0.34123   0.22568   0.50526   0.00000  Uiso   1.00
H690   H     0.45951   0.14100   0.58824   0.00000  Uiso   1.00
H691   H     0.35190   0.11559   0.89687   0.00000  Uiso   1.00
H692   H     0.38998   0.13077   0.54599   0.00000  Uiso   1.00
N693   N     0.64908   0.18074   0.76416   0.00000  Uiso   1.00
N694   N     0.35092   0.15259   0.73584   0.00000  Uiso   1.00
O695   O     0.46131   0.23807   0.74633   0.00000  Uiso   1.00
O696   O     0.57989   0.12001   0.87572   0.00000  Uiso   1.00
O697   O     0.56191   0.24755   0.75586   0.00000  Uiso   1.00
O698   O     0.42515   0.15960   0.81840   0.00000  Uiso   1.00
O699   O     0.52575   0.16908   0.82793   0.00000  Uiso   1.00
O700   O     0.43809   0.08578   0.74414   0.00000  Uiso   1.00
O701   O     0.53869   0.09526   0.75367   0.00000  Uiso   1.00
O702   O     0.47425   0.16425   0.67207   0.00000  Uiso   1.00
O703   O     0.57485   0.17373   0.68160   0.00000  Uiso   1.00
O704   O     0.63542   0.09127   0.98961   0.00000  Uiso   1.00
C705   C     0.84884   0.26666   0.75013   0.00000  Uiso   1.00
C706   C     0.78148   0.14367   0.90084   0.00000  Uiso   1.00
C707   C     0.85806   0.32258   0.74810   0.00000  Uiso   1.00
C708   C     0.80000   0.15808   0.84644   0.00000  Uiso   1.00
C709   C     0.80963   0.01066   0.74803   0.00000  Uiso   1.00
C710   C     0.81834   0.06665   0.74832   0.00000  Uiso   1.00
C711   C     0.86663   0.17128   0.65332   0.00000  Uiso   1.00
C712   C     0.96014   0.20848   0.52297   0.00000  Uiso   1.00
C713   C     0.88489   0.17752   0.59844   0.00000  Uiso   1.00
C714   C     0.71883   0.12350   0.92142   0.00000  Uiso   1.00
C715   C     0.69865   0.11333   0.97311   0.00000  Uiso   1.00
C716   C     0.80589   0.14971   0.98606   0.00000  Uiso   1.00
C717   C     0.74141   0.13114   0.50584   0.00000  Uiso   1.00
C718   C     0.95675   0.06101   0.53390   0.00000  Uiso   1.00
C719   C     0.89245   0.02391   0.53831   0.00000  Uiso   1.00
C720   C     0.87411   0.32687   0.58793   0.00000  Uiso   1.00
C721   C     0.88134   0.06673   0.88609   0.00000  Uiso   1.00
C722   C     0.92343   0.02884   0.86345   0.00000  Uiso   1.00
C723   C     0.88900   0.30465   0.87233   0.00000  Uiso   1.00
C724   C     0.82605   0.14969   0.93286   0.00000  Uiso   1.00
C725   C     0.85194   0.16685   0.51675   0.00000  Uiso   1.00
C726   C     0.91472   0.18874   0.99342   0.00000  Uiso   1.00
C727   C     0.93319   0.18326   0.94118   0.00000  Uiso   1.00
C728   C     0.89080   0.15352   0.91384   0.00000  Uiso   1.00
C729   C     0.83858   0.16086   0.56929   0.00000  Uiso   1.00
C730   C     0.94542   0.20237   0.57538   0.00000  Uiso   1.00
Cu731  Cu    0.77377   0.16105   0.74435   0.00000  Uiso   1.00
Cu732  Cu    0.89290   0.17228   0.75564   0.00000  Uiso   1.00
H733   H     0.98123   0.21652   0.59770   0.00000  Uiso   1.00
H734   H     0.90498   0.01291   0.74677   0.00000  Uiso   1.00
H735   H     0.95608   0.08766   0.56784   0.00000  Uiso   1.00
H736   H     0.99217   0.03656   0.53259   0.00000  Uiso   1.00
H737   H     0.85682   0.04719   0.53673   0.00000  Uiso   1.00
H738   H     0.89314   0.32868   0.50584   0.00000  Uiso   1.00
H739   H     0.90966   0.30408   0.59088   0.00000  Uiso   1.00
H740   H     0.82838   0.29887   0.58910   0.00000  Uiso   1.00
H741   H     0.86986   0.02128   0.62088   0.00000  Uiso   1.00
H742   H     0.83895   0.05773   0.86878   0.00000  Uiso   1.00
H743   H     0.86701   0.05880   0.92768   0.00000  Uiso   1.00
H744   H     0.76280   0.32031   0.74848   0.00000  Uiso   1.00
H745   H     0.93996   0.03587   0.82221   0.00000  Uiso   1.00
H746   H     0.96484   0.03569   0.88159   0.00000  Uiso   1.00
H747   H     0.87597   0.29644   0.91363   0.00000  Uiso   1.00
H748   H     0.91990   0.27807   0.85407   0.00000  Uiso   1.00
H749   H     0.84595   0.29597   0.85604   0.00000  Uiso   1.00
H750   H     0.67048   0.20591   0.78950   0.00000  Uiso   1.00
H751   H     0.99612   0.12732   0.71061   0.00000  Uiso   1.00
H752   H     0.98208   0.19405   0.92357   0.00000  Uiso   1.00
H753   H     0.67456   0.22568   0.50526   0.00000  Uiso   1.00
H754   H     0.79285   0.14100   0.58824   0.00000  Uiso   1.00
H755   H     0.68524   0.11559   0.89687   0.00000  Uiso   1.00
H756   H     0.72331   0.13077   0.54599   0.00000  Uiso   1.00
N757   N     0.98241   0.18074   0.76416   0.00000  Uiso   1.00
N758   N     0.68426   0.15259   0.73584   0.00000  Uiso   1.00
O759   O     0.79464   0.23807   0.74633   0.00000  Uiso   1.00
O760   O     0.91322   0.12001   0.87572   0.00000  Uiso   1.00
O761   O     0.89524   0.24755   0.75586   0.00000  Uiso   1.00
O762   O     0.75848   0.15960   0.81840   0.00000  Uiso   1.00
O763   O     0.85908   0.16908   0.82793   0.00000  Uiso   1.00
O764   O     0.77142   0.08578   0.74414   0.00000  Uiso   1.00
O765   O     0.87203   0.09526   0.75367   0.00000  Uiso   1.00
O766   O     0.80758   0.16425   0.67207   0.00000  Uiso   1.00
O767   O     0.90819   0.17373   0.68160   0.00000  Uiso   1.00
O768   O     0.96875   0.09127   0.98961   0.00000  Uiso   1.00
C769   C     0.18217   0.59999   0.75013   0.00000  Uiso   1.00
C770   C     0.11482   0.47701   0.90084   0.00000  Uiso   1.00
C771   C     0.19139   0.65591   0.74810   0.00000  Uiso   1.00
C772   C     0.13333   0.49141   0.84644   0.00000  Uiso   1.00
C773   C     0.14296   0.34399   0.74803   0.00000  Uiso   1.00
C774   C     0.15167   0.39998   0.74832   0.00000  Uiso   1.00
C775   C     0.19997   0.50461   0.65332   0.00000  Uiso   1.00
C776   C     0.29347   0.54181   0.52297   0.00000  Uiso   1.00
C777   C     0.21823   0.51085   0.59844   0.00000  Uiso   1.00
C778   C     0.05217   0.45684   0.92142   0.00000  Uiso   1.00
C779   C     0.03198   0.44667   0.97311   0.00000  Uiso   1.00
C780   C     0.13922   0.48304   0.98606   0.00000  Uiso   1.00
C781   C     0.07474   0.46447   0.50584   0.00000  Uiso   1.00
C782   C     0.29009   0.39435   0.53390   0.00000  Uiso   1.00
C783   C     0.22578   0.35724   0.53831   0.00000  Uiso   1.00
C784   C     0.20744   0.66020   0.58793   0.00000  Uiso   1.00
C785   C     0.21468   0.40006   0.88609   0.00000  Uiso   1.00
C786   C     0.25676   0.36217   0.86345   0.00000  Uiso   1.00
C787   C     0.22234   0.63798   0.87233   0.00000  Uiso   1.00
C788   C     0.15939   0.48302   0.93286   0.00000  Uiso   1.00
C789   C     0.18528   0.50018   0.51675   0.00000  Uiso   1.00
C790   C     0.24805   0.52207   0.99342   0.00000  Uiso   1.00
C791   C     0.26652   0.51659   0.94118   0.00000  Uiso   1.00
C792   C     0.22413   0.48685   0.91384   0.00000  Uiso   1.00
C793   C     0.17191   0.49420   0.56929   0.00000  Uiso   1.00
C794   C     0.27875   0.53571   0.57538   0.00000  Uiso   1.00
Cu795  Cu    0.10710   0.49439   0.74435   0.00000  Uiso   1.00
Cu796  Cu    0.22623   0.50561   0.75564   0.00000  Uiso   1.00
H797   H     0.31456   0.54985   0.59770   0.00000  Uiso   1.00
H798   H     0.23832   0.34625   0.74677   0.00000  Uiso   1.00
H799   H     0.28941   0.42099   0.56784   0.00000  Uiso   1.00
H800   H     0.32551   0.36989   0.53259   0.00000  Uiso   1.00
H801   H     0.19015   0.38052   0.53673   0.00000  Uiso   1.00
H802   H     0.22647   0.66202   0.50584   0.00000  Uiso   1.00
H803   H     0.24300   0.63741   0.59088   0.00000  Uiso   1.00
H804   H     0.16172   0.63220   0.58910   0.00000  Uiso   1.00
H805   H     0.20319   0.35462   0.62088   0.00000  Uiso   1.00
H806   H     0.17228   0.39106   0.86878   0.00000  Uiso   1.00
H807   H     0.20034   0.39213   0.92768   0.00000  Uiso   1.00
H808   H     0.09613   0.65365   0.74848   0.00000  Uiso   1.00
H809   H     0.27329   0.36921   0.82221   0.00000  Uiso   1.00
H810   H     0.29817   0.36902   0.88159   0.00000  Uiso   1.00
H811   H     0.20930   0.62977   0.91363   0.00000  Uiso   1.00
H812   H     0.25323   0.61141   0.85407   0.00000  Uiso   1.00
H813   H     0.17928   0.62931   0.85604   0.00000  Uiso   1.00
H814   H     0.00381   0.53925   0.78950   0.00000  Uiso   1.00
H815   H     0.32945   0.46066   0.71061   0.00000  Uiso   1.00
H816   H     0.31541   0.52738   0.92357   0.00000  Uiso   1.00
H817   H     0.00790   0.55901   0.50526   0.00000  Uiso   1.00
H818   H     0.12618   0.47434   0.58824   0.00000  Uiso   1.00
H819   H     0.01857   0.44892   0.89687   0.00000  Uiso   1.00
H820   H     0.05665   0.46411   0.54599   0.00000  Uiso   1.00
N821   N     0.31574   0.51407   0.76416   0.00000  Uiso   1.00
N822   N     0.01759   0.48593   0.73584   0.00000  Uiso   1.00
O823   O     0.12797   0.57141   0.74633   0.00000  Uiso   1.00
O824   O     0.24655   0.45334   0.87572   0.00000  Uiso   1.00
O825   O     0.22858   0.58089   0.75586   0.00000  Uiso   1.00
O826   O     0.09181   0.49293   0.81840   0.00000  Uiso   1.00
O827   O     0.19242   0.50241   0.82793   0.00000  Uiso   1.00
O828   O     0.10476   0.41911   0.74414   0.00000  Uiso   1.00
O829   O     0.20536   0.42859   0.75367   0.00000  Uiso   1.00
O830   O     0.14092   0.49759   0.67207   0.00000  Uiso   1.00
O831   O     0.24152   0.50707   0.68160   0.00000  Uiso   1.00
O832   O     0.30208   0.42461   0.98961   0.00000  Uiso   1.00
C833   C     0.51550   0.59999   0.75013   0.00000  Uiso   1.00
C834   C     0.44815   0.47701   0.90084   0.00000  Uiso   1.00
C835   C     0.52473   0.65591   0.74810   0.00000  Uiso   1.00
C836   C     0.46666   0.49141   0.84644   0.00000  Uiso   1.00
C837   C     0.47630   0.34399   0.74803   0.00000  Uiso   1.00
C838   C     0.48501   0.39998   0.74832   0.00000  Uiso   1.00
C839   C     0.53330   0.50461   0.65332   0.00000  Uiso   1.00
C840   C     0.62680   0.54181   0.52297   0.00000  Uiso   1.00
C841   C     0.55156   0.51085   0.59844   0.00000  Uiso   1.00
C842   C     0.38550   0.45684   0.92142   0.00000  Uiso   1.00
C843   C     0.36532   0.44667   0.97311   0.00000  Uiso   1.00
C844   C     0.47256   0.48304   0.98606   0.00000  Uiso   1.00
C845   C     0.40807   0.46447   0.50584   0.00000  Uiso   1.00
C846   C     0.62342   0.39435   0.53390   0.00000  Uiso   1.00
C847   C     0.55912   0.35724   0.53831   0.00000  Uiso   1.00
C848   C     0.54078   0.66020   0.58793   0.00000  Uiso   1.00
C849   C     0.54801   0.40006   0.88609   0.00000  Uiso   1.00
C850   C     0.59009   0.36217   0.86345   0.00000  Uiso   1.00
C851   C     0.55567   0.63798   0.87233   0.00000  Uiso   1.00
C852   C     0.49272   0.48302   0.93286   0.00000  Uiso   1.00
C853   C     0.51861   0.50018   0.51675   0.00000  Uiso   1.00
C854   C     0.58139   0.52207   0.99342   0.00000  Uiso   1.00
C855   C     0.59985   0.51659   0.94118   0.00000  Uiso   1.00
C856   C     0.55746   0.48685   0.91384   0.00000  Uiso   1.00
C857   C     0.50525   0.49420   0.56929   0.00000  Uiso   1.00
C858   C     0.61208   0.53571   0.57538   0.00000  Uiso   1.00
Cu859  Cu    0.44043   0.49439   0.74435   0.00000  Uiso   1.00
Cu860  Cu    0.55957   0.50561   0.75564   0.00000  Uiso   1.00
H861   H     0.64789   0.54985   0.59770   0.00000  Uiso   1.00
H862   H     0.57165   0.34625   0.74677   0.00000  Uiso   1.00
H863   H     0.62275   0.42099   0.56784   0.00000  Uiso   1.00
H864   H     0.65884   0.36989   0.53259   0.00000  Uiso   1.00
H865   H     0.52348   0.38052   0.53673   0.00000  Uiso   1.00
H866   H     0.55981   0.66202   0.50584   0.00000  Uiso   1.00
H867   H     0.57633   0.63741   0.59088   0.00000  Uiso   1.00
H868   H     0.49505   0.63220   0.58910   0.00000  Uiso   1.00
H869   H     0.53653   0.35462   0.62088   0.00000  Uiso   1.00
H870   H     0.50562   0.39106   0.86878   0.00000  Uiso   1.00
H871   H     0.53368   0.39213   0.92768   0.00000  Uiso   1.00
H872   H     0.42947   0.65365   0.74848   0.00000  Uiso   1.00
H873   H     0.60663   0.36921   0.82221   0.00000  Uiso   1.00
H874   H     0.63150   0.36902   0.88159   0.00000  Uiso   1.00
H875   H     0.54263   0.62977   0.91363   0.00000  Uiso   1.00
H876   H     0.58656   0.61141   0.85407   0.00000  Uiso   1.00
H877   H     0.51261   0.62931   0.85604   0.00000  Uiso   1.00
H878   H     0.33714   0.53925   0.78950   0.00000  Uiso   1.00
H879   H     0.66278   0.46066   0.71061   0.00000  Uiso   1.00
H880   H     0.64874   0.52738   0.92357   0.00000  Uiso   1.00
H881   H     0.34123   0.55901   0.50526   0.00000  Uiso   1.00
H882   H     0.45951   0.47434   0.58824   0.00000  Uiso   1.00
H883   H     0.35190   0.44892   0.89687   0.00000  Uiso   1.00
H884   H     0.38998   0.46411   0.54599   0.00000  Uiso   1.00
N885   N     0.64908   0.51407   0.76416   0.00000  Uiso   1.00
N886   N     0.35092   0.48593   0.73584   0.00000  Uiso   1.00
O887   O     0.46131   0.57141   0.74633   0.00000  Uiso   1.00
O888   O     0.57989   0.45334   0.87572   0.00000  Uiso   1.00
O889   O     0.56191   0.58089   0.75586   0.00000  Uiso   1.00
O890   O     0.42515   0.49293   0.81840   0.00000  Uiso   1.00
O891   O     0.52575   0.50241   0.82793   0.00000  Uiso   1.00
O892   O     0.43809   0.41911   0.74414   0.00000  Uiso   1.00
O893   O     0.53869   0.42859   0.75367   0.00000  Uiso   1.00
O894   O     0.47425   0.49759   0.67207   0.00000  Uiso   1.00
O895   O     0.57485   0.50707   0.68160   0.00000  Uiso   1.00
O896   O     0.63542   0.42461   0.98961   0.00000  Uiso   1.00
C897   C     0.84884   0.59999   0.75013   0.00000  Uiso   1.00
C898   C     0.78148   0.47701   0.90084   0.00000  Uiso   1.00
C899   C     0.85806   0.65591   0.74810   0.00000  Uiso   1.00
C900   C     0.80000   0.49141   0.84644   0.00000  Uiso   1.00
C901   C     0.80963   0.34399   0.74803   0.00000  Uiso   1.00
C902   C     0.81834   0.39998   0.74832   0.00000  Uiso   1.00
C903   C     0.86663   0.50461   0.65332   0.00000  Uiso   1.00
C904   C     0.96014   0.54181   0.52297   0.00000  Uiso   1.00
C905   C     0.88489   0.51085   0.59844   0.00000  Uiso   1.00
C906   C     0.71883   0.45684   0.92142   0.00000  Uiso   1.00
C907   C     0.69865   0.44667   0.97311   0.00000  Uiso   1.00
C908   C     0.80589   0.48304   0.98606   0.00000  Uiso   1.00
C909   C     0.74141   0.46447   0.50584   0.00000  Uiso   1.00
C910   C     0.95675   0.39435   0.53390   0.00000  Uiso   1.00
C911   C     0.89245   0.35724   0.53831   0.00000  Uiso   1.00
C912   C     0.87411   0.66020   0.58793   0.00000  Uiso   1.00
C913   C     0.88134   0.40006   0.88609   0.00000  Uiso   1.00
C914   C     0.92343   0.36217   0.86345   0.00000  Uiso   1.00
C915   C     0.88900   0.63798   0.87233   0.00000  Uiso   1.00
C916   C     0.82605   0.48302   0.93286   0.00000  Uiso   1.00
C917   C     0.85194   0.50018   0.51675   0.00000  Uiso   1.00
C918   C     0.91472   0.52207   0.99342   0.00000  Uiso   1.00
C919   C     0.93319   0.51659   0.94118   0.00000  Uiso   1.00
C920   C     0.89080   0.48685   0.91384   0.00000  Uiso   1.00
C921   C     0.83858   0.49420   0.56929   0.00000  Uiso   1.00
C922   C     0.94542   0.53571   0.57538   0.00000  Uiso   1.00
Cu923  Cu    0.77377   0.49439   0.74435   0.00000  Uiso   1.00
Cu924  Cu    0.89290   0.50561   0.75564   0.00000  Uiso   1.00
H925   H     0.98123   0.54985   0.59770   0.00000  Uiso   1.00
H926   H     0.90498   0.34625   0.74677   0.00000  Uiso   1.00
H927   H     0.95608   0.42099   0.56784   0.00000  Uiso   1.00
H928   H     0.99217   0.36989   0.53259   0.00000  Uiso   1.00
H929   H     0.85682   0.38052   0.53673   0.00000  Uiso   1.00
H930   H     0.89314   0.66202   0.50584   0.00000  Uiso   1.00
H931   H     0.90966   0.63741   0.59088   0.00000  Uiso   1.00
H932   H     0.82838   0.63220   0.58910   0.00000  Uiso   1.00
H933   H     0.86986   0.35462   0.62088   0.00000  Uiso   1.00
H934   H     0.83895   0.39106   0.86878   0.00000  Uiso   1.00
H935   H     0.86701   0.39213   0.92768   0.00000  Uiso   1.00
H936   H     0.76280   0.65365   0.74848   0.00000  Uiso   1.00
H937   H     0.93996   0.36921   0.82221   0.00000  Uiso   1.00
H938   H     0.96484   0.36902   0.88159   0.00000  Uiso   1.00
H939   H     0.87597   0.62977   0.91363   0.00000  Uiso   1.00
H940   H     0.91990   0.61141   0.85407   0.00000  Uiso   1.00
H941   H     0.84595   0.62931   0.85604   0.00000  Uiso   1.00
H942   H     0.67048   0.53925   0.78950   0.00000  Uiso   1.00
H943   H     0.99612   0.46066   0.71061   0.00000  Uiso   1.00
H944   H     0.98208   0.52738   0.92357   0.00000  Uiso   1.00
H945   H     0.67456   0.55901   0.50526   0.00000  Uiso   1.00
H946   H     0.79285   0.47434   0.58824   0.00000  Uiso   1.00
H947   H     0.68524   0.44892   0.89687   0.00000  Uiso   1.00
H948   H     0.72331   0.46411   0.54599   0.00000  Uiso   1.00
N949   N     0.98241   0.51407   0.76416   0.00000  Uiso   1.00
N950   N     0.68426   0.48593   0.73584   0.00000  Uiso   1.00
O951   O     0.79464   0.57141   0.74633   0.00000  Uiso   1.00
O952   O     0.91322   0.45334   0.87572   0.00000  Uiso   1.00
O953   O     0.89524   0.58089   0.75586   0.00000  Uiso   1.00
O954   O     0.75848   0.49293   0.81840   0.00000  Uiso   1.00
O955   O     0.85908   0.50241   0.82793   0.00000  Uiso   1.00
O956   O     0.77142   0.41911   0.74414   0.00000  Uiso   1.00
O957   O     0.87203   0.42859   0.75367   0.00000  Uiso   1.00
O958   O     0.80758   0.49759   0.67207   0.00000  Uiso   1.00
O959   O     0.90819   0.50707   0.68160   0.00000  Uiso   1.00
O960   O     0.96875   0.42461   0.98961   0.00000  Uiso   1.00
C961   C     0.18217   0.93333   0.75013   0.00000  Uiso   1.00
C962   C     0.11482   0.81034   0.90084   0.00000  Uiso   1.00
C963   C     0.19139   0.98925   0.74810   0.00000  Uiso   1.00
C964   C     0.13333   0.82475   0.84644   0.00000  Uiso   1.00
C965   C     0.14296   0.67733   0.74803   0.00000  Uiso   1.00
C966   C     0.15167   0.73331   0.74832   0.00000  Uiso   1.00
C967   C     0.19997   0.83794   0.65332   0.00000  Uiso   1.00
C968   C     0.29347   0.87514   0.52297   0.00000  Uiso   1.00
C969   C     0.21823   0.84419   0.59844   0.00000  Uiso   1.00
C970   C     0.05217   0.79017   0.92142   0.00000  Uiso   1.00
C971   C     0.03198   0.78000   0.97311   0.00000  Uiso   1.00
C972   C     0.13922   0.81638   0.98606   0.00000  Uiso   1.00
C973   C     0.07474   0.79780   0.50584   0.00000  Uiso   1.00
C974   C     0.29009   0.72768   0.53390   0.00000  Uiso   1.00
C975   C     0.22578   0.69058   0.53831   0.00000  Uiso   1.00
C976   C     0.20744   0.99354   0.58793   0.00000  Uiso   1.00
C977   C     0.21468   0.73340   0.88609   0.00000  Uiso   1.00
C978   C     0.25676   0.69550   0.86345   0.00000  Uiso   1.00
C979   C     0.22234   0.97132   0.87233   0.00000  Uiso   1.00
C980   C     0.15939   0.81636   0.93286   0.00000  Uiso   1.00
C981   C     0.18528   0.83352   0.51675   0.00000  Uiso   1.00
C982   C     0.24805   0.85540   0.99342   0.00000  Uiso   1.00
C983   C     0.26652   0.84993   0.94118   0.00000  Uiso   1.00
C984   C     0.22413   0.82018   0.91384   0.00000  Uiso   1.00
C985   C     0.17191   0.82753   0.56929   0.00000  Uiso   1.00
C986   C     0.27875   0.86904   0.57538   0.00000  Uiso   1.00
Cu987  Cu    0.10710   0.82772   0.74435   0.00000  Uiso   1.00
Cu988  Cu    0.22623   0.83895   0.75564   0.00000  Uiso   1.00
H989   H     0.31456   0.88318   0.59770   0.00000  Uiso   1.00
H990   H     0.23832   0.67958   0.74677   0.00000  Uiso   1.00
H991   H     0.28941   0.75432   0.56784   0.00000  Uiso   1.00
H992   H     0.32551   0.70322   0.53259   0.00000  Uiso   1.00
H993   H     0.19015   0.71386   0.53673   0.00000  Uiso   1.00
H994   H     0.22647   0.99535   0.50584   0.00000  Uiso   1.00
H995   H     0.24300   0.97075   0.59088   0.00000  Uiso   1.00
H996   H     0.16172   0.96553   0.58910   0.00000  Uiso   1.00
H997   H     0.20319   0.68795   0.62088   0.00000  Uiso   1.00
H998   H     0.17228   0.72440   0.86878   0.00000  Uiso   1.00
H999   H     0.20034   0.72546   0.92768   0.00000  Uiso   1.00
H1000  H     0.09613   0.98698   0.74848   0.00000  Uiso   1.00
H1001  H     0.27329   0.70254   0.82221   0.00000  Uiso   1.00
H1002  H     0.29817   0.70236   0.88159   0.00000  Uiso   1.00
H1003  H     0.20930   0.96310   0.91363   0.00000  Uiso   1.00
H1004  H     0.25323   0.94474   0.85407   0.00000  Uiso   1.00
H1005  H     0.17928   0.96264   0.85604   0.00000  Uiso   1.00
H1006  H     0.00381   0.87258   0.78950   0.00000  Uiso   1.00
H1007  H     0.32945   0.79399   0.71061   0.00000  Uiso   1.00
H1008  H     0.31541   0.86071   0.92357   0.00000  Uiso   1.00
H1009  H     0.00790   0.89234   0.50526   0.00000  Uiso   1.00
H1010  H     0.12618   0.80767   0.58824   0.00000  Uiso   1.00
H1011  H     0.01857   0.78226   0.89687   0.00000  Uiso   1.00
H1012  H     0.05665   0.79744   0.54599   0.00000  Uiso   1.00
N1013  N     0.31574   0.84741   0.76416   0.00000  Uiso   1.00
N1014  N     0.01759   0.81926   0.73584   0.00000  Uiso   1.00
O1015  O     0.12797   0.90474   0.74633   0.00000  Uiso   1.00
O1016  O     0.24655   0.78668   0.87572   0.00000  Uiso   1.00
O1017  O     0.22858   0.91422   0.75586   0.00000  Uiso   1.00
O1018  O     0.09181   0.82627   0.81840   0.00000  Uiso   1.00
O1019  O     0.19242   0.83575   0.82793   0.00000  Uiso   1.00
O1020  O     0.10476   0.75245   0.74414   0.00000  Uiso   1.00
O1021  O     0.20536   0.76193   0.75367   0.00000  Uiso   1.00
O1022  O     0.14092   0.83092   0.67207   0.00000  Uiso   1.00
O1023  O     0.24152   0.84040   0.68160   0.00000  Uiso   1.00
O1024  O     0.30208   0.75794   0.98961   0.00000  Uiso   1.00
C1025  C     0.51550   0.93333   0.75013   0.00000  Uiso   1.00
C1026  C     0.44815   0.81034   0.90084   0.00000  Uiso   1.00
C1027  C     0.52473   0.98925   0.74810   0.00000  Uiso   1.00
C1028  C     0.46666   0.82475   0.84644   0.00000  Uiso   1.00
C1029  C     0.47630   0.67733   0.74803   0.00000  Uiso   1.00
C1030  C     0.48501   0.73331   0.74832   0.00000  Uiso   1.00
C1031  C     0.53330   0.83794   0.65332   0.00000  Uiso   1.00
C1032  C     0.62680   0.87514   0.52297   0.00000  Uiso   1.00
C1033  C     0.55156   0.84419   0.59844   0.00000  Uiso   1.00
C1034  C     0.38550   0.79017   0.92142   0.00000  Uiso   1.00
C1035  C     0.36532   0.78000   0.97311   0.00000  Uiso   1.00
C1036  C     0.47256   0.81638   0.98606   0.00000  Uiso   1.00
C1037  C     0.40807   0.79780   0.50584   0.00000  Uiso   1.00
C1038  C     0.62342   0.72768   0.53390   0.00000  Uiso   1.00
C1039  C     0.55912   0.69058   0.53831   0.00000  Uiso   1.00
C1040  C     0.54078   0.99354   0.58793   0.00000  Uiso   1.00
C1041  C     0.54801   0.73340   0.88609   0.00000  Uiso   1.00
C1042  C     0.59009   0.69550   0.86345   0.00000  Uiso   1.00
C1043  C     0.55567   0.97132   0.87233   0.00000  Uiso   1.00
C1044  C     0.49272   0.81636   0.93286   0.00000  Uiso   1.00
C1045  C     0.51861   0.83352   0.51675   0.00000  Uiso   1.00
C1046  C     0.58139   0.85540   0.99342   0.00000  Uiso   1.00
C1047  C     0.59985   0.84993   0.94118   0.00000  Uiso   1.00
C1048  C     0.55746   0.82018   0.91384   0.00000  Uiso   1.00
C1049  C     0.50525   0.82753   0.56929   0.00000  Uiso   1.00
C1050  C     0.61208   0.86904   0.57538   0.00000  Uiso   1.00
Cu1051 Cu    0.44043   0.82772   0.74435   0.00000  Uiso   1.00
Cu1052 Cu    0.55957   0.83895   0.75564   0.00000  Uiso   1.00
H1053  H     0.64789   0.88318   0.59770   0.00000  Uiso   1.00
H1054  H     0.57165   0.67958   0.74677   0.00000  Uiso   1.00
H1055  H     0.62275   0.75432   0.56784   0.00000  Uiso   1.00
H1056  H     0.65884   0.70322   0.53259   0.00000  Uiso   1.00
H1057  H     0.52348   0.71386   0.53673   0.00000  Uiso   1.00
H1058  H     0.55981   0.99535   0.50584   0.00000  Uiso   1.00
H1059  H     0.57633   0.97075   0.59088   0.00000  Uiso   1.00
H1060  H     0.49505   0.96553   0.58910   0.00000  Uiso   1.00
H1061  H     0.53653   0.68795   0.62088   0.00000  Uiso   1.00
H1062  H     0.50562   0.72440   0.86878   0.00000  Uiso   1.00
H1063  H     0.53368   0.72546   0.92768   0.00000  Uiso   1.00
H1064  H     0.42947   0.98698   0.74848   0.00000  Uiso   1.00
H1065  H     0.60663   0.70254   0.82221   0.00000  Uiso   1.00
H1066  H     0.63150   0.70236   0.88159   0.00000  Uiso   1.00
H1067  H     0.54263   0.96310   0.91363   0.00000  Uiso   1.00
H1068  H     0.58656   0.94474   0.85407   0.00000  Uiso   1.00
H1069  H     0.51261   0.96264   0.85604   0.00000  Uiso   1.00
H1070  H     0.33714   0.87258   0.78950   0.00000  Uiso   1.00
H1071  H     0.66278   0.79399   0.71061   0.00000  Uiso   1.00
H1072  H     0.64874   0.86071   0.92357   0.00000  Uiso   1.00
H1073  H     0.34123   0.89234   0.50526   0.00000  Uiso   1.00
H1074  H     0.45951   0.80767   0.58824   0.00000  Uiso   1.00
H1075  H     0.35190   0.78226   0.89687   0.00000  Uiso   1.00
H1076  H     0.38998   0.79744   0.54599   0.00000  Uiso   1.00
N1077  N     0.64908   0.84741   0.76416   0.00000  Uiso   1.00
N1078  N     0.35092   0.81926   0.73584   0.00000  Uiso   1.00
O1079  O     0.46131   0.90474   0.74633   0.00000  Uiso   1.00
O1080  O     0.57989   0.78668   0.87572   0.00000  Uiso   1.00
O1081  O     0.56191   0.91422   0.75586   0.00000  Uiso   1.00
O1082  O     0.42515   0.82627   0.81840   0.00000  Uiso   1.00
O1083  O     0.52575   0.83575   0.82793   0.00000  Uiso   1.00
O1084  O     0.43809   0.75245   0.74414   0.00000  Uiso   1.00
O1085  O     0.53869   0.76193   0.75367   0.00000  Uiso   1.00
O1086  O     0.47425   0.83092   0.67207   0.00000  Uiso   1.00
O1087  O     0.57485   0.84040   0.68160   0.00000  Uiso   1.00
O1088  O     0.63542   0.75794   0.98961   0.00000  Uiso   1.00
C1089  C     0.84884   0.93333   0.75013   0.00000  Uiso   1.00
C1090  C     0.78148   0.81034   0.90084   0.00000  Uiso   1.00
C1091  C     0.85806   0.98925   0.74810   0.00000  Uiso   1.00
C1092  C     0.80000   0.82475   0.84644   0.00000  Uiso   1.00
C1093  C     0.80963   0.67733   0.74803   0.00000  Uiso   1.00
C1094  C     0.81834   0.73331   0.74832   0.00000  Uiso   1.00
C1095  C     0.86663   0.83794   0.65332   0.00000  Uiso   1.00
C1096  C     0.96014   0.87514   0.52297   0.00000  Uiso   1.00
C1097  C     0.88489   0.84419   0.59844   0.00000  Uiso   1.00
C1098  C     0.71883   0.79017   0.92142   0.00000  Uiso   1.00
C1099  C     0.69865   0.78000   0.97311   0.00000  Uiso   1.00
C1100  C     0.80589   0.81638   0.98606   0.00000  Uiso   1.00
C1101  C     0.74141   0.79780   0.50584   0.00000  Uiso   1.00
C1102  C     0.95675   0.72768   0.53390   0.00000  Uiso   1.00
C1103  C     0.89245   0.69058   0.53831   0.00000  Uiso   1.00
C1104  C     0.87411   0.99354   0.58793   0.00000  Uiso   1.00
C1105  C     0.88134   0.73340   0.88609   0.00000  Uiso   1.00
C1106  C     0.92343   0.69550   0.86345   0.00000  Uiso   1.00
C1107  C     0.88900   0.97132   0.87233   0.00000  Uiso   1.00
C1108  C     0.82605   0.81636   0.93286   0.00000  Uiso   1.00
C1109  C     0.85194   0.83352   0.51675   0.00000  Uiso   1.00
C1110  C     0.91472   0.85540   0.99342   0.00000  Uiso   1.00
C1111  C     0.93319   0.84993   0.94118   0.00000  Uiso   1.00
C1112  C     0.89080   0.82018   0.91384   0.00000  Uiso   1.00
C1113  C     0.83858   0.82753   0.56929   0.00000  Uiso   1.00
C1114  C     0.94542   0.86904   0.57538   0.00000  Uiso   1.00
Cu1115 Cu    0.77377   0.82772   0.74435   0.00000  Uiso   1.00
Cu1116 Cu    0.89290   0.83895   0.75564   0.00000  Uiso   1.00
H1117  H     0.98123   0.88318   0.59770   0.00000  Uiso   1.00
H1118  H     0.90498   0.67958   0.74677   0.00000  Uiso   1.00
H1119  H     0.95608   0.75432   0.56784   0.00000  Uiso   1.00
H1120  H     0.99217   0.70322   0.53259   0.00000  Uiso   1.00
H1121  H     0.85682   0.71386   0.53673   0.00000  Uiso   1.00
H1122  H     0.89314   0.99535   0.50584   0.00000  Uiso   1.00
H1123  H     0.90966   0.97075   0.59088   0.00000  Uiso   1.00
H1124  H     0.82838   0.96553   0.58910   0.00000  Uiso   1.00
H1125  H     0.86986   0.68795   0.62088   0.00000  Uiso   1.00
H1126  H     0.83895   0.72440   0.86878   0.00000  Uiso   1.00
H1127  H     0.86701   0.72546   0.92768   0.00000  Uiso   1.00
H1128  H     0.76280   0.98698   0.74848   0.00000  Uiso   1.00
H1129  H     0.93996   0.70254   0.82221   0.00000  Uiso   1.00
H1130  H     0.96484   0.70236   0.88159   0.00000  Uiso   1.00
H1131  H     0.87597   0.96310   0.91363   0.00000  Uiso   1.00
H1132  H     0.91990   0.94474   0.85407   0.00000  Uiso   1.00
H1133  H     0.84595   0.96264   0.85604   0.00000  Uiso   1.00
H1134  H     0.67048   0.87258   0.78950   0.00000  Uiso   1.00
H1135  H     0.99612   0.79399   0.71061   0.00000  Uiso   1.00
H1136  H     0.98208   0.86071   0.92357   0.00000  Uiso   1.00
H1137  H     0.67456   0.89234   0.50526   0.00000  Uiso   1.00
H1138  H     0.79285   0.80767   0.58824   0.00000  Uiso   1.00
H1139  H     0.68524   0.78226   0.89687   0.00000  Uiso   1.00
H1140  H     0.72331   0.79744   0.54599   0.00000  Uiso   1.00
N1141  N     0.98241   0.84741   0.76416   0.00000  Uiso   1.00
N1142  N     0.68426   0.81926   0.73584   0.00000  Uiso   1.00
O1143  O     0.79464   0.90474   0.74633   0.00000  Uiso   1.00
O1144  O     0.91322   0.78668   0.87572   0.00000  Uiso   1.00
O1145  O     0.89524   0.91422   0.75586   0.00000  Uiso   1.00
O1146  O     0.75848   0.82627   0.81840   0.00000  Uiso   1.00
O1147  O     0.85908   0.83575   0.82793   0.00000  Uiso   1.00
O1148  O     0.77142   0.75245   0.74414   0.00000  Uiso   1.00
O1149  O     0.87203   0.76193   0.75367   0.00000  Uiso   1.00
O1150  O     0.80758   0.83092   0.67207   0.00000  Uiso   1.00
O1151  O     0.90819   0.84040   0.68160   0.00000  Uiso   1.00
O1152  O     0.96875   0.75794   0.98961   0.00000  Uiso   1.00
loop_
_geom_bond_atom_site_label_1
_geom_bond_atom_site_label_2
_geom_bond_distance
_geom_bond_site_symmetry_2
_ccdc_geom_bond_type
C1     O57     1.286   .     A
C1     O55     1.292   .     A
C1     C3      1.423   .     S
C2     C4      1.484   .     S
C2     C20     1.422   .     A
C2     C10     1.392   .     A
C3     C197    1.325   .     S
C3     H222    1.086   .     S
C4     O59     1.289   .     A
C4     O58     1.318   .     A
C5     C6      1.423   .     S
C5     C387    1.325   1_545 S
C5     H424    1.088   1_545 S
C6     O60     1.285   .     A
C6     O61     1.293   .     A
C7     O62     1.292   .     A
C7     O63     1.304   .     A
C7     C9      1.459   .     S
C8     C26     1.392   .     A
C8     C598    1.404   1_554 S
C8     H113    1.084   .     S
C9     C25     1.401   .     A
C9     C26     1.397   .     A
C10    H51     1.076   .     S
C10    C11     1.394   .     A
C11    C589    1.413   .     S
C11    O192    1.393   1_455 S
C12    C20     1.411   .     A
C12    C589    1.417   .     S
C12    C597    1.426   .     S
C13    H52     1.074   .     S
C13    C588    1.417   1_554 S
C13    C587    1.413   1_554 S
C14    H31     1.112   .     S
C14    C15     1.529   .     S
C14    H32     1.116   .     S
C14    O640    1.413   1_554 S
C15    H33     1.112   .     S
C15    C400    1.527   1_545 S
C15    H418    1.112   1_545 S
C16    H36     1.111   .     S
C16    H35     1.110   .     S
C16    C207    1.527   .     S
C16    H229    1.111   .     S
C17    C18     1.530   .     S
C17    O56     1.423   .     S
C17    H39     1.118   .     S
C17    H38     1.112   .     S
C18    H42     1.107   .     S
C18    H41     1.109   .     S
C18    C403    1.528   1_545 S
C19    H45     1.110   .     S
C19    H43     1.111   .     S
C19    H44     1.110   .     S
C19    C210    1.528   .     S
C20    C24     1.419   .     A
C21    C25     1.395   .     A
C21    C588    1.426   1_554 S
C21    C598    1.421   1_554 S
C22    C23     1.391   .     A
C22    C597    1.421   .     S
C22    C584    1.404   .     S
C23    C24     1.386   .     A
C23    H48     1.081   .     S
C24    O56     1.394   .     S
C25    H50     1.076   .     S
C26    H29     1.083   .     S
Cu27   O62     1.938   .     S
Cu27   N54     2.023   .     S
Cu27   O60     1.944   .     S
Cu27   O55     1.950   .     S
Cu27   Cu28    2.693   .     S
Cu27   O58     1.953   .     S
Cu28   N53     2.023   .     S
Cu28   O61     1.950   .     S
Cu28   O63     1.953   .     S
Cu28   O59     1.938   .     S
Cu28   O57     1.944   .     S
H30    C387    1.086   1_545 S
H34    C207    1.112   .     S
H37    C400    1.111   1_545 S
H40    C197    1.088   .     S
H46    N181    1.029   1_455 S
H47    N118    1.029   .     S
H49    C136    1.084   1_455 S
N53    H110    1.029   .     S
N53    N118    1.298   .     S
N54    N181    1.298   1_455 S
N54    H175    1.029   1_455 S
O64    C75     1.393   .     S
O64    C590    1.413   .     S
C65    O121    1.286   .     A
C65    O119    1.292   .     A
C65    C67     1.423   .     S
C66    C68     1.484   .     S
C66    C84     1.422   .     A
C66    C74     1.392   .     A
C67    C261    1.325   .     S
C67    H286    1.086   .     S
C68    O123    1.289   .     A
C68    O122    1.318   .     A
C69    C70     1.423   .     S
C69    C451    1.325   1_545 S
C69    H488    1.088   1_545 S
C70    O124    1.285   .     A
C70    O125    1.293   .     A
C71    O126    1.292   .     A
C71    O127    1.304   .     A
C71    C73     1.459   .     S
C72    C90     1.392   .     A
C72    C662    1.404   1_554 S
C72    H177    1.084   .     S
C73    C89     1.401   .     A
C73    C90     1.397   .     A
C74    H115    1.076   .     S
C74    C75     1.394   .     A
C75    C653    1.413   .     S
C76    C84     1.411   .     A
C76    C653    1.417   .     S
C76    C661    1.426   .     S
C77    H116    1.074   .     S
C77    C652    1.417   1_554 S
C77    C651    1.413   1_554 S
C78    H95     1.112   .     S
C78    C79     1.529   .     S
C78    H96     1.116   .     S
C78    O704    1.413   1_554 S
C79    H97     1.112   .     S
C79    C464    1.527   1_545 S
C79    H482    1.112   1_545 S
C80    H100    1.111   .     S
C80    H99     1.110   .     S
C80    C271    1.527   .     S
C80    H293    1.111   .     S
C81    C82     1.530   .     S
C81    O120    1.423   .     S
C81    H103    1.118   .     S
C81    H102    1.112   .     S
C82    H106    1.107   .     S
C82    H105    1.109   .     S
C82    C467    1.528   1_545 S
C83    H109    1.110   .     S
C83    H107    1.111   .     S
C83    H108    1.110   .     S
C83    C274    1.528   .     S
C84    C88     1.419   .     A
C85    C89     1.395   .     A
C85    C652    1.426   1_554 S
C85    C662    1.421   1_554 S
C86    C87     1.391   .     A
C86    C661    1.421   .     S
C86    C648    1.404   .     S
C87    C88     1.386   .     A
C87    H112    1.081   .     S
C88    O120    1.394   .     S
C89    H114    1.076   .     S
C90    H93     1.083   .     S
Cu91   O126    1.938   .     S
Cu91   N118    2.023   .     S
Cu91   O124    1.944   .     S
Cu91   O119    1.950   .     S
Cu91   Cu92    2.693   .     S
Cu91   O122    1.953   .     S
Cu92   N117    2.023   .     S
Cu92   O125    1.950   .     S
Cu92   O127    1.953   .     S
Cu92   O123    1.938   .     S
Cu92   O121    1.944   .     S
H94    C451    1.086   1_545 S
H98    C271    1.112   .     S
H101   C464    1.111   1_545 S
H104   C261    1.088   .     S
H111   N182    1.029   .     S
N117   H174    1.029   .     S
N117   N182    1.298   .     S
O128   C139    1.393   .     S
O128   C654    1.413   .     S
C129   O185    1.286   .     A
C129   O183    1.292   .     A
C129   C131    1.423   .     S
C130   C132    1.484   .     S
C130   C148    1.422   .     A
C130   C138    1.392   .     A
C131   C325    1.325   .     S
C131   H350    1.086   .     S
C132   O187    1.289   .     A
C132   O186    1.318   .     A
C133   C134    1.423   .     S
C133   C515    1.325   1_545 S
C133   H552    1.088   1_545 S
C134   O188    1.285   .     A
C134   O189    1.293   .     A
C135   O190    1.292   .     A
C135   O191    1.304   .     A
C135   C137    1.459   .     S
C136   C154    1.392   .     A
C136   C726    1.404   1_554 S
C136   H49     1.084   1_655 S
C137   C153    1.401   .     A
C137   C154    1.397   .     A
C138   H179    1.076   .     S
C138   C139    1.394   .     A
C139   C717    1.413   .     S
C140   C148    1.411   .     A
C140   C717    1.417   .     S
C140   C725    1.426   .     S
C141   H180    1.074   .     S
C141   C716    1.417   1_554 S
C141   C715    1.413   1_554 S
C142   H159    1.112   .     S
C142   C143    1.529   .     S
C142   H160    1.116   .     S
C142   O768    1.413   1_554 S
C143   H161    1.112   .     S
C143   C528    1.527   1_545 S
C143   H546    1.112   1_545 S
C144   H164    1.111   .     S
C144   H163    1.110   .     S
C144   C335    1.527   .     S
C144   H357    1.111   .     S
C145   C146    1.530   .     S
C145   O184    1.423   .     S
C145   H167    1.118   .     S
C145   H166    1.112   .     S
C146   H170    1.107   .     S
C146   H169    1.109   .     S
C146   C531    1.528   1_545 S
C147   H173    1.110   .     S
C147   H171    1.111   .     S
C147   H172    1.110   .     S
C147   C338    1.528   .     S
C148   C152    1.419   .     A
C149   C153    1.395   .     A
C149   C716    1.426   1_554 S
C149   C726    1.421   1_554 S
C150   C151    1.391   .     A
C150   C725    1.421   .     S
C150   C712    1.404   .     S
C151   C152    1.386   .     A
C151   H176    1.081   .     S
C152   O184    1.394   .     S
C153   H178    1.076   .     S
C154   H157    1.083   .     S
Cu155  O190    1.938   .     S
Cu155  N182    2.023   .     S
Cu155  O188    1.944   .     S
Cu155  O183    1.950   .     S
Cu155  Cu156   2.693   .     S
Cu155  O186    1.953   .     S
Cu156  N181    2.023   .     S
Cu156  O189    1.950   .     S
Cu156  O191    1.953   .     S
Cu156  O187    1.938   .     S
Cu156  O185    1.944   .     S
H158   C515    1.086   1_545 S
H162   C335    1.112   .     S
H165   C528    1.111   1_545 S
H168   C325    1.088   .     S
H175   N54     1.029   1_655 S
N181   H46     1.029   1_655 S
N181   N54     1.298   1_655 S
O192   C11     1.393   1_655 S
O192   C718    1.413   .     S
C193   O249    1.286   .     A
C193   O247    1.292   .     A
C193   C195    1.423   .     S
C194   C196    1.484   .     S
C194   C212    1.422   .     A
C194   C202    1.392   .     A
C195   C389    1.325   .     S
C195   H414    1.086   .     S
C196   O251    1.289   .     A
C196   O250    1.318   .     A
C197   C198    1.423   .     S
C198   O252    1.285   .     A
C198   O253    1.293   .     A
C199   O254    1.292   .     A
C199   O255    1.304   .     A
C199   C201    1.459   .     S
C200   C218    1.392   .     A
C200   C790    1.404   1_554 S
C200   H305    1.084   .     S
C201   C217    1.401   .     A
C201   C218    1.397   .     A
C202   H243    1.076   .     S
C202   C203    1.394   .     A
C203   C781    1.413   .     S
C203   O384    1.393   1_455 S
C204   C212    1.411   .     A
C204   C781    1.417   .     S
C204   C789    1.426   .     S
C205   H244    1.074   .     S
C205   C780    1.417   1_554 S
C205   C779    1.413   1_554 S
C206   H223    1.112   .     S
C206   C207    1.529   .     S
C206   H224    1.116   .     S
C206   O832    1.413   1_554 S
C207   H225    1.112   .     S
C208   H228    1.111   .     S
C208   H227    1.110   .     S
C208   C399    1.527   .     S
C208   H421    1.111   .     S
C209   C210    1.530   .     S
C209   O248    1.423   .     S
C209   H231    1.118   .     S
C209   H230    1.112   .     S
C210   H234    1.107   .     S
C210   H233    1.109   .     S
C211   H237    1.110   .     S
C211   H235    1.111   .     S
C211   H236    1.110   .     S
C211   C402    1.528   .     S
C212   C216    1.419   .     A
C213   C217    1.395   .     A
C213   C780    1.426   1_554 S
C213   C790    1.421   1_554 S
C214   C215    1.391   .     A
C214   C789    1.421   .     S
C214   C776    1.404   .     S
C215   C216    1.386   .     A
C215   H240    1.081   .     S
C216   O248    1.394   .     S
C217   H242    1.076   .     S
C218   H221    1.083   .     S
Cu219  O254    1.938   .     S
Cu219  N246    2.023   .     S
Cu219  O252    1.944   .     S
Cu219  O247    1.950   .     S
Cu219  Cu220   2.693   .     S
Cu219  O250    1.953   .     S
Cu220  N245    2.023   .     S
Cu220  O253    1.950   .     S
Cu220  O255    1.953   .     S
Cu220  O251    1.938   .     S
Cu220  O249    1.944   .     S
H226   C399    1.112   .     S
H232   C389    1.088   .     S
H238   N373    1.029   1_455 S
H239   N310    1.029   .     S
H241   C328    1.084   1_455 S
N245   H302    1.029   .     S
N245   N310    1.298   .     S
N246   N373    1.298   1_455 S
N246   H367    1.029   1_455 S
O256   C267    1.393   .     S
O256   C782    1.413   .     S
C257   O313    1.286   .     A
C257   O311    1.292   .     A
C257   C259    1.423   .     S
C258   C260    1.484   .     S
C258   C276    1.422   .     A
C258   C266    1.392   .     A
C259   C453    1.325   .     S
C259   H478    1.086   .     S
C260   O315    1.289   .     A
C260   O314    1.318   .     A
C261   C262    1.423   .     S
C262   O316    1.285   .     A
C262   O317    1.293   .     A
C263   O318    1.292   .     A
C263   O319    1.304   .     A
C263   C265    1.459   .     S
C264   C282    1.392   .     A
C264   C854    1.404   1_554 S
C264   H369    1.084   .     S
C265   C281    1.401   .     A
C265   C282    1.397   .     A
C266   H307    1.076   .     S
C266   C267    1.394   .     A
C267   C845    1.413   .     S
C268   C276    1.411   .     A
C268   C845    1.417   .     S
C268   C853    1.426   .     S
C269   H308    1.074   .     S
C269   C844    1.417   1_554 S
C269   C843    1.413   1_554 S
C270   H287    1.112   .     S
C270   C271    1.529   .     S
C270   H288    1.116   .     S
C270   O896    1.413   1_554 S
C271   H289    1.112   .     S
C272   H292    1.111   .     S
C272   H291    1.110   .     S
C272   C463    1.527   .     S
C272   H485    1.111   .     S
C273   C274    1.530   .     S
C273   O312    1.423   .     S
C273   H295    1.118   .     S
C273   H294    1.112   .     S
C274   H298    1.107   .     S
C274   H297    1.109   .     S
C275   H301    1.110   .     S
C275   H299    1.111   .     S
C275   H300    1.110   .     S
C275   C466    1.528   .     S
C276   C280    1.419   .     A
C277   C281    1.395   .     A
C277   C844    1.426   1_554 S
C277   C854    1.421   1_554 S
C278   C279    1.391   .     A
C278   C853    1.421   .     S
C278   C840    1.404   .     S
C279   C280    1.386   .     A
C279   H304    1.081   .     S
C280   O312    1.394   .     S
C281   H306    1.076   .     S
C282   H285    1.083   .     S
Cu283  O318    1.938   .     S
Cu283  N310    2.023   .     S
Cu283  O316    1.944   .     S
Cu283  O311    1.950   .     S
Cu283  Cu284   2.693   .     S
Cu283  O314    1.953   .     S
Cu284  N309    2.023   .     S
Cu284  O317    1.950   .     S
Cu284  O319    1.953   .     S
Cu284  O315    1.938   .     S
Cu284  O313    1.944   .     S
H290   C463    1.112   .     S
H296   C453    1.088   .     S
H303   N374    1.029   .     S
N309   H366    1.029   .     S
N309   N374    1.298   .     S
O320   C331    1.393   .     S
O320   C846    1.413   .     S
C321   O377    1.286   .     A
C321   O375    1.292   .     A
C321   C323    1.423   .     S
C322   C324    1.484   .     S
C322   C340    1.422   .     A
C322   C330    1.392   .     A
C323   C517    1.325   .     S
C323   H542    1.086   .     S
C324   O379    1.289   .     A
C324   O378    1.318   .     A
C325   C326    1.423   .     S
C326   O380    1.285   .     A
C326   O381    1.293   .     A
C327   O382    1.292   .     A
C327   O383    1.304   .     A
C327   C329    1.459   .     S
C328   C346    1.392   .     A
C328   C918    1.404   1_554 S
C328   H241    1.084   1_655 S
C329   C345    1.401   .     A
C329   C346    1.397   .     A
C330   H371    1.076   .     S
C330   C331    1.394   .     A
C331   C909    1.413   .     S
C332   C340    1.411   .     A
C332   C909    1.417   .     S
C332   C917    1.426   .     S
C333   H372    1.074   .     S
C333   C908    1.417   1_554 S
C333   C907    1.413   1_554 S
C334   H351    1.112   .     S
C334   C335    1.529   .     S
C334   H352    1.116   .     S
C334   O960    1.413   1_554 S
C335   H353    1.112   .     S
C336   H356    1.111   .     S
C336   H355    1.110   .     S
C336   C527    1.527   .     S
C336   H549    1.111   .     S
C337   C338    1.530   .     S
C337   O376    1.423   .     S
C337   H359    1.118   .     S
C337   H358    1.112   .     S
C338   H362    1.107   .     S
C338   H361    1.109   .     S
C339   H365    1.110   .     S
C339   H363    1.111   .     S
C339   H364    1.110   .     S
C339   C530    1.528   .     S
C340   C344    1.419   .     A
C341   C345    1.395   .     A
C341   C908    1.426   1_554 S
C341   C918    1.421   1_554 S
C342   C343    1.391   .     A
C342   C917    1.421   .     S
C342   C904    1.404   .     S
C343   C344    1.386   .     A
C343   H368    1.081   .     S
C344   O376    1.394   .     S
C345   H370    1.076   .     S
C346   H349    1.083   .     S
Cu347  O382    1.938   .     S
Cu347  N374    2.023   .     S
Cu347  O380    1.944   .     S
Cu347  O375    1.950   .     S
Cu347  Cu348   2.693   .     S
Cu347  O378    1.953   .     S
Cu348  N373    2.023   .     S
Cu348  O381    1.950   .     S
Cu348  O383    1.953   .     S
Cu348  O379    1.938   .     S
Cu348  O377    1.944   .     S
H354   C527    1.112   .     S
H360   C517    1.088   .     S
H367   N246    1.029   1_655 S
N373   H238    1.029   1_655 S
N373   N246    1.298   1_655 S
O384   C203    1.393   1_655 S
O384   C910    1.413   .     S
C385   O441    1.286   .     A
C385   O439    1.292   .     A
C385   C387    1.423   .     S
C386   C388    1.484   .     S
C386   C404    1.422   .     A
C386   C394    1.392   .     A
C387   C5      1.325   1_565 S
C387   H30     1.086   1_565 S
C388   O443    1.289   .     A
C388   O442    1.318   .     A
C389   C390    1.423   .     S
C390   O444    1.285   .     A
C390   O445    1.293   .     A
C391   O446    1.292   .     A
C391   O447    1.304   .     A
C391   C393    1.459   .     S
C392   C410    1.392   .     A
C392   C982    1.404   1_554 S
C392   H497    1.084   .     S
C393   C409    1.401   .     A
C393   C410    1.397   .     A
C394   H435    1.076   .     S
C394   C395    1.394   .     A
C395   C973    1.413   .     S
C395   O576    1.393   1_455 S
C396   C404    1.411   .     A
C396   C973    1.417   .     S
C396   C981    1.426   .     S
C397   H436    1.074   .     S
C397   C972    1.417   1_554 S
C397   C971    1.413   1_554 S
C398   H415    1.112   .     S
C398   C399    1.529   .     S
C398   H416    1.116   .     S
C398   O1024   1.413   1_554 S
C399   H417    1.112   .     S
C400   H420    1.111   .     S
C400   H419    1.110   .     S
C400   C15     1.527   1_565 S
C400   H37     1.111   1_565 S
C401   C402    1.530   .     S
C401   O440    1.423   .     S
C401   H423    1.118   .     S
C401   H422    1.112   .     S
C402   H426    1.107   .     S
C402   H425    1.109   .     S
C403   H429    1.110   .     S
C403   H427    1.111   .     S
C403   H428    1.110   .     S
C403   C18     1.528   1_565 S
C404   C408    1.419   .     A
C405   C409    1.395   .     A
C405   C972    1.426   1_554 S
C405   C982    1.421   1_554 S
C406   C407    1.391   .     A
C406   C981    1.421   .     S
C406   C968    1.404   .     S
C407   C408    1.386   .     A
C407   H432    1.081   .     S
C408   O440    1.394   .     S
C409   H434    1.076   .     S
C410   H413    1.083   .     S
Cu411  O446    1.938   .     S
Cu411  N438    2.023   .     S
Cu411  O444    1.944   .     S
Cu411  O439    1.950   .     S
Cu411  Cu412   2.693   .     S
Cu411  O442    1.953   .     S
Cu412  N437    2.023   .     S
Cu412  O445    1.950   .     S
Cu412  O447    1.953   .     S
Cu412  O443    1.938   .     S
Cu412  O441    1.944   .     S
H418   C15     1.112   1_565 S
H424   C5      1.088   1_565 S
H430   N565    1.029   1_455 S
H431   N502    1.029   .     S
H433   C520    1.084   1_455 S
N437   H494    1.029   .     S
N437   N502    1.298   .     S
N438   N565    1.298   1_455 S
N438   H559    1.029   1_455 S
O448   C459    1.393   .     S
O448   C974    1.413   .     S
C449   O505    1.286   .     A
C449   O503    1.292   .     A
C449   C451    1.423   .     S
C450   C452    1.484   .     S
C450   C468    1.422   .     A
C450   C458    1.392   .     A
C451   C69     1.325   1_565 S
C451   H94     1.086   1_565 S
C452   O507    1.289   .     A
C452   O506    1.318   .     A
C453   C454    1.423   .     S
C454   O508    1.285   .     A
C454   O509    1.293   .     A
C455   O510    1.292   .     A
C455   O511    1.304   .     A
C455   C457    1.459   .     S
C456   C474    1.392   .     A
C456   C1046   1.404   1_554 S
C456   H561    1.084   .     S
C457   C473    1.401   .     A
C457   C474    1.397   .     A
C458   H499    1.076   .     S
C458   C459    1.394   .     A
C459   C1037   1.413   .     S
C460   C468    1.411   .     A
C460   C1037   1.417   .     S
C460   C1045   1.426   .     S
C461   H500    1.074   .     S
C461   C1036   1.417   1_554 S
C461   C1035   1.413   1_554 S
C462   H479    1.112   .     S
C462   C463    1.529   .     S
C462   H480    1.116   .     S
C462   O1088   1.413   1_554 S
C463   H481    1.112   .     S
C464   H484    1.111   .     S
C464   H483    1.110   .     S
C464   C79     1.527   1_565 S
C464   H101    1.111   1_565 S
C465   C466    1.530   .     S
C465   O504    1.423   .     S
C465   H487    1.118   .     S
C465   H486    1.112   .     S
C466   H490    1.107   .     S
C466   H489    1.109   .     S
C467   H493    1.110   .     S
C467   H491    1.111   .     S
C467   H492    1.110   .     S
C467   C82     1.528   1_565 S
C468   C472    1.419   .     A
C469   C473    1.395   .     A
C469   C1036   1.426   1_554 S
C469   C1046   1.421   1_554 S
C470   C471    1.391   .     A
C470   C1045   1.421   .     S
C470   C1032   1.404   .     S
C471   C472    1.386   .     A
C471   H496    1.081   .     S
C472   O504    1.394   .     S
C473   H498    1.076   .     S
C474   H477    1.083   .     S
Cu475  O510    1.938   .     S
Cu475  N502    2.023   .     S
Cu475  O508    1.944   .     S
Cu475  O503    1.950   .     S
Cu475  Cu476   2.693   .     S
Cu475  O506    1.953   .     S
Cu476  N501    2.023   .     S
Cu476  O509    1.950   .     S
Cu476  O511    1.953   .     S
Cu476  O507    1.938   .     S
Cu476  O505    1.944   .     S
H482   C79     1.112   1_565 S
H488   C69     1.088   1_565 S
H495   N566    1.029   .     S
N501   H558    1.029   .     S
N501   N566    1.298   .     S
O512   C523    1.393   .     S
O512   C1038   1.413   .     S
C513   O569    1.286   .     A
C513   O567    1.292   .     A
C513   C515    1.423   .     S
C514   C516    1.484   .     S
C514   C532    1.422   .     A
C514   C522    1.392   .     A
C515   C133    1.325   1_565 S
C515   H158    1.086   1_565 S
C516   O571    1.289   .     A
C516   O570    1.318   .     A
C517   C518    1.423   .     S
C518   O572    1.285   .     A
C518   O573    1.293   .     A
C519   O574    1.292   .     A
C519   O575    1.304   .     A
C519   C521    1.459   .     S
C520   C538    1.392   .     A
C520   C1110   1.404   1_554 S
C520   H433    1.084   1_655 S
C521   C537    1.401   .     A
C521   C538    1.397   .     A
C522   H563    1.076   .     S
C522   C523    1.394   .     A
C523   C1101   1.413   .     S
C524   C532    1.411   .     A
C524   C1101   1.417   .     S
C524   C1109   1.426   .     S
C525   H564    1.074   .     S
C525   C1100   1.417   1_554 S
C525   C1099   1.413   1_554 S
C526   H543    1.112   .     S
C526   C527    1.529   .     S
C526   H544    1.116   .     S
C526   O1152   1.413   1_554 S
C527   H545    1.112   .     S
C528   H548    1.111   .     S
C528   H547    1.110   .     S
C528   C143    1.527   1_565 S
C528   H165    1.111   1_565 S
C529   C530    1.530   .     S
C529   O568    1.423   .     S
C529   H551    1.118   .     S
C529   H550    1.112   .     S
C530   H554    1.107   .     S
C530   H553    1.109   .     S
C531   H557    1.110   .     S
C531   H555    1.111   .     S
C531   H556    1.110   .     S
C531   C146    1.528   1_565 S
C532   C536    1.419   .     A
C533   C537    1.395   .     A
C533   C1100   1.426   1_554 S
C533   C1110   1.421   1_554 S
C534   C535    1.391   .     A
C534   C1109   1.421   .     S
C534   C1096   1.404   .     S
C535   C536    1.386   .     A
C535   H560    1.081   .     S
C536   O568    1.394   .     S
C537   H562    1.076   .     S
C538   H541    1.083   .     S
Cu539  O574    1.938   .     S
Cu539  N566    2.023   .     S
Cu539  O572    1.944   .     S
Cu539  O567    1.950   .     S
Cu539  Cu540   2.693   .     S
Cu539  O570    1.953   .     S
Cu540  N565    2.023   .     S
Cu540  O573    1.950   .     S
Cu540  O575    1.953   .     S
Cu540  O571    1.938   .     S
Cu540  O569    1.944   .     S
H546   C143    1.112   1_565 S
H552   C133    1.088   1_565 S
H559   N438    1.029   1_655 S
N565   H430    1.029   1_655 S
N565   N438    1.298   1_655 S
O576   C395    1.393   1_655 S
O576   C1102   1.413   .     S
C577   O633    1.286   .     A
C577   O631    1.292   .     A
C577   C579    1.423   .     S
C578   C580    1.484   .     S
C578   C596    1.422   .     A
C578   C586    1.392   .     A
C579   C773    1.325   .     S
C579   H798    1.086   .     S
C580   O635    1.289   .     A
C580   O634    1.318   .     A
C581   C582    1.423   .     S
C581   C963    1.325   1_545 S
C581   H1000   1.088   1_545 S
C582   O636    1.285   .     A
C582   O637    1.293   .     A
C583   O638    1.292   .     A
C583   O639    1.304   .     A
C583   C585    1.459   .     S
C584   C602    1.392   .     A
C584   H689    1.084   .     S
C585   C601    1.401   .     A
C585   C602    1.397   .     A
C586   H627    1.076   .     S
C586   C587    1.394   .     A
C587   C13     1.413   1_556 S
C587   O768    1.393   1_455 S
C588   C596    1.411   .     A
C588   C13     1.417   1_556 S
C588   C21     1.426   1_556 S
C589   H628    1.074   .     S
C590   H607    1.112   .     S
C590   C591    1.529   .     S
C590   H608    1.116   .     S
C591   H609    1.112   .     S
C591   C976    1.527   1_545 S
C591   H994    1.112   1_545 S
C592   H612    1.111   .     S
C592   H611    1.110   .     S
C592   C783    1.527   .     S
C592   H805    1.111   .     S
C593   C594    1.530   .     S
C593   O632    1.423   .     S
C593   H615    1.118   .     S
C593   H614    1.112   .     S
C594   H618    1.107   .     S
C594   H617    1.109   .     S
C594   C979    1.528   1_545 S
C595   H621    1.110   .     S
C595   H619    1.111   .     S
C595   H620    1.110   .     S
C595   C786    1.528   .     S
C596   C600    1.419   .     A
C597   C601    1.395   .     A
C598   C599    1.391   .     A
C598   C21     1.421   1_556 S
C598   C8      1.404   1_556 S
C599   C600    1.386   .     A
C599   H624    1.081   .     S
C600   O632    1.394   .     S
C601   H626    1.076   .     S
C602   H605    1.083   .     S
Cu603  O638    1.938   .     S
Cu603  N630    2.023   .     S
Cu603  O636    1.944   .     S
Cu603  O631    1.950   .     S
Cu603  Cu604   2.693   .     S
Cu603  O634    1.953   .     S
Cu604  N629    2.023   .     S
Cu604  O637    1.950   .     S
Cu604  O639    1.953   .     S
Cu604  O635    1.938   .     S
Cu604  O633    1.944   .     S
H606   C963    1.086   1_545 S
H610   C783    1.112   .     S
H613   C976    1.111   1_545 S
H616   C773    1.088   .     S
H622   N757    1.029   1_455 S
H623   N694    1.029   .     S
H625   C712    1.084   1_455 S
N629   H686    1.029   .     S
N629   N694    1.298   .     S
N630   N757    1.298   1_455 S
N630   H751    1.029   1_455 S
O640   C651    1.393   .     S
O640   C14     1.413   1_556 S
C641   O697    1.286   .     A
C641   O695    1.292   .     A
C641   C643    1.423   .     S
C642   C644    1.484   .     S
C642   C660    1.422   .     A
C642   C650    1.392   .     A
C643   C837    1.325   .     S
C643   H862    1.086   .     S
C644   O699    1.289   .     A
C644   O698    1.318   .     A
C645   C646    1.423   .     S
C645   C1027   1.325   1_545 S
C645   H1064   1.088   1_545 S
C646   O700    1.285   .     A
C646   O701    1.293   .     A
C647   O702    1.292   .     A
C647   O703    1.304   .     A
C647   C649    1.459   .     S
C648   C666    1.392   .     A
C648   H753    1.084   .     S
C649   C665    1.401   .     A
C649   C666    1.397   .     A
C650   H691    1.076   .     S
C650   C651    1.394   .     A
C651   C77     1.413   1_556 S
C652   C660    1.411   .     A
C652   C77     1.417   1_556 S
C652   C85     1.426   1_556 S
C653   H692    1.074   .     S
C654   H671    1.112   .     S
C654   C655    1.529   .     S
C654   H672    1.116   .     S
C655   H673    1.112   .     S
C655   C1040   1.527   1_545 S
C655   H1058   1.112   1_545 S
C656   H676    1.111   .     S
C656   H675    1.110   .     S
C656   C847    1.527   .     S
C656   H869    1.111   .     S
C657   C658    1.530   .     S
C657   O696    1.423   .     S
C657   H679    1.118   .     S
C657   H678    1.112   .     S
C658   H682    1.107   .     S
C658   H681    1.109   .     S
C658   C1043   1.528   1_545 S
C659   H685    1.110   .     S
C659   H683    1.111   .     S
C659   H684    1.110   .     S
C659   C850    1.528   .     S
C660   C664    1.419   .     A
C661   C665    1.395   .     A
C662   C663    1.391   .     A
C662   C85     1.421   1_556 S
C662   C72     1.404   1_556 S
C663   C664    1.386   .     A
C663   H688    1.081   .     S
C664   O696    1.394   .     S
C665   H690    1.076   .     S
C666   H669    1.083   .     S
Cu667  O702    1.938   .     S
Cu667  N694    2.023   .     S
Cu667  O700    1.944   .     S
Cu667  O695    1.950   .     S
Cu667  Cu668   2.693   .     S
Cu667  O698    1.953   .     S
Cu668  N693    2.023   .     S
Cu668  O701    1.950   .     S
Cu668  O703    1.953   .     S
Cu668  O699    1.938   .     S
Cu668  O697    1.944   .     S
H670   C1027   1.086   1_545 S
H674   C847    1.112   .     S
H677   C1040   1.111   1_545 S
H680   C837    1.088   .     S
H687   N758    1.029   .     S
N693   H750    1.029   .     S
N693   N758    1.298   .     S
O704   C715    1.393   .     S
O704   C78     1.413   1_556 S
C705   O761    1.286   .     A
C705   O759    1.292   .     A
C705   C707    1.423   .     S
C706   C708    1.484   .     S
C706   C724    1.422   .     A
C706   C714    1.392   .     A
C707   C901    1.325   .     S
C707   H926    1.086   .     S
C708   O763    1.289   .     A
C708   O762    1.318   .     A
C709   C710    1.423   .     S
C709   C1091   1.325   1_545 S
C709   H1128   1.088   1_545 S
C710   O764    1.285   .     A
C710   O765    1.293   .     A
C711   O766    1.292   .     A
C711   O767    1.304   .     A
C711   C713    1.459   .     S
C712   C730    1.392   .     A
C712   H625    1.084   1_655 S
C713   C729    1.401   .     A
C713   C730    1.397   .     A
C714   H755    1.076   .     S
C714   C715    1.394   .     A
C715   C141    1.413   1_556 S
C716   C724    1.411   .     A
C716   C141    1.417   1_556 S
C716   C149    1.426   1_556 S
C717   H756    1.074   .     S
C718   H735    1.112   .     S
C718   C719    1.529   .     S
C718   H736    1.116   .     S
C719   H737    1.112   .     S
C719   C1104   1.527   1_545 S
C719   H1122   1.112   1_545 S
C720   H740    1.111   .     S
C720   H739    1.110   .     S
C720   C911    1.527   .     S
C720   H933    1.111   .     S
C721   C722    1.530   .     S
C721   O760    1.423   .     S
C721   H743    1.118   .     S
C721   H742    1.112   .     S
C722   H746    1.107   .     S
C722   H745    1.109   .     S
C722   C1107   1.528   1_545 S
C723   H749    1.110   .     S
C723   H747    1.111   .     S
C723   H748    1.110   .     S
C723   C914    1.528   .     S
C724   C728    1.419   .     A
C725   C729    1.395   .     A
C726   C727    1.391   .     A
C726   C149    1.421   1_556 S
C726   C136    1.404   1_556 S
C727   C728    1.386   .     A
C727   H752    1.081   .     S
C728   O760    1.394   .     S
C729   H754    1.076   .     S
C730   H733    1.083   .     S
Cu731  O766    1.938   .     S
Cu731  N758    2.023   .     S
Cu731  O764    1.944   .     S
Cu731  O759    1.950   .     S
Cu731  Cu732   2.693   .     S
Cu731  O762    1.953   .     S
Cu732  N757    2.023   .     S
Cu732  O765    1.950   .     S
Cu732  O767    1.953   .     S
Cu732  O763    1.938   .     S
Cu732  O761    1.944   .     S
H734   C1091   1.086   1_545 S
H738   C911    1.112   .     S
H741   C1104   1.111   1_545 S
H744   C901    1.088   .     S
H751   N630    1.029   1_655 S
N757   H622    1.029   1_655 S
N757   N630    1.298   1_655 S
O768   C587    1.393   1_655 S
O768   C142    1.413   1_556 S
C769   O825    1.286   .     A
C769   O823    1.292   .     A
C769   C771    1.423   .     S
C770   C772    1.484   .     S
C770   C788    1.422   .     A
C770   C778    1.392   .     A
C771   C965    1.325   .     S
C771   H990    1.086   .     S
C772   O827    1.289   .     A
C772   O826    1.318   .     A
C773   C774    1.423   .     S
C774   O828    1.285   .     A
C774   O829    1.293   .     A
C775   O830    1.292   .     A
C775   O831    1.304   .     A
C775   C777    1.459   .     S
C776   C794    1.392   .     A
C776   H881    1.084   .     S
C777   C793    1.401   .     A
C777   C794    1.397   .     A
C778   H819    1.076   .     S
C778   C779    1.394   .     A
C779   C205    1.413   1_556 S
C779   O960    1.393   1_455 S
C780   C788    1.411   .     A
C780   C205    1.417   1_556 S
C780   C213    1.426   1_556 S
C781   H820    1.074   .     S
C782   H799    1.112   .     S
C782   C783    1.529   .     S
C782   H800    1.116   .     S
C783   H801    1.112   .     S
C784   H804    1.111   .     S
C784   H803    1.110   .     S
C784   C975    1.527   .     S
C784   H997    1.111   .     S
C785   C786    1.530   .     S
C785   O824    1.423   .     S
C785   H807    1.118   .     S
C785   H806    1.112   .     S
C786   H810    1.107   .     S
C786   H809    1.109   .     S
C787   H813    1.110   .     S
C787   H811    1.111   .     S
C787   H812    1.110   .     S
C787   C978    1.528   .     S
C788   C792    1.419   .     A
C789   C793    1.395   .     A
C790   C791    1.391   .     A
C790   C213    1.421   1_556 S
C790   C200    1.404   1_556 S
C791   C792    1.386   .     A
C791   H816    1.081   .     S
C792   O824    1.394   .     S
C793   H818    1.076   .     S
C794   H797    1.083   .     S
Cu795  O830    1.938   .     S
Cu795  N822    2.023   .     S
Cu795  O828    1.944   .     S
Cu795  O823    1.950   .     S
Cu795  Cu796   2.693   .     S
Cu795  O826    1.953   .     S
Cu796  N821    2.023   .     S
Cu796  O829    1.950   .     S
Cu796  O831    1.953   .     S
Cu796  O827    1.938   .     S
Cu796  O825    1.944   .     S
H802   C975    1.112   .     S
H808   C965    1.088   .     S
H814   N949    1.029   1_455 S
H815   N886    1.029   .     S
H817   C904    1.084   1_455 S
N821   H878    1.029   .     S
N821   N886    1.298   .     S
N822   N949    1.298   1_455 S
N822   H943    1.029   1_455 S
O832   C843    1.393   .     S
O832   C206    1.413   1_556 S
C833   O889    1.286   .     A
C833   O887    1.292   .     A
C833   C835    1.423   .     S
C834   C836    1.484   .     S
C834   C852    1.422   .     A
C834   C842    1.392   .     A
C835   C1029   1.325   .     S
C835   H1054   1.086   .     S
C836   O891    1.289   .     A
C836   O890    1.318   .     A
C837   C838    1.423   .     S
C838   O892    1.285   .     A
C838   O893    1.293   .     A
C839   O894    1.292   .     A
C839   O895    1.304   .     A
C839   C841    1.459   .     S
C840   C858    1.392   .     A
C840   H945    1.084   .     S
C841   C857    1.401   .     A
C841   C858    1.397   .     A
C842   H883    1.076   .     S
C842   C843    1.394   .     A
C843   C269    1.413   1_556 S
C844   C852    1.411   .     A
C844   C269    1.417   1_556 S
C844   C277    1.426   1_556 S
C845   H884    1.074   .     S
C846   H863    1.112   .     S
C846   C847    1.529   .     S
C846   H864    1.116   .     S
C847   H865    1.112   .     S
C848   H868    1.111   .     S
C848   H867    1.110   .     S
C848   C1039   1.527   .     S
C848   H1061   1.111   .     S
C849   C850    1.530   .     S
C849   O888    1.423   .     S
C849   H871    1.118   .     S
C849   H870    1.112   .     S
C850   H874    1.107   .     S
C850   H873    1.109   .     S
C851   H877    1.110   .     S
C851   H875    1.111   .     S
C851   H876    1.110   .     S
C851   C1042   1.528   .     S
C852   C856    1.419   .     A
C853   C857    1.395   .     A
C854   C855    1.391   .     A
C854   C277    1.421   1_556 S
C854   C264    1.404   1_556 S
C855   C856    1.386   .     A
C855   H880    1.081   .     S
C856   O888    1.394   .     S
C857   H882    1.076   .     S
C858   H861    1.083   .     S
Cu859  O894    1.938   .     S
Cu859  N886    2.023   .     S
Cu859  O892    1.944   .     S
Cu859  O887    1.950   .     S
Cu859  Cu860   2.693   .     S
Cu859  O890    1.953   .     S
Cu860  N885    2.023   .     S
Cu860  O893    1.950   .     S
Cu860  O895    1.953   .     S
Cu860  O891    1.938   .     S
Cu860  O889    1.944   .     S
H866   C1039   1.112   .     S
H872   C1029   1.088   .     S
H879   N950    1.029   .     S
N885   H942    1.029   .     S
N885   N950    1.298   .     S
O896   C907    1.393   .     S
O896   C270    1.413   1_556 S
C897   O953    1.286   .     A
C897   O951    1.292   .     A
C897   C899    1.423   .     S
C898   C900    1.484   .     S
C898   C916    1.422   .     A
C898   C906    1.392   .     A
C899   C1093   1.325   .     S
C899   H1118   1.086   .     S
C900   O955    1.289   .     A
C900   O954    1.318   .     A
C901   C902    1.423   .     S
C902   O956    1.285   .     A
C902   O957    1.293   .     A
C903   O958    1.292   .     A
C903   O959    1.304   .     A
C903   C905    1.459   .     S
C904   C922    1.392   .     A
C904   H817    1.084   1_655 S
C905   C921    1.401   .     A
C905   C922    1.397   .     A
C906   H947    1.076   .     S
C906   C907    1.394   .     A
C907   C333    1.413   1_556 S
C908   C916    1.411   .     A
C908   C333    1.417   1_556 S
C908   C341    1.426   1_556 S
C909   H948    1.074   .     S
C910   H927    1.112   .     S
C910   C911    1.529   .     S
C910   H928    1.116   .     S
C911   H929    1.112   .     S
C912   H932    1.111   .     S
C912   H931    1.110   .     S
C912   C1103   1.527   .     S
C912   H1125   1.111   .     S
C913   C914    1.530   .     S
C913   O952    1.423   .     S
C913   H935    1.118   .     S
C913   H934    1.112   .     S
C914   H938    1.107   .     S
C914   H937    1.109   .     S
C915   H941    1.110   .     S
C915   H939    1.111   .     S
C915   H940    1.110   .     S
C915   C1106   1.528   .     S
C916   C920    1.419   .     A
C917   C921    1.395   .     A
C918   C919    1.391   .     A
C918   C341    1.421   1_556 S
C918   C328    1.404   1_556 S
C919   C920    1.386   .     A
C919   H944    1.081   .     S
C920   O952    1.394   .     S
C921   H946    1.076   .     S
C922   H925    1.083   .     S
Cu923  O958    1.938   .     S
Cu923  N950    2.023   .     S
Cu923  O956    1.944   .     S
Cu923  O951    1.950   .     S
Cu923  Cu924   2.693   .     S
Cu923  O954    1.953   .     S
Cu924  N949    2.023   .     S
Cu924  O957    1.950   .     S
Cu924  O959    1.953   .     S
Cu924  O955    1.938   .     S
Cu924  O953    1.944   .     S
H930   C1103   1.112   .     S
H936   C1093   1.088   .     S
H943   N822    1.029   1_655 S
N949   H814    1.029   1_655 S
N949   N822    1.298   1_655 S
O960   C779    1.393   1_655 S
O960   C334    1.413   1_556 S
C961   O1017   1.286   .     A
C961   O1015   1.292   .     A
C961   C963    1.423   .     S
C962   C964    1.484   .     S
C962   C980    1.422   .     A
C962   C970    1.392   .     A
C963   C581    1.325   1_565 S
C963   H606    1.086   1_565 S
C964   O1019   1.289   .     A
C964   O1018   1.318   .     A
C965   C966    1.423   .     S
C966   O1020   1.285   .     A
C966   O1021   1.293   .     A
C967   O1022   1.292   .     A
C967   O1023   1.304   .     A
C967   C969    1.459   .     S
C968   C986    1.392   .     A
C968   H1073   1.084   .     S
C969   C985    1.401   .     A
C969   C986    1.397   .     A
C970   H1011   1.076   .     S
C970   C971    1.394   .     A
C971   C397    1.413   1_556 S
C971   O1152   1.393   1_455 S
C972   C980    1.411   .     A
C972   C397    1.417   1_556 S
C972   C405    1.426   1_556 S
C973   H1012   1.074   .     S
C974   H991    1.112   .     S
C974   C975    1.529   .     S
C974   H992    1.116   .     S
C975   H993    1.112   .     S
C976   H996    1.111   .     S
C976   H995    1.110   .     S
C976   C591    1.527   1_565 S
C976   H613    1.111   1_565 S
C977   C978    1.530   .     S
C977   O1016   1.423   .     S
C977   H999    1.118   .     S
C977   H998    1.112   .     S
C978   H1002   1.107   .     S
C978   H1001   1.109   .     S
C979   H1005   1.110   .     S
C979   H1003   1.111   .     S
C979   H1004   1.110   .     S
C979   C594    1.528   1_565 S
C980   C984    1.419   .     A
C981   C985    1.395   .     A
C982   C983    1.391   .     A
C982   C405    1.421   1_556 S
C982   C392    1.404   1_556 S
C983   C984    1.386   .     A
C983   H1008   1.081   .     S
C984   O1016   1.394   .     S
C985   H1010   1.076   .     S
C986   H989    1.083   .     S
Cu987  O1022   1.938   .     S
Cu987  N1014   2.023   .     S
Cu987  O1020   1.944   .     S
Cu987  O1015   1.950   .     S
Cu987  Cu988   2.693   .     S
Cu987  O1018   1.953   .     S
Cu988  N1013   2.023   .     S
Cu988  O1021   1.950   .     S
Cu988  O1023   1.953   .     S
Cu988  O1019   1.938   .     S
Cu988  O1017   1.944   .     S
H994   C591    1.112   1_565 S
H1000  C581    1.088   1_565 S
H1006  N1141   1.029   1_455 S
H1007  N1078   1.029   .     S
H1009  C1096   1.084   1_455 S
N1013  H1070   1.029   .     S
N1013  N1078   1.298   .     S
N1014  N1141   1.298   1_455 S
N1014  H1135   1.029   1_455 S
O1024  C1035   1.393   .     S
O1024  C398    1.413   1_556 S
C1025  O1081   1.286   .     A
C1025  O1079   1.292   .     A
C1025  C1027   1.423   .     S
C1026  C1028   1.484   .     S
C1026  C1044   1.422   .     A
C1026  C1034   1.392   .     A
C1027  C645    1.325   1_565 S
C1027  H670    1.086   1_565 S
C1028  O1083   1.289   .     A
C1028  O1082   1.318   .     A
C1029  C1030   1.423   .     S
C1030  O1084   1.285   .     A
C1030  O1085   1.293   .     A
C1031  O1086   1.292   .     A
C1031  O1087   1.304   .     A
C1031  C1033   1.459   .     S
C1032  C1050   1.392   .     A
C1032  H1137   1.084   .     S
C1033  C1049   1.401   .     A
C1033  C1050   1.397   .     A
C1034  H1075   1.076   .     S
C1034  C1035   1.394   .     A
C1035  C461    1.413   1_556 S
C1036  C1044   1.411   .     A
C1036  C461    1.417   1_556 S
C1036  C469    1.426   1_556 S
C1037  H1076   1.074   .     S
C1038  H1055   1.112   .     S
C1038  C1039   1.529   .     S
C1038  H1056   1.116   .     S
C1039  H1057   1.112   .     S
C1040  H1060   1.111   .     S
C1040  H1059   1.110   .     S
C1040  C655    1.527   1_565 S
C1040  H677    1.111   1_565 S
C1041  C1042   1.530   .     S
C1041  O1080   1.423   .     S
C1041  H1063   1.118   .     S
C1041  H1062   1.112   .     S
C1042  H1066   1.107   .     S
C1042  H1065   1.109   .     S
C1043  H1069   1.110   .     S
C1043  H1067   1.111   .     S
C1043  H1068   1.110   .     S
C1043  C658    1.528   1_565 S
C1044  C1048   1.419   .     A
C1045  C1049   1.395   .     A
C1046  C1047   1.391   .     A
C1046  C469    1.421   1_556 S
C1046  C456    1.404   1_556 S
C1047  C1048   1.386   .     A
C1047  H1072   1.081   .     S
C1048  O1080   1.394   .     S
C1049  H1074   1.076   .     S
C1050  H1053   1.083   .     S
Cu1051 O1086   1.938   .     S
Cu1051 N1078   2.023   .     S
Cu1051 O1084   1.944   .     S
Cu1051 O1079   1.950   .     S
Cu1051 Cu1052  2.693   .     S
Cu1051 O1082   1.953   .     S
Cu1052 N1077   2.023   .     S
Cu1052 O1085   1.950   .     S
Cu1052 O1087   1.953   .     S
Cu1052 O1083   1.938   .     S
Cu1052 O1081   1.944   .     S
H1058  C655    1.112   1_565 S
H1064  C645    1.088   1_565 S
H1071  N1142   1.029   .     S
N1077  H1134   1.029   .     S
N1077  N1142   1.298   .     S
O1088  C1099   1.393   .     S
O1088  C462    1.413   1_556 S
C1089  O1145   1.286   .     A
C1089  O1143   1.292   .     A
C1089  C1091   1.423   .     S
C1090  C1092   1.484   .     S
C1090  C1108   1.422   .     A
C1090  C1098   1.392   .     A
C1091  C709    1.325   1_565 S
C1091  H734    1.086   1_565 S
C1092  O1147   1.289   .     A
C1092  O1146   1.318   .     A
C1093  C1094   1.423   .     S
C1094  O1148   1.285   .     A
C1094  O1149   1.293   .     A
C1095  O1150   1.292   .     A
C1095  O1151   1.304   .     A
C1095  C1097   1.459   .     S
C1096  C1114   1.392   .     A
C1096  H1009   1.084   1_655 S
C1097  C1113   1.401   .     A
C1097  C1114   1.397   .     A
C1098  H1139   1.076   .     S
C1098  C1099   1.394   .     A
C1099  C525    1.413   1_556 S
C1100  C1108   1.411   .     A
C1100  C525    1.417   1_556 S
C1100  C533    1.426   1_556 S
C1101  H1140   1.074   .     S
C1102  H1119   1.112   .     S
C1102  C1103   1.529   .     S
C1102  H1120   1.116   .     S
C1103  H1121   1.112   .     S
C1104  H1124   1.111   .     S
C1104  H1123   1.110   .     S
C1104  C719    1.527   1_565 S
C1104  H741    1.111   1_565 S
C1105  C1106   1.530   .     S
C1105  O1144   1.423   .     S
C1105  H1127   1.118   .     S
C1105  H1126   1.112   .     S
C1106  H1130   1.107   .     S
C1106  H1129   1.109   .     S
C1107  H1133   1.110   .     S
C1107  H1131   1.111   .     S
C1107  H1132   1.110   .     S
C1107  C722    1.528   1_565 S
C1108  C1112   1.419   .     A
C1109  C1113   1.395   .     A
C1110  C1111   1.391   .     A
C1110  C533    1.421   1_556 S
C1110  C520    1.404   1_556 S
C1111  C1112   1.386   .     A
C1111  H1136   1.081   .     S
C1112  O1144   1.394   .     S
C1113  H1138   1.076   .     S
C1114  H1117   1.083   .     S
Cu1115 O1150   1.938   .     S
Cu1115 N1142   2.023   .     S
Cu1115 O1148   1.944   .     S
Cu1115 O1143   1.950   .     S
Cu1115 Cu1116  2.693   .     S
Cu1115 O1146   1.953   .     S
Cu1116 N1141   2.023   .     S
Cu1116 O1149   1.950   .     S
Cu1116 O1151   1.953   .     S
Cu1116 O1147   1.938   .     S
Cu1116 O1145   1.944   .     S
H1122  C719    1.112   1_565 S
H1128  C709    1.088   1_565 S
H1135  N1014   1.029   1_655 S
N1141  H1006   1.029   1_655 S
N1141  N1014   1.298   1_655 S
O1152  C971    1.393   1_655 S
O1152  C526    1.413   1_556 S
