data_str_m2_o10_o18_pcu_sym.100
_audit_creation_date              2020-01-03
_audit_creation_method            'Materials Studio'
_symmetry_space_group_name_H-M    'P1'
_symmetry_Int_Tables_number       1
_symmetry_cell_setting            triclinic
loop_
_symmetry_equiv_pos_as_xyz
  x,y,z
_cell_length_a                    22.6904
_cell_length_b                    26.0231
_cell_length_c                    31.6070
_cell_angle_alpha                 95.4912
_cell_angle_beta                  76.6402
_cell_angle_gamma                 102.9529
loop_
_atom_site_label
_atom_site_type_symbol
_atom_site_fract_x
_atom_site_fract_y
_atom_site_fract_z
_atom_site_U_iso_or_equiv
_atom_site_adp_type
_atom_site_occupancy
C1     C     0.18096   0.26652   0.25236   0.00000  Uiso   1.00
C2     C     0.15213   0.06678   0.24795   0.00000  Uiso   1.00
C3     C     0.10947   0.08867   0.02492   0.00000  Uiso   1.00
C4     C     0.21855   0.19800   0.46325   0.00000  Uiso   1.00
C5     C     0.06393   0.07538   0.00043   0.00000  Uiso   1.00
C6     C     0.26095   0.21634   0.48903   0.00000  Uiso   1.00
C7     C     0.18642   0.32242   0.25677   0.00000  Uiso   1.00
C8     C     0.14586   0.01079   0.24421   0.00000  Uiso   1.00
C9     C     0.12842   0.15540   0.33153   0.00000  Uiso   1.00
C10    C     0.20423   0.16979   0.16696   0.00000  Uiso   1.00
C11    C     0.10565   0.13518   0.37605   0.00000  Uiso   1.00
C12    C     0.22543   0.17263   0.11880   0.00000  Uiso   1.00
C13    C     0.03198   0.08201   0.43252   0.00000  Uiso   1.00
C14    C     0.29354   0.21898   0.05698   0.00000  Uiso   1.00
C15    C     0.04881   0.09842   0.38926   0.00000  Uiso   1.00
C16    C     0.28081   0.20774   0.10074   0.00000  Uiso   1.00
C17    C     0.14961   0.13990   0.40165   0.00000  Uiso   1.00
C18    C     0.18546   0.14546   0.09131   0.00000  Uiso   1.00
C19    C     0.12891   0.13492   0.44660   0.00000  Uiso   1.00
C20    C     0.19802   0.15704   0.04623   0.00000  Uiso   1.00
C21    C     0.07266   0.09925   0.46103   0.00000  Uiso   1.00
C22    C     0.25145   0.19685   0.03050   0.00000  Uiso   1.00
C23    C     0.16852   0.15586   0.47554   0.00000  Uiso   1.00
C24    C     0.15815   0.13384   0.01662   0.00000  Uiso   1.00
Cu25   Cu    0.10737   0.16108   0.24517   0.00000  Uiso   1.00
Cu26   Cu    0.22596   0.17225   0.25484   0.00000  Uiso   1.00
H27    H     0.10640   0.06099   0.04884   0.00000  Uiso   1.00
H28    H     0.22603   0.21648   0.43261   0.00000  Uiso   1.00
H29    H     0.22296   0.01236   0.27159   0.00000  Uiso   1.00
H30    H     0.10873   0.32085   0.22981   0.00000  Uiso   1.00
N31    N     0.31506   0.18068   0.26212   0.00000  Uiso   1.00
N32    N     0.01827   0.15265   0.23788   0.00000  Uiso   1.00
O33    O     0.12815   0.23809   0.24686   0.00000  Uiso   1.00
O34    O     0.20518   0.09524   0.25314   0.00000  Uiso   1.00
O35    O     0.22829   0.24753   0.25503   0.00000  Uiso   1.00
O36    O     0.10504   0.08580   0.24498   0.00000  Uiso   1.00
O37    O     0.08851   0.15930   0.30855   0.00000  Uiso   1.00
O38    O     0.24482   0.17403   0.19146   0.00000  Uiso   1.00
O39    O     0.18866   0.16874   0.31671   0.00000  Uiso   1.00
O40    O     0.14468   0.16460   0.18329   0.00000  Uiso   1.00
F41    F     0.01536   0.03477   0.01297   0.00000  Uiso   1.00
F42    F     0.30986   0.25556   0.47371   0.00000  Uiso   1.00
C43    C     0.12800   0.10941   0.11218   0.00000  Uiso   1.00
O44    O     0.07780   0.12029   0.11392   0.00000  Uiso   1.00
O45    O     0.13162   0.06435   0.13144   0.00000  Uiso   1.00
H46    H     0.08937   0.04352   0.14555   0.00000  Uiso   1.00
C47    C     0.20174   0.11320   0.38244   0.00000  Uiso   1.00
O48    O     0.25133   0.12703   0.39334   0.00000  Uiso   1.00
O49    O     0.19119   0.06890   0.35417   0.00000  Uiso   1.00
H50    H     0.22448   0.04754   0.34868   0.00000  Uiso   1.00
C51    C     0.32325   0.23850   0.12762   0.00000  Uiso   1.00
O52    O     0.32639   0.28602   0.13409   0.00000  Uiso   1.00
O53    O     0.02750   0.21358   0.14438   0.00000  Uiso   1.00
H54    H     0.05458   0.23882   0.16204   0.00000  Uiso   1.00
C55    C     0.01607   0.06548   0.35694   0.00000  Uiso   1.00
O56    O     0.33326   0.08573   0.32955   0.00000  Uiso   1.00
O57    O     0.00321   0.01040   0.35729   0.00000  Uiso   1.00
H58    H     0.02315   0.33000   0.37820   0.00000  Uiso   1.00
F59    F     0.31100   0.04712   0.44571   0.00000  Uiso   1.00
F60    F     0.01322   0.25406   0.04087   0.00000  Uiso   1.00
C61    C     0.00426   0.22067   0.29133   0.00000  Uiso   1.00
O62    O     0.01932   0.26644   0.28071   0.00000  Uiso   1.00
O63    O     0.33224   0.20894   0.33441   0.00000  Uiso   1.00
H64    H     0.01517   0.24067   0.35274   0.00000  Uiso   1.00
C65    C     0.32615   0.10560   0.21616   0.00000  Uiso   1.00
O66    O     0.31135   0.10719   0.18170   0.00000  Uiso   1.00
O67    O     0.32534   0.05692   0.23156   0.00000  Uiso   1.00
H68    H     0.31245   0.02625   0.21101   0.00000  Uiso   1.00
C69    C     0.51429   0.26652   0.25236   0.00000  Uiso   1.00
C70    C     0.48547   0.06678   0.24795   0.00000  Uiso   1.00
C71    C     0.44281   0.08867   0.02492   0.00000  Uiso   1.00
C72    C     0.55188   0.19800   0.46325   0.00000  Uiso   1.00
C73    C     0.39726   0.07538   0.00043   0.00000  Uiso   1.00
C74    C     0.59428   0.21634   0.48903   0.00000  Uiso   1.00
C75    C     0.51975   0.32242   0.25677   0.00000  Uiso   1.00
C76    C     0.47919   0.01079   0.24421   0.00000  Uiso   1.00
C77    C     0.46176   0.15540   0.33153   0.00000  Uiso   1.00
C78    C     0.53756   0.16979   0.16696   0.00000  Uiso   1.00
C79    C     0.43898   0.13518   0.37605   0.00000  Uiso   1.00
C80    C     0.55876   0.17263   0.11880   0.00000  Uiso   1.00
C81    C     0.36531   0.08201   0.43252   0.00000  Uiso   1.00
C82    C     0.62687   0.21898   0.05698   0.00000  Uiso   1.00
C83    C     0.38215   0.09842   0.38926   0.00000  Uiso   1.00
C84    C     0.61414   0.20774   0.10074   0.00000  Uiso   1.00
C85    C     0.48295   0.13990   0.40165   0.00000  Uiso   1.00
C86    C     0.51879   0.14546   0.09131   0.00000  Uiso   1.00
C87    C     0.46224   0.13492   0.44660   0.00000  Uiso   1.00
C88    C     0.53135   0.15704   0.04623   0.00000  Uiso   1.00
C89    C     0.40600   0.09925   0.46103   0.00000  Uiso   1.00
C90    C     0.58478   0.19685   0.03050   0.00000  Uiso   1.00
C91    C     0.50185   0.15586   0.47554   0.00000  Uiso   1.00
C92    C     0.49148   0.13384   0.01662   0.00000  Uiso   1.00
Cu93   Cu    0.44071   0.16108   0.24517   0.00000  Uiso   1.00
Cu94   Cu    0.55929   0.17225   0.25484   0.00000  Uiso   1.00
H95    H     0.43974   0.06099   0.04884   0.00000  Uiso   1.00
H96    H     0.55936   0.21648   0.43261   0.00000  Uiso   1.00
H97    H     0.55629   0.01236   0.27159   0.00000  Uiso   1.00
H98    H     0.44207   0.32085   0.22981   0.00000  Uiso   1.00
N99    N     0.64839   0.18068   0.26212   0.00000  Uiso   1.00
N100   N     0.35161   0.15265   0.23788   0.00000  Uiso   1.00
O101   O     0.46148   0.23809   0.24686   0.00000  Uiso   1.00
O102   O     0.53852   0.09524   0.25314   0.00000  Uiso   1.00
O103   O     0.56163   0.24753   0.25503   0.00000  Uiso   1.00
O104   O     0.43837   0.08580   0.24498   0.00000  Uiso   1.00
O105   O     0.42185   0.15930   0.30855   0.00000  Uiso   1.00
O106   O     0.57815   0.17403   0.19146   0.00000  Uiso   1.00
O107   O     0.52199   0.16874   0.31671   0.00000  Uiso   1.00
O108   O     0.47801   0.16460   0.18329   0.00000  Uiso   1.00
F109   F     0.34870   0.03477   0.01297   0.00000  Uiso   1.00
F110   F     0.64320   0.25556   0.47371   0.00000  Uiso   1.00
C111   C     0.46134   0.10941   0.11218   0.00000  Uiso   1.00
O112   O     0.41114   0.12029   0.11392   0.00000  Uiso   1.00
O113   O     0.46495   0.06435   0.13144   0.00000  Uiso   1.00
H114   H     0.42270   0.04352   0.14555   0.00000  Uiso   1.00
C115   C     0.53507   0.11320   0.38244   0.00000  Uiso   1.00
O116   O     0.58466   0.12703   0.39334   0.00000  Uiso   1.00
O117   O     0.52452   0.06890   0.35417   0.00000  Uiso   1.00
H118   H     0.55781   0.04754   0.34868   0.00000  Uiso   1.00
C119   C     0.65658   0.23850   0.12762   0.00000  Uiso   1.00
O120   O     0.65972   0.28602   0.13409   0.00000  Uiso   1.00
O121   O     0.36083   0.21358   0.14438   0.00000  Uiso   1.00
H122   H     0.38791   0.23882   0.16204   0.00000  Uiso   1.00
C123   C     0.34940   0.06548   0.35694   0.00000  Uiso   1.00
O124   O     0.66660   0.08573   0.32955   0.00000  Uiso   1.00
O125   O     0.33654   0.01040   0.35729   0.00000  Uiso   1.00
H126   H     0.35648   0.33000   0.37820   0.00000  Uiso   1.00
F127   F     0.64433   0.04712   0.44571   0.00000  Uiso   1.00
F128   F     0.34655   0.25406   0.04087   0.00000  Uiso   1.00
C129   C     0.33759   0.22067   0.29133   0.00000  Uiso   1.00
O130   O     0.35265   0.26644   0.28071   0.00000  Uiso   1.00
O131   O     0.66557   0.20894   0.33441   0.00000  Uiso   1.00
H132   H     0.34850   0.24067   0.35274   0.00000  Uiso   1.00
C133   C     0.65949   0.10560   0.21616   0.00000  Uiso   1.00
O134   O     0.64468   0.10719   0.18170   0.00000  Uiso   1.00
O135   O     0.65867   0.05692   0.23156   0.00000  Uiso   1.00
H136   H     0.64578   0.02625   0.21101   0.00000  Uiso   1.00
C137   C     0.84762   0.26652   0.25236   0.00000  Uiso   1.00
C138   C     0.81880   0.06678   0.24795   0.00000  Uiso   1.00
C139   C     0.77614   0.08867   0.02492   0.00000  Uiso   1.00
C140   C     0.88522   0.19800   0.46325   0.00000  Uiso   1.00
C141   C     0.73059   0.07538   0.00043   0.00000  Uiso   1.00
C142   C     0.92761   0.21634   0.48903   0.00000  Uiso   1.00
C143   C     0.85309   0.32242   0.25677   0.00000  Uiso   1.00
C144   C     0.81253   0.01079   0.24421   0.00000  Uiso   1.00
C145   C     0.79509   0.15540   0.33153   0.00000  Uiso   1.00
C146   C     0.87089   0.16979   0.16696   0.00000  Uiso   1.00
C147   C     0.77232   0.13518   0.37605   0.00000  Uiso   1.00
C148   C     0.89210   0.17263   0.11880   0.00000  Uiso   1.00
C149   C     0.69865   0.08201   0.43252   0.00000  Uiso   1.00
C150   C     0.96020   0.21898   0.05698   0.00000  Uiso   1.00
C151   C     0.71548   0.09842   0.38926   0.00000  Uiso   1.00
C152   C     0.94747   0.20774   0.10074   0.00000  Uiso   1.00
C153   C     0.81628   0.13990   0.40165   0.00000  Uiso   1.00
C154   C     0.85213   0.14546   0.09131   0.00000  Uiso   1.00
C155   C     0.79557   0.13492   0.44660   0.00000  Uiso   1.00
C156   C     0.86469   0.15704   0.04623   0.00000  Uiso   1.00
C157   C     0.73933   0.09925   0.46103   0.00000  Uiso   1.00
C158   C     0.91811   0.19685   0.03050   0.00000  Uiso   1.00
C159   C     0.83519   0.15586   0.47554   0.00000  Uiso   1.00
C160   C     0.82482   0.13384   0.01662   0.00000  Uiso   1.00
Cu161  Cu    0.77404   0.16108   0.24517   0.00000  Uiso   1.00
Cu162  Cu    0.89263   0.17225   0.25484   0.00000  Uiso   1.00
H163   H     0.77307   0.06099   0.04884   0.00000  Uiso   1.00
H164   H     0.89269   0.21648   0.43261   0.00000  Uiso   1.00
H165   H     0.88962   0.01236   0.27159   0.00000  Uiso   1.00
H166   H     0.77540   0.32085   0.22981   0.00000  Uiso   1.00
N167   N     0.98173   0.18068   0.26212   0.00000  Uiso   1.00
N168   N     0.68494   0.15265   0.23788   0.00000  Uiso   1.00
O169   O     0.79482   0.23809   0.24686   0.00000  Uiso   1.00
O170   O     0.87185   0.09524   0.25314   0.00000  Uiso   1.00
O171   O     0.89496   0.24753   0.25503   0.00000  Uiso   1.00
O172   O     0.77171   0.08580   0.24498   0.00000  Uiso   1.00
O173   O     0.75518   0.15930   0.30855   0.00000  Uiso   1.00
O174   O     0.91149   0.17403   0.19146   0.00000  Uiso   1.00
O175   O     0.85532   0.16874   0.31671   0.00000  Uiso   1.00
O176   O     0.81134   0.16460   0.18329   0.00000  Uiso   1.00
F177   F     0.68203   0.03477   0.01297   0.00000  Uiso   1.00
F178   F     0.97653   0.25556   0.47371   0.00000  Uiso   1.00
C179   C     0.79467   0.10941   0.11218   0.00000  Uiso   1.00
O180   O     0.74447   0.12029   0.11392   0.00000  Uiso   1.00
O181   O     0.79828   0.06435   0.13144   0.00000  Uiso   1.00
H182   H     0.75604   0.04352   0.14555   0.00000  Uiso   1.00
C183   C     0.86840   0.11320   0.38244   0.00000  Uiso   1.00
O184   O     0.91800   0.12703   0.39334   0.00000  Uiso   1.00
O185   O     0.85785   0.06890   0.35417   0.00000  Uiso   1.00
H186   H     0.89115   0.04754   0.34868   0.00000  Uiso   1.00
C187   C     0.98992   0.23850   0.12762   0.00000  Uiso   1.00
O188   O     0.99306   0.28602   0.13409   0.00000  Uiso   1.00
O189   O     0.69417   0.21358   0.14438   0.00000  Uiso   1.00
H190   H     0.72125   0.23882   0.16204   0.00000  Uiso   1.00
C191   C     0.68274   0.06548   0.35694   0.00000  Uiso   1.00
O192   O     0.99993   0.08573   0.32955   0.00000  Uiso   1.00
O193   O     0.66987   0.01040   0.35729   0.00000  Uiso   1.00
H194   H     0.68982   0.33000   0.37820   0.00000  Uiso   1.00
F195   F     0.97767   0.04712   0.44571   0.00000  Uiso   1.00
F196   F     0.67989   0.25406   0.04087   0.00000  Uiso   1.00
C197   C     0.67093   0.22067   0.29133   0.00000  Uiso   1.00
O198   O     0.68598   0.26644   0.28071   0.00000  Uiso   1.00
O199   O     0.99891   0.20894   0.33441   0.00000  Uiso   1.00
H200   H     0.68184   0.24067   0.35274   0.00000  Uiso   1.00
C201   C     0.99282   0.10560   0.21616   0.00000  Uiso   1.00
O202   O     0.97801   0.10719   0.18170   0.00000  Uiso   1.00
O203   O     0.99201   0.05692   0.23156   0.00000  Uiso   1.00
H204   H     0.97911   0.02625   0.21101   0.00000  Uiso   1.00
C205   C     0.18096   0.59986   0.25236   0.00000  Uiso   1.00
C206   C     0.15213   0.40011   0.24795   0.00000  Uiso   1.00
C207   C     0.10947   0.42200   0.02492   0.00000  Uiso   1.00
C208   C     0.21855   0.53134   0.46325   0.00000  Uiso   1.00
C209   C     0.06393   0.40871   0.00043   0.00000  Uiso   1.00
C210   C     0.26095   0.54968   0.48903   0.00000  Uiso   1.00
C211   C     0.18642   0.65575   0.25677   0.00000  Uiso   1.00
C212   C     0.14586   0.34412   0.24421   0.00000  Uiso   1.00
C213   C     0.12842   0.48873   0.33153   0.00000  Uiso   1.00
C214   C     0.20423   0.50312   0.16696   0.00000  Uiso   1.00
C215   C     0.10565   0.46851   0.37605   0.00000  Uiso   1.00
C216   C     0.22543   0.50596   0.11880   0.00000  Uiso   1.00
C217   C     0.03198   0.41534   0.43252   0.00000  Uiso   1.00
C218   C     0.29354   0.55231   0.05698   0.00000  Uiso   1.00
C219   C     0.04881   0.43175   0.38926   0.00000  Uiso   1.00
C220   C     0.28081   0.54107   0.10074   0.00000  Uiso   1.00
C221   C     0.14961   0.47323   0.40165   0.00000  Uiso   1.00
C222   C     0.18546   0.47879   0.09131   0.00000  Uiso   1.00
C223   C     0.12891   0.46825   0.44660   0.00000  Uiso   1.00
C224   C     0.19802   0.49038   0.04623   0.00000  Uiso   1.00
C225   C     0.07266   0.43258   0.46103   0.00000  Uiso   1.00
C226   C     0.25145   0.53019   0.03050   0.00000  Uiso   1.00
C227   C     0.16852   0.48919   0.47554   0.00000  Uiso   1.00
C228   C     0.15815   0.46718   0.01662   0.00000  Uiso   1.00
Cu229  Cu    0.10737   0.49441   0.24517   0.00000  Uiso   1.00
Cu230  Cu    0.22596   0.50559   0.25484   0.00000  Uiso   1.00
H231   H     0.10640   0.39432   0.04884   0.00000  Uiso   1.00
H232   H     0.22603   0.54982   0.43261   0.00000  Uiso   1.00
H233   H     0.22296   0.34570   0.27159   0.00000  Uiso   1.00
H234   H     0.10873   0.65418   0.22981   0.00000  Uiso   1.00
N235   N     0.31506   0.51401   0.26212   0.00000  Uiso   1.00
N236   N     0.01827   0.48599   0.23788   0.00000  Uiso   1.00
O237   O     0.12815   0.57142   0.24686   0.00000  Uiso   1.00
O238   O     0.20518   0.42858   0.25314   0.00000  Uiso   1.00
O239   O     0.22829   0.58086   0.25503   0.00000  Uiso   1.00
O240   O     0.10504   0.41914   0.24498   0.00000  Uiso   1.00
O241   O     0.08851   0.49263   0.30855   0.00000  Uiso   1.00
O242   O     0.24482   0.50737   0.19146   0.00000  Uiso   1.00
O243   O     0.18866   0.50207   0.31671   0.00000  Uiso   1.00
O244   O     0.14468   0.49793   0.18329   0.00000  Uiso   1.00
F245   F     0.01536   0.36810   0.01297   0.00000  Uiso   1.00
F246   F     0.30986   0.58889   0.47371   0.00000  Uiso   1.00
C247   C     0.12800   0.44275   0.11218   0.00000  Uiso   1.00
O248   O     0.07780   0.45362   0.11392   0.00000  Uiso   1.00
O249   O     0.13162   0.39768   0.13144   0.00000  Uiso   1.00
H250   H     0.08937   0.37685   0.14555   0.00000  Uiso   1.00
C251   C     0.20174   0.44653   0.38244   0.00000  Uiso   1.00
O252   O     0.25133   0.46036   0.39334   0.00000  Uiso   1.00
O253   O     0.19119   0.40223   0.35417   0.00000  Uiso   1.00
H254   H     0.22448   0.38087   0.34868   0.00000  Uiso   1.00
C255   C     0.32325   0.57184   0.12762   0.00000  Uiso   1.00
O256   O     0.32639   0.61935   0.13409   0.00000  Uiso   1.00
O257   O     0.02750   0.54691   0.14438   0.00000  Uiso   1.00
H258   H     0.05458   0.57215   0.16204   0.00000  Uiso   1.00
C259   C     0.01607   0.39881   0.35694   0.00000  Uiso   1.00
O260   O     0.33326   0.41906   0.32955   0.00000  Uiso   1.00
O261   O     0.00321   0.34373   0.35729   0.00000  Uiso   1.00
H262   H     0.02315   0.66333   0.37820   0.00000  Uiso   1.00
F263   F     0.31100   0.38046   0.44571   0.00000  Uiso   1.00
F264   F     0.01322   0.58740   0.04087   0.00000  Uiso   1.00
C265   C     0.00426   0.55400   0.29133   0.00000  Uiso   1.00
O266   O     0.01932   0.59977   0.28071   0.00000  Uiso   1.00
O267   O     0.33224   0.54228   0.33441   0.00000  Uiso   1.00
H268   H     0.01517   0.57400   0.35274   0.00000  Uiso   1.00
C269   C     0.32615   0.43894   0.21616   0.00000  Uiso   1.00
O270   O     0.31135   0.44052   0.18170   0.00000  Uiso   1.00
O271   O     0.32534   0.39025   0.23156   0.00000  Uiso   1.00
H272   H     0.31245   0.35958   0.21101   0.00000  Uiso   1.00
C273   C     0.51429   0.59986   0.25236   0.00000  Uiso   1.00
C274   C     0.48547   0.40011   0.24795   0.00000  Uiso   1.00
C275   C     0.44281   0.42200   0.02492   0.00000  Uiso   1.00
C276   C     0.55188   0.53134   0.46325   0.00000  Uiso   1.00
C277   C     0.39726   0.40871   0.00043   0.00000  Uiso   1.00
C278   C     0.59428   0.54968   0.48903   0.00000  Uiso   1.00
C279   C     0.51975   0.65575   0.25677   0.00000  Uiso   1.00
C280   C     0.47919   0.34412   0.24421   0.00000  Uiso   1.00
C281   C     0.46176   0.48873   0.33153   0.00000  Uiso   1.00
C282   C     0.53756   0.50312   0.16696   0.00000  Uiso   1.00
C283   C     0.43898   0.46851   0.37605   0.00000  Uiso   1.00
C284   C     0.55876   0.50596   0.11880   0.00000  Uiso   1.00
C285   C     0.36531   0.41534   0.43252   0.00000  Uiso   1.00
C286   C     0.62687   0.55231   0.05698   0.00000  Uiso   1.00
C287   C     0.38215   0.43175   0.38926   0.00000  Uiso   1.00
C288   C     0.61414   0.54107   0.10074   0.00000  Uiso   1.00
C289   C     0.48295   0.47323   0.40165   0.00000  Uiso   1.00
C290   C     0.51879   0.47879   0.09131   0.00000  Uiso   1.00
C291   C     0.46224   0.46825   0.44660   0.00000  Uiso   1.00
C292   C     0.53135   0.49038   0.04623   0.00000  Uiso   1.00
C293   C     0.40600   0.43258   0.46103   0.00000  Uiso   1.00
C294   C     0.58478   0.53019   0.03050   0.00000  Uiso   1.00
C295   C     0.50185   0.48919   0.47554   0.00000  Uiso   1.00
C296   C     0.49148   0.46718   0.01662   0.00000  Uiso   1.00
Cu297  Cu    0.44071   0.49441   0.24517   0.00000  Uiso   1.00
Cu298  Cu    0.55929   0.50559   0.25484   0.00000  Uiso   1.00
H299   H     0.43974   0.39432   0.04884   0.00000  Uiso   1.00
H300   H     0.55936   0.54982   0.43261   0.00000  Uiso   1.00
H301   H     0.55629   0.34570   0.27159   0.00000  Uiso   1.00
H302   H     0.44207   0.65418   0.22981   0.00000  Uiso   1.00
N303   N     0.64839   0.51401   0.26212   0.00000  Uiso   1.00
N304   N     0.35161   0.48599   0.23788   0.00000  Uiso   1.00
O305   O     0.46148   0.57142   0.24686   0.00000  Uiso   1.00
O306   O     0.53852   0.42858   0.25314   0.00000  Uiso   1.00
O307   O     0.56163   0.58086   0.25503   0.00000  Uiso   1.00
O308   O     0.43837   0.41914   0.24498   0.00000  Uiso   1.00
O309   O     0.42185   0.49263   0.30855   0.00000  Uiso   1.00
O310   O     0.57815   0.50737   0.19146   0.00000  Uiso   1.00
O311   O     0.52199   0.50207   0.31671   0.00000  Uiso   1.00
O312   O     0.47801   0.49793   0.18329   0.00000  Uiso   1.00
F313   F     0.34870   0.36810   0.01297   0.00000  Uiso   1.00
F314   F     0.64320   0.58889   0.47371   0.00000  Uiso   1.00
C315   C     0.46134   0.44275   0.11218   0.00000  Uiso   1.00
O316   O     0.41114   0.45362   0.11392   0.00000  Uiso   1.00
O317   O     0.46495   0.39768   0.13144   0.00000  Uiso   1.00
H318   H     0.42270   0.37685   0.14555   0.00000  Uiso   1.00
C319   C     0.53507   0.44653   0.38244   0.00000  Uiso   1.00
O320   O     0.58466   0.46036   0.39334   0.00000  Uiso   1.00
O321   O     0.52452   0.40223   0.35417   0.00000  Uiso   1.00
H322   H     0.55781   0.38087   0.34868   0.00000  Uiso   1.00
C323   C     0.65658   0.57184   0.12762   0.00000  Uiso   1.00
O324   O     0.65972   0.61935   0.13409   0.00000  Uiso   1.00
O325   O     0.36083   0.54691   0.14438   0.00000  Uiso   1.00
H326   H     0.38791   0.57215   0.16204   0.00000  Uiso   1.00
C327   C     0.34940   0.39881   0.35694   0.00000  Uiso   1.00
O328   O     0.66660   0.41906   0.32955   0.00000  Uiso   1.00
O329   O     0.33654   0.34373   0.35729   0.00000  Uiso   1.00
H330   H     0.35648   0.66333   0.37820   0.00000  Uiso   1.00
F331   F     0.64433   0.38046   0.44571   0.00000  Uiso   1.00
F332   F     0.34655   0.58740   0.04087   0.00000  Uiso   1.00
C333   C     0.33759   0.55400   0.29133   0.00000  Uiso   1.00
O334   O     0.35265   0.59977   0.28071   0.00000  Uiso   1.00
O335   O     0.66557   0.54228   0.33441   0.00000  Uiso   1.00
H336   H     0.34850   0.57400   0.35274   0.00000  Uiso   1.00
C337   C     0.65949   0.43894   0.21616   0.00000  Uiso   1.00
O338   O     0.64468   0.44052   0.18170   0.00000  Uiso   1.00
O339   O     0.65867   0.39025   0.23156   0.00000  Uiso   1.00
H340   H     0.64578   0.35958   0.21101   0.00000  Uiso   1.00
C341   C     0.84762   0.59986   0.25236   0.00000  Uiso   1.00
C342   C     0.81880   0.40011   0.24795   0.00000  Uiso   1.00
C343   C     0.77614   0.42200   0.02492   0.00000  Uiso   1.00
C344   C     0.88522   0.53134   0.46325   0.00000  Uiso   1.00
C345   C     0.73059   0.40871   0.00043   0.00000  Uiso   1.00
C346   C     0.92761   0.54968   0.48903   0.00000  Uiso   1.00
C347   C     0.85309   0.65575   0.25677   0.00000  Uiso   1.00
C348   C     0.81253   0.34412   0.24421   0.00000  Uiso   1.00
C349   C     0.79509   0.48873   0.33153   0.00000  Uiso   1.00
C350   C     0.87089   0.50312   0.16696   0.00000  Uiso   1.00
C351   C     0.77232   0.46851   0.37605   0.00000  Uiso   1.00
C352   C     0.89210   0.50596   0.11880   0.00000  Uiso   1.00
C353   C     0.69865   0.41534   0.43252   0.00000  Uiso   1.00
C354   C     0.96020   0.55231   0.05698   0.00000  Uiso   1.00
C355   C     0.71548   0.43175   0.38926   0.00000  Uiso   1.00
C356   C     0.94747   0.54107   0.10074   0.00000  Uiso   1.00
C357   C     0.81628   0.47323   0.40165   0.00000  Uiso   1.00
C358   C     0.85213   0.47879   0.09131   0.00000  Uiso   1.00
C359   C     0.79557   0.46825   0.44660   0.00000  Uiso   1.00
C360   C     0.86469   0.49038   0.04623   0.00000  Uiso   1.00
C361   C     0.73933   0.43258   0.46103   0.00000  Uiso   1.00
C362   C     0.91811   0.53019   0.03050   0.00000  Uiso   1.00
C363   C     0.83519   0.48919   0.47554   0.00000  Uiso   1.00
C364   C     0.82482   0.46718   0.01662   0.00000  Uiso   1.00
Cu365  Cu    0.77404   0.49441   0.24517   0.00000  Uiso   1.00
Cu366  Cu    0.89263   0.50559   0.25484   0.00000  Uiso   1.00
H367   H     0.77307   0.39432   0.04884   0.00000  Uiso   1.00
H368   H     0.89269   0.54982   0.43261   0.00000  Uiso   1.00
H369   H     0.88962   0.34570   0.27159   0.00000  Uiso   1.00
H370   H     0.77540   0.65418   0.22981   0.00000  Uiso   1.00
N371   N     0.98173   0.51401   0.26212   0.00000  Uiso   1.00
N372   N     0.68494   0.48599   0.23788   0.00000  Uiso   1.00
O373   O     0.79482   0.57142   0.24686   0.00000  Uiso   1.00
O374   O     0.87185   0.42858   0.25314   0.00000  Uiso   1.00
O375   O     0.89496   0.58086   0.25503   0.00000  Uiso   1.00
O376   O     0.77171   0.41914   0.24498   0.00000  Uiso   1.00
O377   O     0.75518   0.49263   0.30855   0.00000  Uiso   1.00
O378   O     0.91149   0.50737   0.19146   0.00000  Uiso   1.00
O379   O     0.85532   0.50207   0.31671   0.00000  Uiso   1.00
O380   O     0.81134   0.49793   0.18329   0.00000  Uiso   1.00
F381   F     0.68203   0.36810   0.01297   0.00000  Uiso   1.00
F382   F     0.97653   0.58889   0.47371   0.00000  Uiso   1.00
C383   C     0.79467   0.44275   0.11218   0.00000  Uiso   1.00
O384   O     0.74447   0.45362   0.11392   0.00000  Uiso   1.00
O385   O     0.79828   0.39768   0.13144   0.00000  Uiso   1.00
H386   H     0.75604   0.37685   0.14555   0.00000  Uiso   1.00
C387   C     0.86840   0.44653   0.38244   0.00000  Uiso   1.00
O388   O     0.91800   0.46036   0.39334   0.00000  Uiso   1.00
O389   O     0.85785   0.40223   0.35417   0.00000  Uiso   1.00
H390   H     0.89115   0.38087   0.34868   0.00000  Uiso   1.00
C391   C     0.98992   0.57184   0.12762   0.00000  Uiso   1.00
O392   O     0.99306   0.61935   0.13409   0.00000  Uiso   1.00
O393   O     0.69417   0.54691   0.14438   0.00000  Uiso   1.00
H394   H     0.72125   0.57215   0.16204   0.00000  Uiso   1.00
C395   C     0.68274   0.39881   0.35694   0.00000  Uiso   1.00
O396   O     0.99993   0.41906   0.32955   0.00000  Uiso   1.00
O397   O     0.66987   0.34373   0.35729   0.00000  Uiso   1.00
H398   H     0.68982   0.66333   0.37820   0.00000  Uiso   1.00
F399   F     0.97767   0.38046   0.44571   0.00000  Uiso   1.00
F400   F     0.67989   0.58740   0.04087   0.00000  Uiso   1.00
C401   C     0.67093   0.55400   0.29133   0.00000  Uiso   1.00
O402   O     0.68598   0.59977   0.28071   0.00000  Uiso   1.00
O403   O     0.99891   0.54228   0.33441   0.00000  Uiso   1.00
H404   H     0.68184   0.57400   0.35274   0.00000  Uiso   1.00
C405   C     0.99282   0.43894   0.21616   0.00000  Uiso   1.00
O406   O     0.97801   0.44052   0.18170   0.00000  Uiso   1.00
O407   O     0.99201   0.39025   0.23156   0.00000  Uiso   1.00
H408   H     0.97911   0.35958   0.21101   0.00000  Uiso   1.00
C409   C     0.18096   0.93319   0.25236   0.00000  Uiso   1.00
C410   C     0.15213   0.73344   0.24795   0.00000  Uiso   1.00
C411   C     0.10947   0.75533   0.02492   0.00000  Uiso   1.00
C412   C     0.21855   0.86467   0.46325   0.00000  Uiso   1.00
C413   C     0.06393   0.74205   0.00043   0.00000  Uiso   1.00
C414   C     0.26095   0.88301   0.48903   0.00000  Uiso   1.00
C415   C     0.18642   0.98909   0.25677   0.00000  Uiso   1.00
C416   C     0.14586   0.67746   0.24421   0.00000  Uiso   1.00
C417   C     0.12842   0.82206   0.33153   0.00000  Uiso   1.00
C418   C     0.20423   0.83646   0.16696   0.00000  Uiso   1.00
C419   C     0.10565   0.80185   0.37605   0.00000  Uiso   1.00
C420   C     0.22543   0.83930   0.11880   0.00000  Uiso   1.00
C421   C     0.03198   0.74868   0.43252   0.00000  Uiso   1.00
C422   C     0.29354   0.88565   0.05698   0.00000  Uiso   1.00
C423   C     0.04881   0.76508   0.38926   0.00000  Uiso   1.00
C424   C     0.28081   0.87440   0.10074   0.00000  Uiso   1.00
C425   C     0.14961   0.80656   0.40165   0.00000  Uiso   1.00
C426   C     0.18546   0.81212   0.09131   0.00000  Uiso   1.00
C427   C     0.12891   0.80158   0.44660   0.00000  Uiso   1.00
C428   C     0.19802   0.82371   0.04623   0.00000  Uiso   1.00
C429   C     0.07266   0.76592   0.46103   0.00000  Uiso   1.00
C430   C     0.25145   0.86352   0.03050   0.00000  Uiso   1.00
C431   C     0.16852   0.82253   0.47554   0.00000  Uiso   1.00
C432   C     0.15815   0.80051   0.01662   0.00000  Uiso   1.00
Cu433  Cu    0.10737   0.82775   0.24517   0.00000  Uiso   1.00
Cu434  Cu    0.22596   0.83892   0.25484   0.00000  Uiso   1.00
H435   H     0.10640   0.72765   0.04884   0.00000  Uiso   1.00
H436   H     0.22603   0.88315   0.43261   0.00000  Uiso   1.00
H437   H     0.22296   0.67903   0.27159   0.00000  Uiso   1.00
H438   H     0.10873   0.98751   0.22981   0.00000  Uiso   1.00
N439   N     0.31506   0.84735   0.26212   0.00000  Uiso   1.00
N440   N     0.01827   0.81932   0.23788   0.00000  Uiso   1.00
O441   O     0.12815   0.90476   0.24686   0.00000  Uiso   1.00
O442   O     0.20518   0.76191   0.25314   0.00000  Uiso   1.00
O443   O     0.22829   0.91420   0.25503   0.00000  Uiso   1.00
O444   O     0.10504   0.75247   0.24498   0.00000  Uiso   1.00
O445   O     0.08851   0.82597   0.30855   0.00000  Uiso   1.00
O446   O     0.24482   0.84070   0.19146   0.00000  Uiso   1.00
O447   O     0.18866   0.83540   0.31671   0.00000  Uiso   1.00
O448   O     0.14468   0.83126   0.18329   0.00000  Uiso   1.00
F449   F     0.01536   0.70144   0.01297   0.00000  Uiso   1.00
F450   F     0.30986   0.92222   0.47371   0.00000  Uiso   1.00
C451   C     0.12800   0.77608   0.11218   0.00000  Uiso   1.00
O452   O     0.07780   0.78696   0.11392   0.00000  Uiso   1.00
O453   O     0.13162   0.73102   0.13144   0.00000  Uiso   1.00
H454   H     0.08937   0.71018   0.14555   0.00000  Uiso   1.00
C455   C     0.20174   0.77986   0.38244   0.00000  Uiso   1.00
O456   O     0.25133   0.79369   0.39334   0.00000  Uiso   1.00
O457   O     0.19119   0.73557   0.35417   0.00000  Uiso   1.00
H458   H     0.22448   0.71421   0.34868   0.00000  Uiso   1.00
C459   C     0.32325   0.90517   0.12762   0.00000  Uiso   1.00
O460   O     0.32639   0.95269   0.13409   0.00000  Uiso   1.00
O461   O     0.02750   0.88025   0.14438   0.00000  Uiso   1.00
H462   H     0.05458   0.90549   0.16204   0.00000  Uiso   1.00
C463   C     0.01607   0.73214   0.35694   0.00000  Uiso   1.00
O464   O     0.33326   0.75239   0.32955   0.00000  Uiso   1.00
O465   O     0.00321   0.67706   0.35729   0.00000  Uiso   1.00
H466   H     0.02315   0.99666   0.37820   0.00000  Uiso   1.00
F467   F     0.31100   0.71379   0.44571   0.00000  Uiso   1.00
F468   F     0.01322   0.92073   0.04087   0.00000  Uiso   1.00
C469   C     0.00426   0.88734   0.29133   0.00000  Uiso   1.00
O470   O     0.01932   0.93311   0.28071   0.00000  Uiso   1.00
O471   O     0.33224   0.87561   0.33441   0.00000  Uiso   1.00
H472   H     0.01517   0.90734   0.35274   0.00000  Uiso   1.00
C473   C     0.32615   0.77227   0.21616   0.00000  Uiso   1.00
O474   O     0.31135   0.77386   0.18170   0.00000  Uiso   1.00
O475   O     0.32534   0.72359   0.23156   0.00000  Uiso   1.00
H476   H     0.31245   0.69291   0.21101   0.00000  Uiso   1.00
C477   C     0.51429   0.93319   0.25236   0.00000  Uiso   1.00
C478   C     0.48547   0.73344   0.24795   0.00000  Uiso   1.00
C479   C     0.44281   0.75533   0.02492   0.00000  Uiso   1.00
C480   C     0.55188   0.86467   0.46325   0.00000  Uiso   1.00
C481   C     0.39726   0.74205   0.00043   0.00000  Uiso   1.00
C482   C     0.59428   0.88301   0.48903   0.00000  Uiso   1.00
C483   C     0.51975   0.98909   0.25677   0.00000  Uiso   1.00
C484   C     0.47919   0.67746   0.24421   0.00000  Uiso   1.00
C485   C     0.46176   0.82206   0.33153   0.00000  Uiso   1.00
C486   C     0.53756   0.83646   0.16696   0.00000  Uiso   1.00
C487   C     0.43898   0.80185   0.37605   0.00000  Uiso   1.00
C488   C     0.55876   0.83930   0.11880   0.00000  Uiso   1.00
C489   C     0.36531   0.74868   0.43252   0.00000  Uiso   1.00
C490   C     0.62687   0.88565   0.05698   0.00000  Uiso   1.00
C491   C     0.38215   0.76508   0.38926   0.00000  Uiso   1.00
C492   C     0.61414   0.87440   0.10074   0.00000  Uiso   1.00
C493   C     0.48295   0.80656   0.40165   0.00000  Uiso   1.00
C494   C     0.51879   0.81212   0.09131   0.00000  Uiso   1.00
C495   C     0.46224   0.80158   0.44660   0.00000  Uiso   1.00
C496   C     0.53135   0.82371   0.04623   0.00000  Uiso   1.00
C497   C     0.40600   0.76592   0.46103   0.00000  Uiso   1.00
C498   C     0.58478   0.86352   0.03050   0.00000  Uiso   1.00
C499   C     0.50185   0.82253   0.47554   0.00000  Uiso   1.00
C500   C     0.49148   0.80051   0.01662   0.00000  Uiso   1.00
Cu501  Cu    0.44071   0.82775   0.24517   0.00000  Uiso   1.00
Cu502  Cu    0.55929   0.83892   0.25484   0.00000  Uiso   1.00
H503   H     0.43974   0.72765   0.04884   0.00000  Uiso   1.00
H504   H     0.55936   0.88315   0.43261   0.00000  Uiso   1.00
H505   H     0.55629   0.67903   0.27159   0.00000  Uiso   1.00
H506   H     0.44207   0.98751   0.22981   0.00000  Uiso   1.00
N507   N     0.64839   0.84735   0.26212   0.00000  Uiso   1.00
N508   N     0.35161   0.81932   0.23788   0.00000  Uiso   1.00
O509   O     0.46148   0.90476   0.24686   0.00000  Uiso   1.00
O510   O     0.53852   0.76191   0.25314   0.00000  Uiso   1.00
O511   O     0.56163   0.91420   0.25503   0.00000  Uiso   1.00
O512   O     0.43837   0.75247   0.24498   0.00000  Uiso   1.00
O513   O     0.42185   0.82597   0.30855   0.00000  Uiso   1.00
O514   O     0.57815   0.84070   0.19146   0.00000  Uiso   1.00
O515   O     0.52199   0.83540   0.31671   0.00000  Uiso   1.00
O516   O     0.47801   0.83126   0.18329   0.00000  Uiso   1.00
F517   F     0.34870   0.70144   0.01297   0.00000  Uiso   1.00
F518   F     0.64320   0.92222   0.47371   0.00000  Uiso   1.00
C519   C     0.46134   0.77608   0.11218   0.00000  Uiso   1.00
O520   O     0.41114   0.78696   0.11392   0.00000  Uiso   1.00
O521   O     0.46495   0.73102   0.13144   0.00000  Uiso   1.00
H522   H     0.42270   0.71018   0.14555   0.00000  Uiso   1.00
C523   C     0.53507   0.77986   0.38244   0.00000  Uiso   1.00
O524   O     0.58466   0.79369   0.39334   0.00000  Uiso   1.00
O525   O     0.52452   0.73557   0.35417   0.00000  Uiso   1.00
H526   H     0.55781   0.71421   0.34868   0.00000  Uiso   1.00
C527   C     0.65658   0.90517   0.12762   0.00000  Uiso   1.00
O528   O     0.65972   0.95269   0.13409   0.00000  Uiso   1.00
O529   O     0.36083   0.88025   0.14438   0.00000  Uiso   1.00
H530   H     0.38791   0.90549   0.16204   0.00000  Uiso   1.00
C531   C     0.34940   0.73214   0.35694   0.00000  Uiso   1.00
O532   O     0.66660   0.75239   0.32955   0.00000  Uiso   1.00
O533   O     0.33654   0.67706   0.35729   0.00000  Uiso   1.00
H534   H     0.35648   0.99666   0.37820   0.00000  Uiso   1.00
F535   F     0.64433   0.71379   0.44571   0.00000  Uiso   1.00
F536   F     0.34655   0.92073   0.04087   0.00000  Uiso   1.00
C537   C     0.33759   0.88734   0.29133   0.00000  Uiso   1.00
O538   O     0.35265   0.93311   0.28071   0.00000  Uiso   1.00
O539   O     0.66557   0.87561   0.33441   0.00000  Uiso   1.00
H540   H     0.34850   0.90734   0.35274   0.00000  Uiso   1.00
C541   C     0.65949   0.77227   0.21616   0.00000  Uiso   1.00
O542   O     0.64468   0.77386   0.18170   0.00000  Uiso   1.00
O543   O     0.65867   0.72359   0.23156   0.00000  Uiso   1.00
H544   H     0.64578   0.69291   0.21101   0.00000  Uiso   1.00
C545   C     0.84762   0.93319   0.25236   0.00000  Uiso   1.00
C546   C     0.81880   0.73344   0.24795   0.00000  Uiso   1.00
C547   C     0.77614   0.75533   0.02492   0.00000  Uiso   1.00
C548   C     0.88522   0.86467   0.46325   0.00000  Uiso   1.00
C549   C     0.73059   0.74205   0.00043   0.00000  Uiso   1.00
C550   C     0.92761   0.88301   0.48903   0.00000  Uiso   1.00
C551   C     0.85309   0.98909   0.25677   0.00000  Uiso   1.00
C552   C     0.81253   0.67746   0.24421   0.00000  Uiso   1.00
C553   C     0.79509   0.82206   0.33153   0.00000  Uiso   1.00
C554   C     0.87089   0.83646   0.16696   0.00000  Uiso   1.00
C555   C     0.77232   0.80185   0.37605   0.00000  Uiso   1.00
C556   C     0.89210   0.83930   0.11880   0.00000  Uiso   1.00
C557   C     0.69865   0.74868   0.43252   0.00000  Uiso   1.00
C558   C     0.96020   0.88565   0.05698   0.00000  Uiso   1.00
C559   C     0.71548   0.76508   0.38926   0.00000  Uiso   1.00
C560   C     0.94747   0.87440   0.10074   0.00000  Uiso   1.00
C561   C     0.81628   0.80656   0.40165   0.00000  Uiso   1.00
C562   C     0.85213   0.81212   0.09131   0.00000  Uiso   1.00
C563   C     0.79557   0.80158   0.44660   0.00000  Uiso   1.00
C564   C     0.86469   0.82371   0.04623   0.00000  Uiso   1.00
C565   C     0.73933   0.76592   0.46103   0.00000  Uiso   1.00
C566   C     0.91811   0.86352   0.03050   0.00000  Uiso   1.00
C567   C     0.83519   0.82253   0.47554   0.00000  Uiso   1.00
C568   C     0.82482   0.80051   0.01662   0.00000  Uiso   1.00
Cu569  Cu    0.77404   0.82775   0.24517   0.00000  Uiso   1.00
Cu570  Cu    0.89263   0.83892   0.25484   0.00000  Uiso   1.00
H571   H     0.77307   0.72765   0.04884   0.00000  Uiso   1.00
H572   H     0.89269   0.88315   0.43261   0.00000  Uiso   1.00
H573   H     0.88962   0.67903   0.27159   0.00000  Uiso   1.00
H574   H     0.77540   0.98751   0.22981   0.00000  Uiso   1.00
N575   N     0.98173   0.84735   0.26212   0.00000  Uiso   1.00
N576   N     0.68494   0.81932   0.23788   0.00000  Uiso   1.00
O577   O     0.79482   0.90476   0.24686   0.00000  Uiso   1.00
O578   O     0.87185   0.76191   0.25314   0.00000  Uiso   1.00
O579   O     0.89496   0.91420   0.25503   0.00000  Uiso   1.00
O580   O     0.77171   0.75247   0.24498   0.00000  Uiso   1.00
O581   O     0.75518   0.82597   0.30855   0.00000  Uiso   1.00
O582   O     0.91149   0.84070   0.19146   0.00000  Uiso   1.00
O583   O     0.85532   0.83540   0.31671   0.00000  Uiso   1.00
O584   O     0.81134   0.83126   0.18329   0.00000  Uiso   1.00
F585   F     0.68203   0.70144   0.01297   0.00000  Uiso   1.00
F586   F     0.97653   0.92222   0.47371   0.00000  Uiso   1.00
C587   C     0.79467   0.77608   0.11218   0.00000  Uiso   1.00
O588   O     0.74447   0.78696   0.11392   0.00000  Uiso   1.00
O589   O     0.79828   0.73102   0.13144   0.00000  Uiso   1.00
H590   H     0.75604   0.71018   0.14555   0.00000  Uiso   1.00
C591   C     0.86840   0.77986   0.38244   0.00000  Uiso   1.00
O592   O     0.91800   0.79369   0.39334   0.00000  Uiso   1.00
O593   O     0.85785   0.73557   0.35417   0.00000  Uiso   1.00
H594   H     0.89115   0.71421   0.34868   0.00000  Uiso   1.00
C595   C     0.98992   0.90517   0.12762   0.00000  Uiso   1.00
O596   O     0.99306   0.95269   0.13409   0.00000  Uiso   1.00
O597   O     0.69417   0.88025   0.14438   0.00000  Uiso   1.00
H598   H     0.72125   0.90549   0.16204   0.00000  Uiso   1.00
C599   C     0.68274   0.73214   0.35694   0.00000  Uiso   1.00
O600   O     0.99993   0.75239   0.32955   0.00000  Uiso   1.00
O601   O     0.66987   0.67706   0.35729   0.00000  Uiso   1.00
H602   H     0.68982   0.99666   0.37820   0.00000  Uiso   1.00
F603   F     0.97767   0.71379   0.44571   0.00000  Uiso   1.00
F604   F     0.67989   0.92073   0.04087   0.00000  Uiso   1.00
C605   C     0.67093   0.88734   0.29133   0.00000  Uiso   1.00
O606   O     0.68598   0.93311   0.28071   0.00000  Uiso   1.00
O607   O     0.99891   0.87561   0.33441   0.00000  Uiso   1.00
H608   H     0.68184   0.90734   0.35274   0.00000  Uiso   1.00
C609   C     0.99282   0.77227   0.21616   0.00000  Uiso   1.00
O610   O     0.97801   0.77386   0.18170   0.00000  Uiso   1.00
O611   O     0.99201   0.72359   0.23156   0.00000  Uiso   1.00
H612   H     0.97911   0.69291   0.21101   0.00000  Uiso   1.00
C613   C     0.18096   0.26652   0.75236   0.00000  Uiso   1.00
C614   C     0.15213   0.06678   0.74795   0.00000  Uiso   1.00
C615   C     0.10947   0.08867   0.52492   0.00000  Uiso   1.00
C616   C     0.21855   0.19800   0.96325   0.00000  Uiso   1.00
C617   C     0.06393   0.07538   0.50043   0.00000  Uiso   1.00
C618   C     0.26095   0.21634   0.98903   0.00000  Uiso   1.00
C619   C     0.18642   0.32242   0.75677   0.00000  Uiso   1.00
C620   C     0.14586   0.01079   0.74421   0.00000  Uiso   1.00
C621   C     0.12842   0.15540   0.83153   0.00000  Uiso   1.00
C622   C     0.20423   0.16979   0.66696   0.00000  Uiso   1.00
C623   C     0.10565   0.13518   0.87605   0.00000  Uiso   1.00
C624   C     0.22543   0.17263   0.61880   0.00000  Uiso   1.00
C625   C     0.03198   0.08201   0.93252   0.00000  Uiso   1.00
C626   C     0.29354   0.21898   0.55698   0.00000  Uiso   1.00
C627   C     0.04881   0.09842   0.88926   0.00000  Uiso   1.00
C628   C     0.28081   0.20774   0.60074   0.00000  Uiso   1.00
C629   C     0.14961   0.13990   0.90165   0.00000  Uiso   1.00
C630   C     0.18546   0.14546   0.59131   0.00000  Uiso   1.00
C631   C     0.12891   0.13492   0.94660   0.00000  Uiso   1.00
C632   C     0.19802   0.15704   0.54623   0.00000  Uiso   1.00
C633   C     0.07266   0.09925   0.96103   0.00000  Uiso   1.00
C634   C     0.25145   0.19685   0.53050   0.00000  Uiso   1.00
C635   C     0.16852   0.15586   0.97554   0.00000  Uiso   1.00
C636   C     0.15815   0.13384   0.51662   0.00000  Uiso   1.00
Cu637  Cu    0.10737   0.16108   0.74517   0.00000  Uiso   1.00
Cu638  Cu    0.22596   0.17225   0.75484   0.00000  Uiso   1.00
H639   H     0.10640   0.06099   0.54884   0.00000  Uiso   1.00
H640   H     0.22603   0.21648   0.93261   0.00000  Uiso   1.00
H641   H     0.22296   0.01236   0.77159   0.00000  Uiso   1.00
H642   H     0.10873   0.32085   0.72981   0.00000  Uiso   1.00
N643   N     0.31506   0.18068   0.76212   0.00000  Uiso   1.00
N644   N     0.01827   0.15265   0.73788   0.00000  Uiso   1.00
O645   O     0.12815   0.23809   0.74686   0.00000  Uiso   1.00
O646   O     0.20518   0.09524   0.75314   0.00000  Uiso   1.00
O647   O     0.22829   0.24753   0.75503   0.00000  Uiso   1.00
O648   O     0.10504   0.08580   0.74498   0.00000  Uiso   1.00
O649   O     0.08851   0.15930   0.80855   0.00000  Uiso   1.00
O650   O     0.24482   0.17403   0.69146   0.00000  Uiso   1.00
O651   O     0.18866   0.16874   0.81671   0.00000  Uiso   1.00
O652   O     0.14468   0.16460   0.68329   0.00000  Uiso   1.00
F653   F     0.01536   0.03477   0.51297   0.00000  Uiso   1.00
F654   F     0.30986   0.25556   0.97371   0.00000  Uiso   1.00
C655   C     0.12800   0.10941   0.61218   0.00000  Uiso   1.00
O656   O     0.07780   0.12029   0.61392   0.00000  Uiso   1.00
O657   O     0.13162   0.06435   0.63144   0.00000  Uiso   1.00
H658   H     0.08937   0.04352   0.64555   0.00000  Uiso   1.00
C659   C     0.20174   0.11320   0.88244   0.00000  Uiso   1.00
O660   O     0.25133   0.12703   0.89334   0.00000  Uiso   1.00
O661   O     0.19119   0.06890   0.85417   0.00000  Uiso   1.00
H662   H     0.22448   0.04754   0.84868   0.00000  Uiso   1.00
C663   C     0.32325   0.23850   0.62762   0.00000  Uiso   1.00
O664   O     0.32639   0.28602   0.63409   0.00000  Uiso   1.00
O665   O     0.02750   0.21358   0.64438   0.00000  Uiso   1.00
H666   H     0.05458   0.23882   0.66204   0.00000  Uiso   1.00
C667   C     0.01607   0.06548   0.85694   0.00000  Uiso   1.00
O668   O     0.33326   0.08573   0.82955   0.00000  Uiso   1.00
O669   O     0.00321   0.01040   0.85729   0.00000  Uiso   1.00
H670   H     0.02315   0.33000   0.87820   0.00000  Uiso   1.00
F671   F     0.31100   0.04712   0.94571   0.00000  Uiso   1.00
F672   F     0.01322   0.25406   0.54087   0.00000  Uiso   1.00
C673   C     0.00426   0.22067   0.79133   0.00000  Uiso   1.00
O674   O     0.01932   0.26644   0.78071   0.00000  Uiso   1.00
O675   O     0.33224   0.20894   0.83441   0.00000  Uiso   1.00
H676   H     0.01517   0.24067   0.85274   0.00000  Uiso   1.00
C677   C     0.32615   0.10560   0.71616   0.00000  Uiso   1.00
O678   O     0.31135   0.10719   0.68170   0.00000  Uiso   1.00
O679   O     0.32534   0.05692   0.73156   0.00000  Uiso   1.00
H680   H     0.31245   0.02625   0.71101   0.00000  Uiso   1.00
C681   C     0.51429   0.26652   0.75236   0.00000  Uiso   1.00
C682   C     0.48547   0.06678   0.74795   0.00000  Uiso   1.00
C683   C     0.44281   0.08867   0.52492   0.00000  Uiso   1.00
C684   C     0.55188   0.19800   0.96325   0.00000  Uiso   1.00
C685   C     0.39726   0.07538   0.50043   0.00000  Uiso   1.00
C686   C     0.59428   0.21634   0.98903   0.00000  Uiso   1.00
C687   C     0.51975   0.32242   0.75677   0.00000  Uiso   1.00
C688   C     0.47919   0.01079   0.74421   0.00000  Uiso   1.00
C689   C     0.46176   0.15540   0.83153   0.00000  Uiso   1.00
C690   C     0.53756   0.16979   0.66696   0.00000  Uiso   1.00
C691   C     0.43898   0.13518   0.87605   0.00000  Uiso   1.00
C692   C     0.55876   0.17263   0.61880   0.00000  Uiso   1.00
C693   C     0.36531   0.08201   0.93252   0.00000  Uiso   1.00
C694   C     0.62687   0.21898   0.55698   0.00000  Uiso   1.00
C695   C     0.38215   0.09842   0.88926   0.00000  Uiso   1.00
C696   C     0.61414   0.20774   0.60074   0.00000  Uiso   1.00
C697   C     0.48295   0.13990   0.90165   0.00000  Uiso   1.00
C698   C     0.51879   0.14546   0.59131   0.00000  Uiso   1.00
C699   C     0.46224   0.13492   0.94660   0.00000  Uiso   1.00
C700   C     0.53135   0.15704   0.54623   0.00000  Uiso   1.00
C701   C     0.40600   0.09925   0.96103   0.00000  Uiso   1.00
C702   C     0.58478   0.19685   0.53050   0.00000  Uiso   1.00
C703   C     0.50185   0.15586   0.97554   0.00000  Uiso   1.00
C704   C     0.49148   0.13384   0.51662   0.00000  Uiso   1.00
Cu705  Cu    0.44071   0.16108   0.74517   0.00000  Uiso   1.00
Cu706  Cu    0.55929   0.17225   0.75484   0.00000  Uiso   1.00
H707   H     0.43974   0.06099   0.54884   0.00000  Uiso   1.00
H708   H     0.55936   0.21648   0.93261   0.00000  Uiso   1.00
H709   H     0.55629   0.01236   0.77159   0.00000  Uiso   1.00
H710   H     0.44207   0.32085   0.72981   0.00000  Uiso   1.00
N711   N     0.64839   0.18068   0.76212   0.00000  Uiso   1.00
N712   N     0.35161   0.15265   0.73788   0.00000  Uiso   1.00
O713   O     0.46148   0.23809   0.74686   0.00000  Uiso   1.00
O714   O     0.53852   0.09524   0.75314   0.00000  Uiso   1.00
O715   O     0.56163   0.24753   0.75503   0.00000  Uiso   1.00
O716   O     0.43837   0.08580   0.74498   0.00000  Uiso   1.00
O717   O     0.42185   0.15930   0.80855   0.00000  Uiso   1.00
O718   O     0.57815   0.17403   0.69146   0.00000  Uiso   1.00
O719   O     0.52199   0.16874   0.81671   0.00000  Uiso   1.00
O720   O     0.47801   0.16460   0.68329   0.00000  Uiso   1.00
F721   F     0.34870   0.03477   0.51297   0.00000  Uiso   1.00
F722   F     0.64320   0.25556   0.97371   0.00000  Uiso   1.00
C723   C     0.46134   0.10941   0.61218   0.00000  Uiso   1.00
O724   O     0.41114   0.12029   0.61392   0.00000  Uiso   1.00
O725   O     0.46495   0.06435   0.63144   0.00000  Uiso   1.00
H726   H     0.42270   0.04352   0.64555   0.00000  Uiso   1.00
C727   C     0.53507   0.11320   0.88244   0.00000  Uiso   1.00
O728   O     0.58466   0.12703   0.89334   0.00000  Uiso   1.00
O729   O     0.52452   0.06890   0.85417   0.00000  Uiso   1.00
H730   H     0.55781   0.04754   0.84868   0.00000  Uiso   1.00
C731   C     0.65658   0.23850   0.62762   0.00000  Uiso   1.00
O732   O     0.65972   0.28602   0.63409   0.00000  Uiso   1.00
O733   O     0.36083   0.21358   0.64438   0.00000  Uiso   1.00
H734   H     0.38791   0.23882   0.66204   0.00000  Uiso   1.00
C735   C     0.34940   0.06548   0.85694   0.00000  Uiso   1.00
O736   O     0.66660   0.08573   0.82955   0.00000  Uiso   1.00
O737   O     0.33654   0.01040   0.85729   0.00000  Uiso   1.00
H738   H     0.35648   0.33000   0.87820   0.00000  Uiso   1.00
F739   F     0.64433   0.04712   0.94571   0.00000  Uiso   1.00
F740   F     0.34655   0.25406   0.54087   0.00000  Uiso   1.00
C741   C     0.33759   0.22067   0.79133   0.00000  Uiso   1.00
O742   O     0.35265   0.26644   0.78071   0.00000  Uiso   1.00
O743   O     0.66557   0.20894   0.83441   0.00000  Uiso   1.00
H744   H     0.34850   0.24067   0.85274   0.00000  Uiso   1.00
C745   C     0.65949   0.10560   0.71616   0.00000  Uiso   1.00
O746   O     0.64468   0.10719   0.68170   0.00000  Uiso   1.00
O747   O     0.65867   0.05692   0.73156   0.00000  Uiso   1.00
H748   H     0.64578   0.02625   0.71101   0.00000  Uiso   1.00
C749   C     0.84762   0.26652   0.75236   0.00000  Uiso   1.00
C750   C     0.81880   0.06678   0.74795   0.00000  Uiso   1.00
C751   C     0.77614   0.08867   0.52492   0.00000  Uiso   1.00
C752   C     0.88522   0.19800   0.96325   0.00000  Uiso   1.00
C753   C     0.73059   0.07538   0.50043   0.00000  Uiso   1.00
C754   C     0.92761   0.21634   0.98903   0.00000  Uiso   1.00
C755   C     0.85309   0.32242   0.75677   0.00000  Uiso   1.00
C756   C     0.81253   0.01079   0.74421   0.00000  Uiso   1.00
C757   C     0.79509   0.15540   0.83153   0.00000  Uiso   1.00
C758   C     0.87089   0.16979   0.66696   0.00000  Uiso   1.00
C759   C     0.77232   0.13518   0.87605   0.00000  Uiso   1.00
C760   C     0.89210   0.17263   0.61880   0.00000  Uiso   1.00
C761   C     0.69865   0.08201   0.93252   0.00000  Uiso   1.00
C762   C     0.96020   0.21898   0.55698   0.00000  Uiso   1.00
C763   C     0.71548   0.09842   0.88926   0.00000  Uiso   1.00
C764   C     0.94747   0.20774   0.60074   0.00000  Uiso   1.00
C765   C     0.81628   0.13990   0.90165   0.00000  Uiso   1.00
C766   C     0.85213   0.14546   0.59131   0.00000  Uiso   1.00
C767   C     0.79557   0.13492   0.94660   0.00000  Uiso   1.00
C768   C     0.86469   0.15704   0.54623   0.00000  Uiso   1.00
C769   C     0.73933   0.09925   0.96103   0.00000  Uiso   1.00
C770   C     0.91811   0.19685   0.53050   0.00000  Uiso   1.00
C771   C     0.83519   0.15586   0.97554   0.00000  Uiso   1.00
C772   C     0.82482   0.13384   0.51662   0.00000  Uiso   1.00
Cu773  Cu    0.77404   0.16108   0.74517   0.00000  Uiso   1.00
Cu774  Cu    0.89263   0.17225   0.75484   0.00000  Uiso   1.00
H775   H     0.77307   0.06099   0.54884   0.00000  Uiso   1.00
H776   H     0.89269   0.21648   0.93261   0.00000  Uiso   1.00
H777   H     0.88962   0.01236   0.77159   0.00000  Uiso   1.00
H778   H     0.77540   0.32085   0.72981   0.00000  Uiso   1.00
N779   N     0.98173   0.18068   0.76212   0.00000  Uiso   1.00
N780   N     0.68494   0.15265   0.73788   0.00000  Uiso   1.00
O781   O     0.79482   0.23809   0.74686   0.00000  Uiso   1.00
O782   O     0.87185   0.09524   0.75314   0.00000  Uiso   1.00
O783   O     0.89496   0.24753   0.75503   0.00000  Uiso   1.00
O784   O     0.77171   0.08580   0.74498   0.00000  Uiso   1.00
O785   O     0.75518   0.15930   0.80855   0.00000  Uiso   1.00
O786   O     0.91149   0.17403   0.69146   0.00000  Uiso   1.00
O787   O     0.85532   0.16874   0.81671   0.00000  Uiso   1.00
O788   O     0.81134   0.16460   0.68329   0.00000  Uiso   1.00
F789   F     0.68203   0.03477   0.51297   0.00000  Uiso   1.00
F790   F     0.97653   0.25556   0.97371   0.00000  Uiso   1.00
C791   C     0.79467   0.10941   0.61218   0.00000  Uiso   1.00
O792   O     0.74447   0.12029   0.61392   0.00000  Uiso   1.00
O793   O     0.79828   0.06435   0.63144   0.00000  Uiso   1.00
H794   H     0.75604   0.04352   0.64555   0.00000  Uiso   1.00
C795   C     0.86840   0.11320   0.88244   0.00000  Uiso   1.00
O796   O     0.91800   0.12703   0.89334   0.00000  Uiso   1.00
O797   O     0.85785   0.06890   0.85417   0.00000  Uiso   1.00
H798   H     0.89115   0.04754   0.84868   0.00000  Uiso   1.00
C799   C     0.98992   0.23850   0.62762   0.00000  Uiso   1.00
O800   O     0.99306   0.28602   0.63409   0.00000  Uiso   1.00
O801   O     0.69417   0.21358   0.64438   0.00000  Uiso   1.00
H802   H     0.72125   0.23882   0.66204   0.00000  Uiso   1.00
C803   C     0.68274   0.06548   0.85694   0.00000  Uiso   1.00
O804   O     0.99993   0.08573   0.82955   0.00000  Uiso   1.00
O805   O     0.66987   0.01040   0.85729   0.00000  Uiso   1.00
H806   H     0.68982   0.33000   0.87820   0.00000  Uiso   1.00
F807   F     0.97767   0.04712   0.94571   0.00000  Uiso   1.00
F808   F     0.67989   0.25406   0.54087   0.00000  Uiso   1.00
C809   C     0.67093   0.22067   0.79133   0.00000  Uiso   1.00
O810   O     0.68598   0.26644   0.78071   0.00000  Uiso   1.00
O811   O     0.99891   0.20894   0.83441   0.00000  Uiso   1.00
H812   H     0.68184   0.24067   0.85274   0.00000  Uiso   1.00
C813   C     0.99282   0.10560   0.71616   0.00000  Uiso   1.00
O814   O     0.97801   0.10719   0.68170   0.00000  Uiso   1.00
O815   O     0.99201   0.05692   0.73156   0.00000  Uiso   1.00
H816   H     0.97911   0.02625   0.71101   0.00000  Uiso   1.00
C817   C     0.18096   0.59986   0.75236   0.00000  Uiso   1.00
C818   C     0.15213   0.40011   0.74795   0.00000  Uiso   1.00
C819   C     0.10947   0.42200   0.52492   0.00000  Uiso   1.00
C820   C     0.21855   0.53134   0.96325   0.00000  Uiso   1.00
C821   C     0.06393   0.40871   0.50043   0.00000  Uiso   1.00
C822   C     0.26095   0.54968   0.98903   0.00000  Uiso   1.00
C823   C     0.18642   0.65575   0.75677   0.00000  Uiso   1.00
C824   C     0.14586   0.34412   0.74421   0.00000  Uiso   1.00
C825   C     0.12842   0.48873   0.83153   0.00000  Uiso   1.00
C826   C     0.20423   0.50312   0.66696   0.00000  Uiso   1.00
C827   C     0.10565   0.46851   0.87605   0.00000  Uiso   1.00
C828   C     0.22543   0.50596   0.61880   0.00000  Uiso   1.00
C829   C     0.03198   0.41534   0.93252   0.00000  Uiso   1.00
C830   C     0.29354   0.55231   0.55698   0.00000  Uiso   1.00
C831   C     0.04881   0.43175   0.88926   0.00000  Uiso   1.00
C832   C     0.28081   0.54107   0.60074   0.00000  Uiso   1.00
C833   C     0.14961   0.47323   0.90165   0.00000  Uiso   1.00
C834   C     0.18546   0.47879   0.59131   0.00000  Uiso   1.00
C835   C     0.12891   0.46825   0.94660   0.00000  Uiso   1.00
C836   C     0.19802   0.49038   0.54623   0.00000  Uiso   1.00
C837   C     0.07266   0.43258   0.96103   0.00000  Uiso   1.00
C838   C     0.25145   0.53019   0.53050   0.00000  Uiso   1.00
C839   C     0.16852   0.48919   0.97554   0.00000  Uiso   1.00
C840   C     0.15815   0.46718   0.51662   0.00000  Uiso   1.00
Cu841  Cu    0.10737   0.49441   0.74517   0.00000  Uiso   1.00
Cu842  Cu    0.22596   0.50559   0.75484   0.00000  Uiso   1.00
H843   H     0.10640   0.39432   0.54884   0.00000  Uiso   1.00
H844   H     0.22603   0.54982   0.93261   0.00000  Uiso   1.00
H845   H     0.22296   0.34570   0.77159   0.00000  Uiso   1.00
H846   H     0.10873   0.65418   0.72981   0.00000  Uiso   1.00
N847   N     0.31506   0.51401   0.76212   0.00000  Uiso   1.00
N848   N     0.01827   0.48599   0.73788   0.00000  Uiso   1.00
O849   O     0.12815   0.57142   0.74686   0.00000  Uiso   1.00
O850   O     0.20518   0.42858   0.75314   0.00000  Uiso   1.00
O851   O     0.22829   0.58086   0.75503   0.00000  Uiso   1.00
O852   O     0.10504   0.41914   0.74498   0.00000  Uiso   1.00
O853   O     0.08851   0.49263   0.80855   0.00000  Uiso   1.00
O854   O     0.24482   0.50737   0.69146   0.00000  Uiso   1.00
O855   O     0.18866   0.50207   0.81671   0.00000  Uiso   1.00
O856   O     0.14468   0.49793   0.68329   0.00000  Uiso   1.00
F857   F     0.01536   0.36810   0.51297   0.00000  Uiso   1.00
F858   F     0.30986   0.58889   0.97371   0.00000  Uiso   1.00
C859   C     0.12800   0.44275   0.61218   0.00000  Uiso   1.00
O860   O     0.07780   0.45362   0.61392   0.00000  Uiso   1.00
O861   O     0.13162   0.39768   0.63144   0.00000  Uiso   1.00
H862   H     0.08937   0.37685   0.64555   0.00000  Uiso   1.00
C863   C     0.20174   0.44653   0.88244   0.00000  Uiso   1.00
O864   O     0.25133   0.46036   0.89334   0.00000  Uiso   1.00
O865   O     0.19119   0.40223   0.85417   0.00000  Uiso   1.00
H866   H     0.22448   0.38087   0.84868   0.00000  Uiso   1.00
C867   C     0.32325   0.57184   0.62762   0.00000  Uiso   1.00
O868   O     0.32639   0.61935   0.63409   0.00000  Uiso   1.00
O869   O     0.02750   0.54691   0.64438   0.00000  Uiso   1.00
H870   H     0.05458   0.57215   0.66204   0.00000  Uiso   1.00
C871   C     0.01607   0.39881   0.85694   0.00000  Uiso   1.00
O872   O     0.33326   0.41906   0.82955   0.00000  Uiso   1.00
O873   O     0.00321   0.34373   0.85729   0.00000  Uiso   1.00
H874   H     0.02315   0.66333   0.87820   0.00000  Uiso   1.00
F875   F     0.31100   0.38046   0.94571   0.00000  Uiso   1.00
F876   F     0.01322   0.58740   0.54087   0.00000  Uiso   1.00
C877   C     0.00426   0.55400   0.79133   0.00000  Uiso   1.00
O878   O     0.01932   0.59977   0.78071   0.00000  Uiso   1.00
O879   O     0.33224   0.54228   0.83441   0.00000  Uiso   1.00
H880   H     0.01517   0.57400   0.85274   0.00000  Uiso   1.00
C881   C     0.32615   0.43894   0.71616   0.00000  Uiso   1.00
O882   O     0.31135   0.44052   0.68170   0.00000  Uiso   1.00
O883   O     0.32534   0.39025   0.73156   0.00000  Uiso   1.00
H884   H     0.31245   0.35958   0.71101   0.00000  Uiso   1.00
C885   C     0.51429   0.59986   0.75236   0.00000  Uiso   1.00
C886   C     0.48547   0.40011   0.74795   0.00000  Uiso   1.00
C887   C     0.44281   0.42200   0.52492   0.00000  Uiso   1.00
C888   C     0.55188   0.53134   0.96325   0.00000  Uiso   1.00
C889   C     0.39726   0.40871   0.50043   0.00000  Uiso   1.00
C890   C     0.59428   0.54968   0.98903   0.00000  Uiso   1.00
C891   C     0.51975   0.65575   0.75677   0.00000  Uiso   1.00
C892   C     0.47919   0.34412   0.74421   0.00000  Uiso   1.00
C893   C     0.46176   0.48873   0.83153   0.00000  Uiso   1.00
C894   C     0.53756   0.50312   0.66696   0.00000  Uiso   1.00
C895   C     0.43898   0.46851   0.87605   0.00000  Uiso   1.00
C896   C     0.55876   0.50596   0.61880   0.00000  Uiso   1.00
C897   C     0.36531   0.41534   0.93252   0.00000  Uiso   1.00
C898   C     0.62687   0.55231   0.55698   0.00000  Uiso   1.00
C899   C     0.38215   0.43175   0.88926   0.00000  Uiso   1.00
C900   C     0.61414   0.54107   0.60074   0.00000  Uiso   1.00
C901   C     0.48295   0.47323   0.90165   0.00000  Uiso   1.00
C902   C     0.51879   0.47879   0.59131   0.00000  Uiso   1.00
C903   C     0.46224   0.46825   0.94660   0.00000  Uiso   1.00
C904   C     0.53135   0.49038   0.54623   0.00000  Uiso   1.00
C905   C     0.40600   0.43258   0.96103   0.00000  Uiso   1.00
C906   C     0.58478   0.53019   0.53050   0.00000  Uiso   1.00
C907   C     0.50185   0.48919   0.97554   0.00000  Uiso   1.00
C908   C     0.49148   0.46718   0.51662   0.00000  Uiso   1.00
Cu909  Cu    0.44071   0.49441   0.74517   0.00000  Uiso   1.00
Cu910  Cu    0.55929   0.50559   0.75484   0.00000  Uiso   1.00
H911   H     0.43974   0.39432   0.54884   0.00000  Uiso   1.00
H912   H     0.55936   0.54982   0.93261   0.00000  Uiso   1.00
H913   H     0.55629   0.34570   0.77159   0.00000  Uiso   1.00
H914   H     0.44207   0.65418   0.72981   0.00000  Uiso   1.00
N915   N     0.64839   0.51401   0.76212   0.00000  Uiso   1.00
N916   N     0.35161   0.48599   0.73788   0.00000  Uiso   1.00
O917   O     0.46148   0.57142   0.74686   0.00000  Uiso   1.00
O918   O     0.53852   0.42858   0.75314   0.00000  Uiso   1.00
O919   O     0.56163   0.58086   0.75503   0.00000  Uiso   1.00
O920   O     0.43837   0.41914   0.74498   0.00000  Uiso   1.00
O921   O     0.42185   0.49263   0.80855   0.00000  Uiso   1.00
O922   O     0.57815   0.50737   0.69146   0.00000  Uiso   1.00
O923   O     0.52199   0.50207   0.81671   0.00000  Uiso   1.00
O924   O     0.47801   0.49793   0.68329   0.00000  Uiso   1.00
F925   F     0.34870   0.36810   0.51297   0.00000  Uiso   1.00
F926   F     0.64320   0.58889   0.97371   0.00000  Uiso   1.00
C927   C     0.46134   0.44275   0.61218   0.00000  Uiso   1.00
O928   O     0.41114   0.45362   0.61392   0.00000  Uiso   1.00
O929   O     0.46495   0.39768   0.63144   0.00000  Uiso   1.00
H930   H     0.42270   0.37685   0.64555   0.00000  Uiso   1.00
C931   C     0.53507   0.44653   0.88244   0.00000  Uiso   1.00
O932   O     0.58466   0.46036   0.89334   0.00000  Uiso   1.00
O933   O     0.52452   0.40223   0.85417   0.00000  Uiso   1.00
H934   H     0.55781   0.38087   0.84868   0.00000  Uiso   1.00
C935   C     0.65658   0.57184   0.62762   0.00000  Uiso   1.00
O936   O     0.65972   0.61935   0.63409   0.00000  Uiso   1.00
O937   O     0.36083   0.54691   0.64438   0.00000  Uiso   1.00
H938   H     0.38791   0.57215   0.66204   0.00000  Uiso   1.00
C939   C     0.34940   0.39881   0.85694   0.00000  Uiso   1.00
O940   O     0.66660   0.41906   0.82955   0.00000  Uiso   1.00
O941   O     0.33654   0.34373   0.85729   0.00000  Uiso   1.00
H942   H     0.35648   0.66333   0.87820   0.00000  Uiso   1.00
F943   F     0.64433   0.38046   0.94571   0.00000  Uiso   1.00
F944   F     0.34655   0.58740   0.54087   0.00000  Uiso   1.00
C945   C     0.33759   0.55400   0.79133   0.00000  Uiso   1.00
O946   O     0.35265   0.59977   0.78071   0.00000  Uiso   1.00
O947   O     0.66557   0.54228   0.83441   0.00000  Uiso   1.00
H948   H     0.34850   0.57400   0.85274   0.00000  Uiso   1.00
C949   C     0.65949   0.43894   0.71616   0.00000  Uiso   1.00
O950   O     0.64468   0.44052   0.68170   0.00000  Uiso   1.00
O951   O     0.65867   0.39025   0.73156   0.00000  Uiso   1.00
H952   H     0.64578   0.35958   0.71101   0.00000  Uiso   1.00
C953   C     0.84762   0.59986   0.75236   0.00000  Uiso   1.00
C954   C     0.81880   0.40011   0.74795   0.00000  Uiso   1.00
C955   C     0.77614   0.42200   0.52492   0.00000  Uiso   1.00
C956   C     0.88522   0.53134   0.96325   0.00000  Uiso   1.00
C957   C     0.73059   0.40871   0.50043   0.00000  Uiso   1.00
C958   C     0.92761   0.54968   0.98903   0.00000  Uiso   1.00
C959   C     0.85309   0.65575   0.75677   0.00000  Uiso   1.00
C960   C     0.81253   0.34412   0.74421   0.00000  Uiso   1.00
C961   C     0.79509   0.48873   0.83153   0.00000  Uiso   1.00
C962   C     0.87089   0.50312   0.66696   0.00000  Uiso   1.00
C963   C     0.77232   0.46851   0.87605   0.00000  Uiso   1.00
C964   C     0.89210   0.50596   0.61880   0.00000  Uiso   1.00
C965   C     0.69865   0.41534   0.93252   0.00000  Uiso   1.00
C966   C     0.96020   0.55231   0.55698   0.00000  Uiso   1.00
C967   C     0.71548   0.43175   0.88926   0.00000  Uiso   1.00
C968   C     0.94747   0.54107   0.60074   0.00000  Uiso   1.00
C969   C     0.81628   0.47323   0.90165   0.00000  Uiso   1.00
C970   C     0.85213   0.47879   0.59131   0.00000  Uiso   1.00
C971   C     0.79557   0.46825   0.94660   0.00000  Uiso   1.00
C972   C     0.86469   0.49038   0.54623   0.00000  Uiso   1.00
C973   C     0.73933   0.43258   0.96103   0.00000  Uiso   1.00
C974   C     0.91811   0.53019   0.53050   0.00000  Uiso   1.00
C975   C     0.83519   0.48919   0.97554   0.00000  Uiso   1.00
C976   C     0.82482   0.46718   0.51662   0.00000  Uiso   1.00
Cu977  Cu    0.77404   0.49441   0.74517   0.00000  Uiso   1.00
Cu978  Cu    0.89263   0.50559   0.75484   0.00000  Uiso   1.00
H979   H     0.77307   0.39432   0.54884   0.00000  Uiso   1.00
H980   H     0.89269   0.54982   0.93261   0.00000  Uiso   1.00
H981   H     0.88962   0.34570   0.77159   0.00000  Uiso   1.00
H982   H     0.77540   0.65418   0.72981   0.00000  Uiso   1.00
N983   N     0.98173   0.51401   0.76212   0.00000  Uiso   1.00
N984   N     0.68494   0.48599   0.73788   0.00000  Uiso   1.00
O985   O     0.79482   0.57142   0.74686   0.00000  Uiso   1.00
O986   O     0.87185   0.42858   0.75314   0.00000  Uiso   1.00
O987   O     0.89496   0.58086   0.75503   0.00000  Uiso   1.00
O988   O     0.77171   0.41914   0.74498   0.00000  Uiso   1.00
O989   O     0.75518   0.49263   0.80855   0.00000  Uiso   1.00
O990   O     0.91149   0.50737   0.69146   0.00000  Uiso   1.00
O991   O     0.85532   0.50207   0.81671   0.00000  Uiso   1.00
O992   O     0.81134   0.49793   0.68329   0.00000  Uiso   1.00
F993   F     0.68203   0.36810   0.51297   0.00000  Uiso   1.00
F994   F     0.97653   0.58889   0.97371   0.00000  Uiso   1.00
C995   C     0.79467   0.44275   0.61218   0.00000  Uiso   1.00
O996   O     0.74447   0.45362   0.61392   0.00000  Uiso   1.00
O997   O     0.79828   0.39768   0.63144   0.00000  Uiso   1.00
H998   H     0.75604   0.37685   0.64555   0.00000  Uiso   1.00
C999   C     0.86840   0.44653   0.88244   0.00000  Uiso   1.00
O1000  O     0.91800   0.46036   0.89334   0.00000  Uiso   1.00
O1001  O     0.85785   0.40223   0.85417   0.00000  Uiso   1.00
H1002  H     0.89115   0.38087   0.84868   0.00000  Uiso   1.00
C1003  C     0.98992   0.57184   0.62762   0.00000  Uiso   1.00
O1004  O     0.99306   0.61935   0.63409   0.00000  Uiso   1.00
O1005  O     0.69417   0.54691   0.64438   0.00000  Uiso   1.00
H1006  H     0.72125   0.57215   0.66204   0.00000  Uiso   1.00
C1007  C     0.68274   0.39881   0.85694   0.00000  Uiso   1.00
O1008  O     0.99993   0.41906   0.82955   0.00000  Uiso   1.00
O1009  O     0.66987   0.34373   0.85729   0.00000  Uiso   1.00
H1010  H     0.68982   0.66333   0.87820   0.00000  Uiso   1.00
F1011  F     0.97767   0.38046   0.94571   0.00000  Uiso   1.00
F1012  F     0.67989   0.58740   0.54087   0.00000  Uiso   1.00
C1013  C     0.67093   0.55400   0.79133   0.00000  Uiso   1.00
O1014  O     0.68598   0.59977   0.78071   0.00000  Uiso   1.00
O1015  O     0.99891   0.54228   0.83441   0.00000  Uiso   1.00
H1016  H     0.68184   0.57400   0.85274   0.00000  Uiso   1.00
C1017  C     0.99282   0.43894   0.71616   0.00000  Uiso   1.00
O1018  O     0.97801   0.44052   0.68170   0.00000  Uiso   1.00
O1019  O     0.99201   0.39025   0.73156   0.00000  Uiso   1.00
H1020  H     0.97911   0.35958   0.71101   0.00000  Uiso   1.00
C1021  C     0.18096   0.93319   0.75236   0.00000  Uiso   1.00
C1022  C     0.15213   0.73344   0.74795   0.00000  Uiso   1.00
C1023  C     0.10947   0.75533   0.52492   0.00000  Uiso   1.00
C1024  C     0.21855   0.86467   0.96325   0.00000  Uiso   1.00
C1025  C     0.06393   0.74205   0.50043   0.00000  Uiso   1.00
C1026  C     0.26095   0.88301   0.98903   0.00000  Uiso   1.00
C1027  C     0.18642   0.98909   0.75677   0.00000  Uiso   1.00
C1028  C     0.14586   0.67746   0.74421   0.00000  Uiso   1.00
C1029  C     0.12842   0.82206   0.83153   0.00000  Uiso   1.00
C1030  C     0.20423   0.83646   0.66696   0.00000  Uiso   1.00
C1031  C     0.10565   0.80185   0.87605   0.00000  Uiso   1.00
C1032  C     0.22543   0.83930   0.61880   0.00000  Uiso   1.00
C1033  C     0.03198   0.74868   0.93252   0.00000  Uiso   1.00
C1034  C     0.29354   0.88565   0.55698   0.00000  Uiso   1.00
C1035  C     0.04881   0.76508   0.88926   0.00000  Uiso   1.00
C1036  C     0.28081   0.87440   0.60074   0.00000  Uiso   1.00
C1037  C     0.14961   0.80656   0.90165   0.00000  Uiso   1.00
C1038  C     0.18546   0.81212   0.59131   0.00000  Uiso   1.00
C1039  C     0.12891   0.80158   0.94660   0.00000  Uiso   1.00
C1040  C     0.19802   0.82371   0.54623   0.00000  Uiso   1.00
C1041  C     0.07266   0.76592   0.96103   0.00000  Uiso   1.00
C1042  C     0.25145   0.86352   0.53050   0.00000  Uiso   1.00
C1043  C     0.16852   0.82253   0.97554   0.00000  Uiso   1.00
C1044  C     0.15815   0.80051   0.51662   0.00000  Uiso   1.00
Cu1045 Cu    0.10737   0.82775   0.74517   0.00000  Uiso   1.00
Cu1046 Cu    0.22596   0.83892   0.75484   0.00000  Uiso   1.00
H1047  H     0.10640   0.72765   0.54884   0.00000  Uiso   1.00
H1048  H     0.22603   0.88315   0.93261   0.00000  Uiso   1.00
H1049  H     0.22296   0.67903   0.77159   0.00000  Uiso   1.00
H1050  H     0.10873   0.98751   0.72981   0.00000  Uiso   1.00
N1051  N     0.31506   0.84735   0.76212   0.00000  Uiso   1.00
N1052  N     0.01827   0.81932   0.73788   0.00000  Uiso   1.00
O1053  O     0.12815   0.90476   0.74686   0.00000  Uiso   1.00
O1054  O     0.20518   0.76191   0.75314   0.00000  Uiso   1.00
O1055  O     0.22829   0.91420   0.75503   0.00000  Uiso   1.00
O1056  O     0.10504   0.75247   0.74498   0.00000  Uiso   1.00
O1057  O     0.08851   0.82597   0.80855   0.00000  Uiso   1.00
O1058  O     0.24482   0.84070   0.69146   0.00000  Uiso   1.00
O1059  O     0.18866   0.83540   0.81671   0.00000  Uiso   1.00
O1060  O     0.14468   0.83126   0.68329   0.00000  Uiso   1.00
F1061  F     0.01536   0.70144   0.51297   0.00000  Uiso   1.00
F1062  F     0.30986   0.92222   0.97371   0.00000  Uiso   1.00
C1063  C     0.12800   0.77608   0.61218   0.00000  Uiso   1.00
O1064  O     0.07780   0.78696   0.61392   0.00000  Uiso   1.00
O1065  O     0.13162   0.73102   0.63144   0.00000  Uiso   1.00
H1066  H     0.08937   0.71018   0.64555   0.00000  Uiso   1.00
C1067  C     0.20174   0.77986   0.88244   0.00000  Uiso   1.00
O1068  O     0.25133   0.79369   0.89334   0.00000  Uiso   1.00
O1069  O     0.19119   0.73557   0.85417   0.00000  Uiso   1.00
H1070  H     0.22448   0.71421   0.84868   0.00000  Uiso   1.00
C1071  C     0.32325   0.90517   0.62762   0.00000  Uiso   1.00
O1072  O     0.32639   0.95269   0.63409   0.00000  Uiso   1.00
O1073  O     0.02750   0.88025   0.64438   0.00000  Uiso   1.00
H1074  H     0.05458   0.90549   0.66204   0.00000  Uiso   1.00
C1075  C     0.01607   0.73214   0.85694   0.00000  Uiso   1.00
O1076  O     0.33326   0.75239   0.82955   0.00000  Uiso   1.00
O1077  O     0.00321   0.67706   0.85729   0.00000  Uiso   1.00
H1078  H     0.02315   0.99666   0.87820   0.00000  Uiso   1.00
F1079  F     0.31100   0.71379   0.94571   0.00000  Uiso   1.00
F1080  F     0.01322   0.92073   0.54087   0.00000  Uiso   1.00
C1081  C     0.00426   0.88734   0.79133   0.00000  Uiso   1.00
O1082  O     0.01932   0.93311   0.78071   0.00000  Uiso   1.00
O1083  O     0.33224   0.87561   0.83441   0.00000  Uiso   1.00
H1084  H     0.01517   0.90734   0.85274   0.00000  Uiso   1.00
C1085  C     0.32615   0.77227   0.71616   0.00000  Uiso   1.00
O1086  O     0.31135   0.77386   0.68170   0.00000  Uiso   1.00
O1087  O     0.32534   0.72359   0.73156   0.00000  Uiso   1.00
H1088  H     0.31245   0.69291   0.71101   0.00000  Uiso   1.00
C1089  C     0.51429   0.93319   0.75236   0.00000  Uiso   1.00
C1090  C     0.48547   0.73344   0.74795   0.00000  Uiso   1.00
C1091  C     0.44281   0.75533   0.52492   0.00000  Uiso   1.00
C1092  C     0.55188   0.86467   0.96325   0.00000  Uiso   1.00
C1093  C     0.39726   0.74205   0.50043   0.00000  Uiso   1.00
C1094  C     0.59428   0.88301   0.98903   0.00000  Uiso   1.00
C1095  C     0.51975   0.98909   0.75677   0.00000  Uiso   1.00
C1096  C     0.47919   0.67746   0.74421   0.00000  Uiso   1.00
C1097  C     0.46176   0.82206   0.83153   0.00000  Uiso   1.00
C1098  C     0.53756   0.83646   0.66696   0.00000  Uiso   1.00
C1099  C     0.43898   0.80185   0.87605   0.00000  Uiso   1.00
C1100  C     0.55876   0.83930   0.61880   0.00000  Uiso   1.00
C1101  C     0.36531   0.74868   0.93252   0.00000  Uiso   1.00
C1102  C     0.62687   0.88565   0.55698   0.00000  Uiso   1.00
C1103  C     0.38215   0.76508   0.88926   0.00000  Uiso   1.00
C1104  C     0.61414   0.87440   0.60074   0.00000  Uiso   1.00
C1105  C     0.48295   0.80656   0.90165   0.00000  Uiso   1.00
C1106  C     0.51879   0.81212   0.59131   0.00000  Uiso   1.00
C1107  C     0.46224   0.80158   0.94660   0.00000  Uiso   1.00
C1108  C     0.53135   0.82371   0.54623   0.00000  Uiso   1.00
C1109  C     0.40600   0.76592   0.96103   0.00000  Uiso   1.00
C1110  C     0.58478   0.86352   0.53050   0.00000  Uiso   1.00
C1111  C     0.50185   0.82253   0.97554   0.00000  Uiso   1.00
C1112  C     0.49148   0.80051   0.51662   0.00000  Uiso   1.00
Cu1113 Cu    0.44071   0.82775   0.74517   0.00000  Uiso   1.00
Cu1114 Cu    0.55929   0.83892   0.75484   0.00000  Uiso   1.00
H1115  H     0.43974   0.72765   0.54884   0.00000  Uiso   1.00
H1116  H     0.55936   0.88315   0.93261   0.00000  Uiso   1.00
H1117  H     0.55629   0.67903   0.77159   0.00000  Uiso   1.00
H1118  H     0.44207   0.98751   0.72981   0.00000  Uiso   1.00
N1119  N     0.64839   0.84735   0.76212   0.00000  Uiso   1.00
N1120  N     0.35161   0.81932   0.73788   0.00000  Uiso   1.00
O1121  O     0.46148   0.90476   0.74686   0.00000  Uiso   1.00
O1122  O     0.53852   0.76191   0.75314   0.00000  Uiso   1.00
O1123  O     0.56163   0.91420   0.75503   0.00000  Uiso   1.00
O1124  O     0.43837   0.75247   0.74498   0.00000  Uiso   1.00
O1125  O     0.42185   0.82597   0.80855   0.00000  Uiso   1.00
O1126  O     0.57815   0.84070   0.69146   0.00000  Uiso   1.00
O1127  O     0.52199   0.83540   0.81671   0.00000  Uiso   1.00
O1128  O     0.47801   0.83126   0.68329   0.00000  Uiso   1.00
F1129  F     0.34870   0.70144   0.51297   0.00000  Uiso   1.00
F1130  F     0.64320   0.92222   0.97371   0.00000  Uiso   1.00
C1131  C     0.46134   0.77608   0.61218   0.00000  Uiso   1.00
O1132  O     0.41114   0.78696   0.61392   0.00000  Uiso   1.00
O1133  O     0.46495   0.73102   0.63144   0.00000  Uiso   1.00
H1134  H     0.42270   0.71018   0.64555   0.00000  Uiso   1.00
C1135  C     0.53507   0.77986   0.88244   0.00000  Uiso   1.00
O1136  O     0.58466   0.79369   0.89334   0.00000  Uiso   1.00
O1137  O     0.52452   0.73557   0.85417   0.00000  Uiso   1.00
H1138  H     0.55781   0.71421   0.84868   0.00000  Uiso   1.00
C1139  C     0.65658   0.90517   0.62762   0.00000  Uiso   1.00
O1140  O     0.65972   0.95269   0.63409   0.00000  Uiso   1.00
O1141  O     0.36083   0.88025   0.64438   0.00000  Uiso   1.00
H1142  H     0.38791   0.90549   0.66204   0.00000  Uiso   1.00
C1143  C     0.34940   0.73214   0.85694   0.00000  Uiso   1.00
O1144  O     0.66660   0.75239   0.82955   0.00000  Uiso   1.00
O1145  O     0.33654   0.67706   0.85729   0.00000  Uiso   1.00
H1146  H     0.35648   0.99666   0.87820   0.00000  Uiso   1.00
F1147  F     0.64433   0.71379   0.94571   0.00000  Uiso   1.00
F1148  F     0.34655   0.92073   0.54087   0.00000  Uiso   1.00
C1149  C     0.33759   0.88734   0.79133   0.00000  Uiso   1.00
O1150  O     0.35265   0.93311   0.78071   0.00000  Uiso   1.00
O1151  O     0.66557   0.87561   0.83441   0.00000  Uiso   1.00
H1152  H     0.34850   0.90734   0.85274   0.00000  Uiso   1.00
C1153  C     0.65949   0.77227   0.71616   0.00000  Uiso   1.00
O1154  O     0.64468   0.77386   0.68170   0.00000  Uiso   1.00
O1155  O     0.65867   0.72359   0.73156   0.00000  Uiso   1.00
H1156  H     0.64578   0.69291   0.71101   0.00000  Uiso   1.00
C1157  C     0.84762   0.93319   0.75236   0.00000  Uiso   1.00
C1158  C     0.81880   0.73344   0.74795   0.00000  Uiso   1.00
C1159  C     0.77614   0.75533   0.52492   0.00000  Uiso   1.00
C1160  C     0.88522   0.86467   0.96325   0.00000  Uiso   1.00
C1161  C     0.73059   0.74205   0.50043   0.00000  Uiso   1.00
C1162  C     0.92761   0.88301   0.98903   0.00000  Uiso   1.00
C1163  C     0.85309   0.98909   0.75677   0.00000  Uiso   1.00
C1164  C     0.81253   0.67746   0.74421   0.00000  Uiso   1.00
C1165  C     0.79509   0.82206   0.83153   0.00000  Uiso   1.00
C1166  C     0.87089   0.83646   0.66696   0.00000  Uiso   1.00
C1167  C     0.77232   0.80185   0.87605   0.00000  Uiso   1.00
C1168  C     0.89210   0.83930   0.61880   0.00000  Uiso   1.00
C1169  C     0.69865   0.74868   0.93252   0.00000  Uiso   1.00
C1170  C     0.96020   0.88565   0.55698   0.00000  Uiso   1.00
C1171  C     0.71548   0.76508   0.88926   0.00000  Uiso   1.00
C1172  C     0.94747   0.87440   0.60074   0.00000  Uiso   1.00
C1173  C     0.81628   0.80656   0.90165   0.00000  Uiso   1.00
C1174  C     0.85213   0.81212   0.59131   0.00000  Uiso   1.00
C1175  C     0.79557   0.80158   0.94660   0.00000  Uiso   1.00
C1176  C     0.86469   0.82371   0.54623   0.00000  Uiso   1.00
C1177  C     0.73933   0.76592   0.96103   0.00000  Uiso   1.00
C1178  C     0.91811   0.86352   0.53050   0.00000  Uiso   1.00
C1179  C     0.83519   0.82253   0.97554   0.00000  Uiso   1.00
C1180  C     0.82482   0.80051   0.51662   0.00000  Uiso   1.00
Cu1181 Cu    0.77404   0.82775   0.74517   0.00000  Uiso   1.00
Cu1182 Cu    0.89263   0.83892   0.75484   0.00000  Uiso   1.00
H1183  H     0.77307   0.72765   0.54884   0.00000  Uiso   1.00
H1184  H     0.89269   0.88315   0.93261   0.00000  Uiso   1.00
H1185  H     0.88962   0.67903   0.77159   0.00000  Uiso   1.00
H1186  H     0.77540   0.98751   0.72981   0.00000  Uiso   1.00
N1187  N     0.98173   0.84735   0.76212   0.00000  Uiso   1.00
N1188  N     0.68494   0.81932   0.73788   0.00000  Uiso   1.00
O1189  O     0.79482   0.90476   0.74686   0.00000  Uiso   1.00
O1190  O     0.87185   0.76191   0.75314   0.00000  Uiso   1.00
O1191  O     0.89496   0.91420   0.75503   0.00000  Uiso   1.00
O1192  O     0.77171   0.75247   0.74498   0.00000  Uiso   1.00
O1193  O     0.75518   0.82597   0.80855   0.00000  Uiso   1.00
O1194  O     0.91149   0.84070   0.69146   0.00000  Uiso   1.00
O1195  O     0.85532   0.83540   0.81671   0.00000  Uiso   1.00
O1196  O     0.81134   0.83126   0.68329   0.00000  Uiso   1.00
F1197  F     0.68203   0.70144   0.51297   0.00000  Uiso   1.00
F1198  F     0.97653   0.92222   0.97371   0.00000  Uiso   1.00
C1199  C     0.79467   0.77608   0.61218   0.00000  Uiso   1.00
O1200  O     0.74447   0.78696   0.61392   0.00000  Uiso   1.00
O1201  O     0.79828   0.73102   0.63144   0.00000  Uiso   1.00
H1202  H     0.75604   0.71018   0.64555   0.00000  Uiso   1.00
C1203  C     0.86840   0.77986   0.88244   0.00000  Uiso   1.00
O1204  O     0.91800   0.79369   0.89334   0.00000  Uiso   1.00
O1205  O     0.85785   0.73557   0.85417   0.00000  Uiso   1.00
H1206  H     0.89115   0.71421   0.84868   0.00000  Uiso   1.00
C1207  C     0.98992   0.90517   0.62762   0.00000  Uiso   1.00
O1208  O     0.99306   0.95269   0.63409   0.00000  Uiso   1.00
O1209  O     0.69417   0.88025   0.64438   0.00000  Uiso   1.00
H1210  H     0.72125   0.90549   0.66204   0.00000  Uiso   1.00
C1211  C     0.68274   0.73214   0.85694   0.00000  Uiso   1.00
O1212  O     0.99993   0.75239   0.82955   0.00000  Uiso   1.00
O1213  O     0.66987   0.67706   0.85729   0.00000  Uiso   1.00
H1214  H     0.68982   0.99666   0.87820   0.00000  Uiso   1.00
F1215  F     0.97767   0.71379   0.94571   0.00000  Uiso   1.00
F1216  F     0.67989   0.92073   0.54087   0.00000  Uiso   1.00
C1217  C     0.67093   0.88734   0.79133   0.00000  Uiso   1.00
O1218  O     0.68598   0.93311   0.78071   0.00000  Uiso   1.00
O1219  O     0.99891   0.87561   0.83441   0.00000  Uiso   1.00
H1220  H     0.68184   0.90734   0.85274   0.00000  Uiso   1.00
C1221  C     0.99282   0.77227   0.71616   0.00000  Uiso   1.00
O1222  O     0.97801   0.77386   0.68170   0.00000  Uiso   1.00
O1223  O     0.99201   0.72359   0.73156   0.00000  Uiso   1.00
H1224  H     0.97911   0.69291   0.71101   0.00000  Uiso   1.00
loop_
_geom_bond_atom_site_label_1
_geom_bond_atom_site_label_2
_geom_bond_distance
_geom_bond_site_symmetry_2
_ccdc_geom_bond_type
C1     C7      1.428   .     S
C1     O33     1.299   .     A
C1     O35     1.301   .     A
C2     O34     1.301   .     A
C2     O36     1.299   .     A
C2     C8      1.428   .     S
C3     C24     1.419   .     A
C3     C5      1.395   .     A
C3     H27     1.073   .     S
C4     C6      1.378   .     A
C4     C23     1.401   .     A
C4     H28     1.084   .     S
C5     F41     1.358   .     S
C5     C633    1.398   1_554 S
C6     F42     1.359   .     S
C6     C634    1.403   .     S
C7     C212    1.330   .     S
C7     H233    1.083   .     S
C8     C415    1.330   1_545 S
C8     H438    1.086   1_545 S
C9     C11     1.486   .     S
C9     O39     1.316   .     A
C9     O37     1.311   .     A
C10    O38     1.314   .     A
C10    C12     1.490   .     S
C10    O40     1.311   .     A
C11    C15     1.424   .     A
C11    C17     1.401   .     A
C12    C16     1.412   .     A
C12    C18     1.427   .     A
C13    C21     1.410   .     A
C13    C15     1.412   .     A
C13    F195    1.360   1_455 S
C14    C22     1.405   .     A
C14    C16     1.392   .     A
C14    F128    1.361   .     S
C15    C55     1.493   .     S
C16    C51     1.481   .     S
C17    C19     1.398   .     A
C17    C47     1.485   .     S
C18    C43     1.479   .     S
C18    C20     1.435   .     A
C19    C23     1.416   .     A
C19    C21     1.407   .     A
C20    C22     1.431   .     A
C20    C24     1.448   .     A
C21    C617    1.398   .     S
C22    C618    1.403   1_554 S
C23    C636    1.418   .     S
C24    C635    1.418   1_554 S
Cu25   O40     1.945   .     S
Cu25   N32     2.048   .     S
Cu25   O33     1.952   .     S
Cu25   O36     1.947   .     S
Cu25   Cu26    2.726   .     S
Cu25   O37     1.952   .     S
Cu26   O38     1.952   .     S
Cu26   O39     1.945   .     S
Cu26   O35     1.947   .     S
Cu26   N31     2.048   .     S
Cu26   O34     1.952   .     S
H29    C415    1.083   1_545 S
H30    C212    1.086   .     S
N31    N100    1.295   .     S
N31    C129    1.412   .     S
N32    N167    1.295   1_455 S
N32    C201    1.418   1_455 S
C43    O44     1.222   .     D
C43    O45     1.398   .     S
O45    H46     1.014   .     S
C47    O49     1.401   .     S
C47    O48     1.220   .     D
O49    H50     1.009   .     S
C51    O52     1.223   .     D
C51    O121    1.397   .     S
O53    H54     1.014   .     S
O53    C187    1.397   1_455 S
C55    O57     1.398   .     S
C55    O192    1.217   1_455 S
O56    C123    1.217   .     S
O57    H466    1.013   1_545 S
H58    O261    1.013   .     S
F59    C81     1.360   .     S
F60    C150    1.361   1_455 S
C61    O62     1.220   .     D
C61    N167    1.412   1_455 S
C61    O199    1.396   1_455 S
O63    C129    1.396   .     S
O63    H132    1.012   .     S
H64    O199    1.012   1_455 S
C65    O66     1.219   .     D
C65    O67     1.395   .     S
C65    N100    1.418   .     S
O67    H68     1.014   .     S
C69    C75     1.428   .     S
C69    O101    1.299   .     A
C69    O103    1.301   .     A
C70    O102    1.301   .     A
C70    O104    1.299   .     A
C70    C76     1.428   .     S
C71    C92     1.419   .     A
C71    C73     1.395   .     A
C71    H95     1.073   .     S
C72    C74     1.378   .     A
C72    C91     1.401   .     A
C72    H96     1.084   .     S
C73    F109    1.358   .     S
C73    C701    1.398   1_554 S
C74    F110    1.359   .     S
C74    C702    1.403   .     S
C75    C280    1.330   .     S
C75    H301    1.083   .     S
C76    C483    1.330   1_545 S
C76    H506    1.086   1_545 S
C77    C79     1.486   .     S
C77    O107    1.316   .     A
C77    O105    1.311   .     A
C78    O106    1.314   .     A
C78    C80     1.490   .     S
C78    O108    1.311   .     A
C79    C83     1.424   .     A
C79    C85     1.401   .     A
C80    C84     1.412   .     A
C80    C86     1.427   .     A
C81    C89     1.410   .     A
C81    C83     1.412   .     A
C82    C90     1.405   .     A
C82    C84     1.392   .     A
C82    F196    1.361   .     S
C83    C123    1.493   .     S
C84    C119    1.481   .     S
C85    C87     1.398   .     A
C85    C115    1.485   .     S
C86    C111    1.479   .     S
C86    C88     1.435   .     A
C87    C91     1.416   .     A
C87    C89     1.407   .     A
C88    C90     1.431   .     A
C88    C92     1.448   .     A
C89    C685    1.398   .     S
C90    C686    1.403   1_554 S
C91    C704    1.418   .     S
C92    C703    1.418   1_554 S
Cu93   O108    1.945   .     S
Cu93   N100    2.048   .     S
Cu93   O101    1.952   .     S
Cu93   O104    1.947   .     S
Cu93   Cu94    2.726   .     S
Cu93   O105    1.952   .     S
Cu94   O106    1.952   .     S
Cu94   O107    1.945   .     S
Cu94   O103    1.947   .     S
Cu94   N99     2.048   .     S
Cu94   O102    1.952   .     S
H97    C483    1.083   1_545 S
H98    C280    1.086   .     S
N99    N168    1.295   .     S
N99    C197    1.412   .     S
C111   O112    1.222   .     D
C111   O113    1.398   .     S
O113   H114    1.014   .     S
C115   O117    1.401   .     S
C115   O116    1.220   .     D
O117   H118    1.009   .     S
C119   O120    1.223   .     D
C119   O189    1.397   .     S
O121   H122    1.014   .     S
C123   O125    1.398   .     S
O124   C191    1.217   .     S
O125   H534    1.013   1_545 S
H126   O329    1.013   .     S
F127   C149    1.360   .     S
C129   O130    1.220   .     D
O131   C197    1.396   .     S
O131   H200    1.012   .     S
C133   O134    1.219   .     D
C133   O135    1.395   .     S
C133   N168    1.418   .     S
O135   H136    1.014   .     S
C137   C143    1.428   .     S
C137   O169    1.299   .     A
C137   O171    1.301   .     A
C138   O170    1.301   .     A
C138   O172    1.299   .     A
C138   C144    1.428   .     S
C139   C160    1.419   .     A
C139   C141    1.395   .     A
C139   H163    1.073   .     S
C140   C142    1.378   .     A
C140   C159    1.401   .     A
C140   H164    1.084   .     S
C141   F177    1.358   .     S
C141   C769    1.398   1_554 S
C142   F178    1.359   .     S
C142   C770    1.403   .     S
C143   C348    1.330   .     S
C143   H369    1.083   .     S
C144   C551    1.330   1_545 S
C144   H574    1.086   1_545 S
C145   C147    1.486   .     S
C145   O175    1.316   .     A
C145   O173    1.311   .     A
C146   O174    1.314   .     A
C146   C148    1.490   .     S
C146   O176    1.311   .     A
C147   C151    1.424   .     A
C147   C153    1.401   .     A
C148   C152    1.412   .     A
C148   C154    1.427   .     A
C149   C157    1.410   .     A
C149   C151    1.412   .     A
C150   C158    1.405   .     A
C150   C152    1.392   .     A
C150   F60     1.361   1_655 S
C151   C191    1.493   .     S
C152   C187    1.481   .     S
C153   C155    1.398   .     A
C153   C183    1.485   .     S
C154   C179    1.479   .     S
C154   C156    1.435   .     A
C155   C159    1.416   .     A
C155   C157    1.407   .     A
C156   C158    1.431   .     A
C156   C160    1.448   .     A
C157   C753    1.398   .     S
C158   C754    1.403   1_554 S
C159   C772    1.418   .     S
C160   C771    1.418   1_554 S
Cu161  O176    1.945   .     S
Cu161  N168    2.048   .     S
Cu161  O169    1.952   .     S
Cu161  O172    1.947   .     S
Cu161  Cu162   2.726   .     S
Cu161  O173    1.952   .     S
Cu162  O174    1.952   .     S
Cu162  O175    1.945   .     S
Cu162  O171    1.947   .     S
Cu162  N167    2.048   .     S
Cu162  O170    1.952   .     S
H165   C551    1.083   1_545 S
H166   C348    1.086   .     S
N167   N32     1.295   1_655 S
N167   C61     1.412   1_655 S
C179   O180    1.222   .     D
C179   O181    1.398   .     S
O181   H182    1.014   .     S
C183   O185    1.401   .     S
C183   O184    1.220   .     D
O185   H186    1.009   .     S
C187   O188    1.223   .     D
C187   O53     1.397   1_655 S
O189   H190    1.014   .     S
C191   O193    1.398   .     S
O192   C55     1.217   1_655 S
O193   H602    1.013   1_545 S
H194   O397    1.013   .     S
F195   C13     1.360   1_655 S
C197   O198    1.220   .     D
O199   C61     1.396   1_655 S
O199   H64     1.012   1_655 S
C201   O202    1.219   .     D
C201   O203    1.395   .     S
C201   N32     1.418   1_655 S
O203   H204    1.014   .     S
C205   C211    1.428   .     S
C205   O237    1.299   .     A
C205   O239    1.301   .     A
C206   O238    1.301   .     A
C206   O240    1.299   .     A
C206   C212    1.428   .     S
C207   C228    1.419   .     A
C207   C209    1.395   .     A
C207   H231    1.073   .     S
C208   C210    1.378   .     A
C208   C227    1.401   .     A
C208   H232    1.084   .     S
C209   F245    1.358   .     S
C209   C837    1.398   1_554 S
C210   F246    1.359   .     S
C210   C838    1.403   .     S
C211   C416    1.330   .     S
C211   H437    1.083   .     S
C213   C215    1.486   .     S
C213   O243    1.316   .     A
C213   O241    1.311   .     A
C214   O242    1.314   .     A
C214   C216    1.490   .     S
C214   O244    1.311   .     A
C215   C219    1.424   .     A
C215   C221    1.401   .     A
C216   C220    1.412   .     A
C216   C222    1.427   .     A
C217   C225    1.410   .     A
C217   C219    1.412   .     A
C217   F399    1.360   1_455 S
C218   C226    1.405   .     A
C218   C220    1.392   .     A
C218   F332    1.361   .     S
C219   C259    1.493   .     S
C220   C255    1.481   .     S
C221   C223    1.398   .     A
C221   C251    1.485   .     S
C222   C247    1.479   .     S
C222   C224    1.435   .     A
C223   C227    1.416   .     A
C223   C225    1.407   .     A
C224   C226    1.431   .     A
C224   C228    1.448   .     A
C225   C821    1.398   .     S
C226   C822    1.403   1_554 S
C227   C840    1.418   .     S
C228   C839    1.418   1_554 S
Cu229  O244    1.945   .     S
Cu229  N236    2.048   .     S
Cu229  O237    1.952   .     S
Cu229  O240    1.947   .     S
Cu229  Cu230   2.726   .     S
Cu229  O241    1.952   .     S
Cu230  O242    1.952   .     S
Cu230  O243    1.945   .     S
Cu230  O239    1.947   .     S
Cu230  N235    2.048   .     S
Cu230  O238    1.952   .     S
H234   C416    1.086   .     S
N235   N304    1.295   .     S
N235   C333    1.412   .     S
N236   N371    1.295   1_455 S
N236   C405    1.418   1_455 S
C247   O248    1.222   .     D
C247   O249    1.398   .     S
O249   H250    1.014   .     S
C251   O253    1.401   .     S
C251   O252    1.220   .     D
O253   H254    1.009   .     S
C255   O256    1.223   .     D
C255   O325    1.397   .     S
O257   H258    1.014   .     S
O257   C391    1.397   1_455 S
C259   O261    1.398   .     S
C259   O396    1.217   1_455 S
O260   C327    1.217   .     S
H262   O465    1.013   .     S
F263   C285    1.360   .     S
F264   C354    1.361   1_455 S
C265   O266    1.220   .     D
C265   N371    1.412   1_455 S
C265   O403    1.396   1_455 S
O267   C333    1.396   .     S
O267   H336    1.012   .     S
H268   O403    1.012   1_455 S
C269   O270    1.219   .     D
C269   O271    1.395   .     S
C269   N304    1.418   .     S
O271   H272    1.014   .     S
C273   C279    1.428   .     S
C273   O305    1.299   .     A
C273   O307    1.301   .     A
C274   O306    1.301   .     A
C274   O308    1.299   .     A
C274   C280    1.428   .     S
C275   C296    1.419   .     A
C275   C277    1.395   .     A
C275   H299    1.073   .     S
C276   C278    1.378   .     A
C276   C295    1.401   .     A
C276   H300    1.084   .     S
C277   F313    1.358   .     S
C277   C905    1.398   1_554 S
C278   F314    1.359   .     S
C278   C906    1.403   .     S
C279   C484    1.330   .     S
C279   H505    1.083   .     S
C281   C283    1.486   .     S
C281   O311    1.316   .     A
C281   O309    1.311   .     A
C282   O310    1.314   .     A
C282   C284    1.490   .     S
C282   O312    1.311   .     A
C283   C287    1.424   .     A
C283   C289    1.401   .     A
C284   C288    1.412   .     A
C284   C290    1.427   .     A
C285   C293    1.410   .     A
C285   C287    1.412   .     A
C286   C294    1.405   .     A
C286   C288    1.392   .     A
C286   F400    1.361   .     S
C287   C327    1.493   .     S
C288   C323    1.481   .     S
C289   C291    1.398   .     A
C289   C319    1.485   .     S
C290   C315    1.479   .     S
C290   C292    1.435   .     A
C291   C295    1.416   .     A
C291   C293    1.407   .     A
C292   C294    1.431   .     A
C292   C296    1.448   .     A
C293   C889    1.398   .     S
C294   C890    1.403   1_554 S
C295   C908    1.418   .     S
C296   C907    1.418   1_554 S
Cu297  O312    1.945   .     S
Cu297  N304    2.048   .     S
Cu297  O305    1.952   .     S
Cu297  O308    1.947   .     S
Cu297  Cu298   2.726   .     S
Cu297  O309    1.952   .     S
Cu298  O310    1.952   .     S
Cu298  O311    1.945   .     S
Cu298  O307    1.947   .     S
Cu298  N303    2.048   .     S
Cu298  O306    1.952   .     S
H302   C484    1.086   .     S
N303   N372    1.295   .     S
N303   C401    1.412   .     S
C315   O316    1.222   .     D
C315   O317    1.398   .     S
O317   H318    1.014   .     S
C319   O321    1.401   .     S
C319   O320    1.220   .     D
O321   H322    1.009   .     S
C323   O324    1.223   .     D
C323   O393    1.397   .     S
O325   H326    1.014   .     S
C327   O329    1.398   .     S
O328   C395    1.217   .     S
H330   O533    1.013   .     S
F331   C353    1.360   .     S
C333   O334    1.220   .     D
O335   C401    1.396   .     S
O335   H404    1.012   .     S
C337   O338    1.219   .     D
C337   O339    1.395   .     S
C337   N372    1.418   .     S
O339   H340    1.014   .     S
C341   C347    1.428   .     S
C341   O373    1.299   .     A
C341   O375    1.301   .     A
C342   O374    1.301   .     A
C342   O376    1.299   .     A
C342   C348    1.428   .     S
C343   C364    1.419   .     A
C343   C345    1.395   .     A
C343   H367    1.073   .     S
C344   C346    1.378   .     A
C344   C363    1.401   .     A
C344   H368    1.084   .     S
C345   F381    1.358   .     S
C345   C973    1.398   1_554 S
C346   F382    1.359   .     S
C346   C974    1.403   .     S
C347   C552    1.330   .     S
C347   H573    1.083   .     S
C349   C351    1.486   .     S
C349   O379    1.316   .     A
C349   O377    1.311   .     A
C350   O378    1.314   .     A
C350   C352    1.490   .     S
C350   O380    1.311   .     A
C351   C355    1.424   .     A
C351   C357    1.401   .     A
C352   C356    1.412   .     A
C352   C358    1.427   .     A
C353   C361    1.410   .     A
C353   C355    1.412   .     A
C354   C362    1.405   .     A
C354   C356    1.392   .     A
C354   F264    1.361   1_655 S
C355   C395    1.493   .     S
C356   C391    1.481   .     S
C357   C359    1.398   .     A
C357   C387    1.485   .     S
C358   C383    1.479   .     S
C358   C360    1.435   .     A
C359   C363    1.416   .     A
C359   C361    1.407   .     A
C360   C362    1.431   .     A
C360   C364    1.448   .     A
C361   C957    1.398   .     S
C362   C958    1.403   1_554 S
C363   C976    1.418   .     S
C364   C975    1.418   1_554 S
Cu365  O380    1.945   .     S
Cu365  N372    2.048   .     S
Cu365  O373    1.952   .     S
Cu365  O376    1.947   .     S
Cu365  Cu366   2.726   .     S
Cu365  O377    1.952   .     S
Cu366  O378    1.952   .     S
Cu366  O379    1.945   .     S
Cu366  O375    1.947   .     S
Cu366  N371    2.048   .     S
Cu366  O374    1.952   .     S
H370   C552    1.086   .     S
N371   N236    1.295   1_655 S
N371   C265    1.412   1_655 S
C383   O384    1.222   .     D
C383   O385    1.398   .     S
O385   H386    1.014   .     S
C387   O389    1.401   .     S
C387   O388    1.220   .     D
O389   H390    1.009   .     S
C391   O392    1.223   .     D
C391   O257    1.397   1_655 S
O393   H394    1.014   .     S
C395   O397    1.398   .     S
O396   C259    1.217   1_655 S
H398   O601    1.013   .     S
F399   C217    1.360   1_655 S
C401   O402    1.220   .     D
O403   C265    1.396   1_655 S
O403   H268    1.012   1_655 S
C405   O406    1.219   .     D
C405   O407    1.395   .     S
C405   N236    1.418   1_655 S
O407   H408    1.014   .     S
C409   C415    1.428   .     S
C409   O441    1.299   .     A
C409   O443    1.301   .     A
C410   O442    1.301   .     A
C410   O444    1.299   .     A
C410   C416    1.428   .     S
C411   C432    1.419   .     A
C411   C413    1.395   .     A
C411   H435    1.073   .     S
C412   C414    1.378   .     A
C412   C431    1.401   .     A
C412   H436    1.084   .     S
C413   F449    1.358   .     S
C413   C1041   1.398   1_554 S
C414   F450    1.359   .     S
C414   C1042   1.403   .     S
C415   C8      1.330   1_565 S
C415   H29     1.083   1_565 S
C417   C419    1.486   .     S
C417   O447    1.316   .     A
C417   O445    1.311   .     A
C418   O446    1.314   .     A
C418   C420    1.490   .     S
C418   O448    1.311   .     A
C419   C423    1.424   .     A
C419   C425    1.401   .     A
C420   C424    1.412   .     A
C420   C426    1.427   .     A
C421   C429    1.410   .     A
C421   C423    1.412   .     A
C421   F603    1.360   1_455 S
C422   C430    1.405   .     A
C422   C424    1.392   .     A
C422   F536    1.361   .     S
C423   C463    1.493   .     S
C424   C459    1.481   .     S
C425   C427    1.398   .     A
C425   C455    1.485   .     S
C426   C451    1.479   .     S
C426   C428    1.435   .     A
C427   C431    1.416   .     A
C427   C429    1.407   .     A
C428   C430    1.431   .     A
C428   C432    1.448   .     A
C429   C1025   1.398   .     S
C430   C1026   1.403   1_554 S
C431   C1044   1.418   .     S
C432   C1043   1.418   1_554 S
Cu433  O448    1.945   .     S
Cu433  N440    2.048   .     S
Cu433  O441    1.952   .     S
Cu433  O444    1.947   .     S
Cu433  Cu434   2.726   .     S
Cu433  O445    1.952   .     S
Cu434  O446    1.952   .     S
Cu434  O447    1.945   .     S
Cu434  O443    1.947   .     S
Cu434  N439    2.048   .     S
Cu434  O442    1.952   .     S
H438   C8      1.086   1_565 S
N439   N508    1.295   .     S
N439   C537    1.412   .     S
N440   N575    1.295   1_455 S
N440   C609    1.418   1_455 S
C451   O452    1.222   .     D
C451   O453    1.398   .     S
O453   H454    1.014   .     S
C455   O457    1.401   .     S
C455   O456    1.220   .     D
O457   H458    1.009   .     S
C459   O460    1.223   .     D
C459   O529    1.397   .     S
O461   H462    1.014   .     S
O461   C595    1.397   1_455 S
C463   O465    1.398   .     S
C463   O600    1.217   1_455 S
O464   C531    1.217   .     S
H466   O57     1.013   1_565 S
F467   C489    1.360   .     S
F468   C558    1.361   1_455 S
C469   O470    1.220   .     D
C469   N575    1.412   1_455 S
C469   O607    1.396   1_455 S
O471   C537    1.396   .     S
O471   H540    1.012   .     S
H472   O607    1.012   1_455 S
C473   O474    1.219   .     D
C473   O475    1.395   .     S
C473   N508    1.418   .     S
O475   H476    1.014   .     S
C477   C483    1.428   .     S
C477   O509    1.299   .     A
C477   O511    1.301   .     A
C478   O510    1.301   .     A
C478   O512    1.299   .     A
C478   C484    1.428   .     S
C479   C500    1.419   .     A
C479   C481    1.395   .     A
C479   H503    1.073   .     S
C480   C482    1.378   .     A
C480   C499    1.401   .     A
C480   H504    1.084   .     S
C481   F517    1.358   .     S
C481   C1109   1.398   1_554 S
C482   F518    1.359   .     S
C482   C1110   1.403   .     S
C483   C76     1.330   1_565 S
C483   H97     1.083   1_565 S
C485   C487    1.486   .     S
C485   O515    1.316   .     A
C485   O513    1.311   .     A
C486   O514    1.314   .     A
C486   C488    1.490   .     S
C486   O516    1.311   .     A
C487   C491    1.424   .     A
C487   C493    1.401   .     A
C488   C492    1.412   .     A
C488   C494    1.427   .     A
C489   C497    1.410   .     A
C489   C491    1.412   .     A
C490   C498    1.405   .     A
C490   C492    1.392   .     A
C490   F604    1.361   .     S
C491   C531    1.493   .     S
C492   C527    1.481   .     S
C493   C495    1.398   .     A
C493   C523    1.485   .     S
C494   C519    1.479   .     S
C494   C496    1.435   .     A
C495   C499    1.416   .     A
C495   C497    1.407   .     A
C496   C498    1.431   .     A
C496   C500    1.448   .     A
C497   C1093   1.398   .     S
C498   C1094   1.403   1_554 S
C499   C1112   1.418   .     S
C500   C1111   1.418   1_554 S
Cu501  O516    1.945   .     S
Cu501  N508    2.048   .     S
Cu501  O509    1.952   .     S
Cu501  O512    1.947   .     S
Cu501  Cu502   2.726   .     S
Cu501  O513    1.952   .     S
Cu502  O514    1.952   .     S
Cu502  O515    1.945   .     S
Cu502  O511    1.947   .     S
Cu502  N507    2.048   .     S
Cu502  O510    1.952   .     S
H506   C76     1.086   1_565 S
N507   N576    1.295   .     S
N507   C605    1.412   .     S
C519   O520    1.222   .     D
C519   O521    1.398   .     S
O521   H522    1.014   .     S
C523   O525    1.401   .     S
C523   O524    1.220   .     D
O525   H526    1.009   .     S
C527   O528    1.223   .     D
C527   O597    1.397   .     S
O529   H530    1.014   .     S
C531   O533    1.398   .     S
O532   C599    1.217   .     S
H534   O125    1.013   1_565 S
F535   C557    1.360   .     S
C537   O538    1.220   .     D
O539   C605    1.396   .     S
O539   H608    1.012   .     S
C541   O542    1.219   .     D
C541   O543    1.395   .     S
C541   N576    1.418   .     S
O543   H544    1.014   .     S
C545   C551    1.428   .     S
C545   O577    1.299   .     A
C545   O579    1.301   .     A
C546   O578    1.301   .     A
C546   O580    1.299   .     A
C546   C552    1.428   .     S
C547   C568    1.419   .     A
C547   C549    1.395   .     A
C547   H571    1.073   .     S
C548   C550    1.378   .     A
C548   C567    1.401   .     A
C548   H572    1.084   .     S
C549   F585    1.358   .     S
C549   C1177   1.398   1_554 S
C550   F586    1.359   .     S
C550   C1178   1.403   .     S
C551   C144    1.330   1_565 S
C551   H165    1.083   1_565 S
C553   C555    1.486   .     S
C553   O583    1.316   .     A
C553   O581    1.311   .     A
C554   O582    1.314   .     A
C554   C556    1.490   .     S
C554   O584    1.311   .     A
C555   C559    1.424   .     A
C555   C561    1.401   .     A
C556   C560    1.412   .     A
C556   C562    1.427   .     A
C557   C565    1.410   .     A
C557   C559    1.412   .     A
C558   C566    1.405   .     A
C558   C560    1.392   .     A
C558   F468    1.361   1_655 S
C559   C599    1.493   .     S
C560   C595    1.481   .     S
C561   C563    1.398   .     A
C561   C591    1.485   .     S
C562   C587    1.479   .     S
C562   C564    1.435   .     A
C563   C567    1.416   .     A
C563   C565    1.407   .     A
C564   C566    1.431   .     A
C564   C568    1.448   .     A
C565   C1161   1.398   .     S
C566   C1162   1.403   1_554 S
C567   C1180   1.418   .     S
C568   C1179   1.418   1_554 S
Cu569  O584    1.945   .     S
Cu569  N576    2.048   .     S
Cu569  O577    1.952   .     S
Cu569  O580    1.947   .     S
Cu569  Cu570   2.726   .     S
Cu569  O581    1.952   .     S
Cu570  O582    1.952   .     S
Cu570  O583    1.945   .     S
Cu570  O579    1.947   .     S
Cu570  N575    2.048   .     S
Cu570  O578    1.952   .     S
H574   C144    1.086   1_565 S
N575   N440    1.295   1_655 S
N575   C469    1.412   1_655 S
C587   O588    1.222   .     D
C587   O589    1.398   .     S
O589   H590    1.014   .     S
C591   O593    1.401   .     S
C591   O592    1.220   .     D
O593   H594    1.009   .     S
C595   O596    1.223   .     D
C595   O461    1.397   1_655 S
O597   H598    1.014   .     S
C599   O601    1.398   .     S
O600   C463    1.217   1_655 S
H602   O193    1.013   1_565 S
F603   C421    1.360   1_655 S
C605   O606    1.220   .     D
O607   C469    1.396   1_655 S
O607   H472    1.012   1_655 S
C609   O610    1.219   .     D
C609   O611    1.395   .     S
C609   N440    1.418   1_655 S
O611   H612    1.014   .     S
C613   C619    1.428   .     S
C613   O645    1.299   .     A
C613   O647    1.301   .     A
C614   O646    1.301   .     A
C614   O648    1.299   .     A
C614   C620    1.428   .     S
C615   C636    1.419   .     A
C615   C617    1.395   .     A
C615   H639    1.073   .     S
C616   C618    1.378   .     A
C616   C635    1.401   .     A
C616   H640    1.084   .     S
C617   F653    1.358   .     S
C618   F654    1.359   .     S
C618   C22     1.403   1_556 S
C619   C824    1.330   .     S
C619   H845    1.083   .     S
C620   C1027   1.330   1_545 S
C620   H1050   1.086   1_545 S
C621   C623    1.486   .     S
C621   O651    1.316   .     A
C621   O649    1.311   .     A
C622   O650    1.314   .     A
C622   C624    1.490   .     S
C622   O652    1.311   .     A
C623   C627    1.424   .     A
C623   C629    1.401   .     A
C624   C628    1.412   .     A
C624   C630    1.427   .     A
C625   C633    1.410   .     A
C625   C627    1.412   .     A
C625   F807    1.360   1_455 S
C626   C634    1.405   .     A
C626   C628    1.392   .     A
C626   F740    1.361   .     S
C627   C667    1.493   .     S
C628   C663    1.481   .     S
C629   C631    1.398   .     A
C629   C659    1.485   .     S
C630   C655    1.479   .     S
C630   C632    1.435   .     A
C631   C635    1.416   .     A
C631   C633    1.407   .     A
C632   C634    1.431   .     A
C632   C636    1.448   .     A
C633   C5      1.398   1_556 S
C635   C24     1.418   1_556 S
Cu637  O652    1.945   .     S
Cu637  N644    2.048   .     S
Cu637  O645    1.952   .     S
Cu637  O648    1.947   .     S
Cu637  Cu638   2.726   .     S
Cu637  O649    1.952   .     S
Cu638  O650    1.952   .     S
Cu638  O651    1.945   .     S
Cu638  O647    1.947   .     S
Cu638  N643    2.048   .     S
Cu638  O646    1.952   .     S
H641   C1027   1.083   1_545 S
H642   C824    1.086   .     S
N643   N712    1.295   .     S
N643   C741    1.412   .     S
N644   N779    1.295   1_455 S
N644   C813    1.418   1_455 S
C655   O656    1.222   .     D
C655   O657    1.398   .     S
O657   H658    1.014   .     S
C659   O661    1.401   .     S
C659   O660    1.220   .     D
O661   H662    1.009   .     S
C663   O664    1.223   .     D
C663   O733    1.397   .     S
O665   H666    1.014   .     S
O665   C799    1.397   1_455 S
C667   O669    1.398   .     S
C667   O804    1.217   1_455 S
O668   C735    1.217   .     S
O669   H1078   1.013   1_545 S
H670   O873    1.013   .     S
F671   C693    1.360   .     S
F672   C762    1.361   1_455 S
C673   O674    1.220   .     D
C673   N779    1.412   1_455 S
C673   O811    1.396   1_455 S
O675   C741    1.396   .     S
O675   H744    1.012   .     S
H676   O811    1.012   1_455 S
C677   O678    1.219   .     D
C677   O679    1.395   .     S
C677   N712    1.418   .     S
O679   H680    1.014   .     S
C681   C687    1.428   .     S
C681   O713    1.299   .     A
C681   O715    1.301   .     A
C682   O714    1.301   .     A
C682   O716    1.299   .     A
C682   C688    1.428   .     S
C683   C704    1.419   .     A
C683   C685    1.395   .     A
C683   H707    1.073   .     S
C684   C686    1.378   .     A
C684   C703    1.401   .     A
C684   H708    1.084   .     S
C685   F721    1.358   .     S
C686   F722    1.359   .     S
C686   C90     1.403   1_556 S
C687   C892    1.330   .     S
C687   H913    1.083   .     S
C688   C1095   1.330   1_545 S
C688   H1118   1.086   1_545 S
C689   C691    1.486   .     S
C689   O719    1.316   .     A
C689   O717    1.311   .     A
C690   O718    1.314   .     A
C690   C692    1.490   .     S
C690   O720    1.311   .     A
C691   C695    1.424   .     A
C691   C697    1.401   .     A
C692   C696    1.412   .     A
C692   C698    1.427   .     A
C693   C701    1.410   .     A
C693   C695    1.412   .     A
C694   C702    1.405   .     A
C694   C696    1.392   .     A
C694   F808    1.361   .     S
C695   C735    1.493   .     S
C696   C731    1.481   .     S
C697   C699    1.398   .     A
C697   C727    1.485   .     S
C698   C723    1.479   .     S
C698   C700    1.435   .     A
C699   C703    1.416   .     A
C699   C701    1.407   .     A
C700   C702    1.431   .     A
C700   C704    1.448   .     A
C701   C73     1.398   1_556 S
C703   C92     1.418   1_556 S
Cu705  O720    1.945   .     S
Cu705  N712    2.048   .     S
Cu705  O713    1.952   .     S
Cu705  O716    1.947   .     S
Cu705  Cu706   2.726   .     S
Cu705  O717    1.952   .     S
Cu706  O718    1.952   .     S
Cu706  O719    1.945   .     S
Cu706  O715    1.947   .     S
Cu706  N711    2.048   .     S
Cu706  O714    1.952   .     S
H709   C1095   1.083   1_545 S
H710   C892    1.086   .     S
N711   N780    1.295   .     S
N711   C809    1.412   .     S
C723   O724    1.222   .     D
C723   O725    1.398   .     S
O725   H726    1.014   .     S
C727   O729    1.401   .     S
C727   O728    1.220   .     D
O729   H730    1.009   .     S
C731   O732    1.223   .     D
C731   O801    1.397   .     S
O733   H734    1.014   .     S
C735   O737    1.398   .     S
O736   C803    1.217   .     S
O737   H1146   1.013   1_545 S
H738   O941    1.013   .     S
F739   C761    1.360   .     S
C741   O742    1.220   .     D
O743   C809    1.396   .     S
O743   H812    1.012   .     S
C745   O746    1.219   .     D
C745   O747    1.395   .     S
C745   N780    1.418   .     S
O747   H748    1.014   .     S
C749   C755    1.428   .     S
C749   O781    1.299   .     A
C749   O783    1.301   .     A
C750   O782    1.301   .     A
C750   O784    1.299   .     A
C750   C756    1.428   .     S
C751   C772    1.419   .     A
C751   C753    1.395   .     A
C751   H775    1.073   .     S
C752   C754    1.378   .     A
C752   C771    1.401   .     A
C752   H776    1.084   .     S
C753   F789    1.358   .     S
C754   F790    1.359   .     S
C754   C158    1.403   1_556 S
C755   C960    1.330   .     S
C755   H981    1.083   .     S
C756   C1163   1.330   1_545 S
C756   H1186   1.086   1_545 S
C757   C759    1.486   .     S
C757   O787    1.316   .     A
C757   O785    1.311   .     A
C758   O786    1.314   .     A
C758   C760    1.490   .     S
C758   O788    1.311   .     A
C759   C763    1.424   .     A
C759   C765    1.401   .     A
C760   C764    1.412   .     A
C760   C766    1.427   .     A
C761   C769    1.410   .     A
C761   C763    1.412   .     A
C762   C770    1.405   .     A
C762   C764    1.392   .     A
C762   F672    1.361   1_655 S
C763   C803    1.493   .     S
C764   C799    1.481   .     S
C765   C767    1.398   .     A
C765   C795    1.485   .     S
C766   C791    1.479   .     S
C766   C768    1.435   .     A
C767   C771    1.416   .     A
C767   C769    1.407   .     A
C768   C770    1.431   .     A
C768   C772    1.448   .     A
C769   C141    1.398   1_556 S
C771   C160    1.418   1_556 S
Cu773  O788    1.945   .     S
Cu773  N780    2.048   .     S
Cu773  O781    1.952   .     S
Cu773  O784    1.947   .     S
Cu773  Cu774   2.726   .     S
Cu773  O785    1.952   .     S
Cu774  O786    1.952   .     S
Cu774  O787    1.945   .     S
Cu774  O783    1.947   .     S
Cu774  N779    2.048   .     S
Cu774  O782    1.952   .     S
H777   C1163   1.083   1_545 S
H778   C960    1.086   .     S
N779   N644    1.295   1_655 S
N779   C673    1.412   1_655 S
C791   O792    1.222   .     D
C791   O793    1.398   .     S
O793   H794    1.014   .     S
C795   O797    1.401   .     S
C795   O796    1.220   .     D
O797   H798    1.009   .     S
C799   O800    1.223   .     D
C799   O665    1.397   1_655 S
O801   H802    1.014   .     S
C803   O805    1.398   .     S
O804   C667    1.217   1_655 S
O805   H1214   1.013   1_545 S
H806   O1009   1.013   .     S
F807   C625    1.360   1_655 S
C809   O810    1.220   .     D
O811   C673    1.396   1_655 S
O811   H676    1.012   1_655 S
C813   O814    1.219   .     D
C813   O815    1.395   .     S
C813   N644    1.418   1_655 S
O815   H816    1.014   .     S
C817   C823    1.428   .     S
C817   O849    1.299   .     A
C817   O851    1.301   .     A
C818   O850    1.301   .     A
C818   O852    1.299   .     A
C818   C824    1.428   .     S
C819   C840    1.419   .     A
C819   C821    1.395   .     A
C819   H843    1.073   .     S
C820   C822    1.378   .     A
C820   C839    1.401   .     A
C820   H844    1.084   .     S
C821   F857    1.358   .     S
C822   F858    1.359   .     S
C822   C226    1.403   1_556 S
C823   C1028   1.330   .     S
C823   H1049   1.083   .     S
C825   C827    1.486   .     S
C825   O855    1.316   .     A
C825   O853    1.311   .     A
C826   O854    1.314   .     A
C826   C828    1.490   .     S
C826   O856    1.311   .     A
C827   C831    1.424   .     A
C827   C833    1.401   .     A
C828   C832    1.412   .     A
C828   C834    1.427   .     A
C829   C837    1.410   .     A
C829   C831    1.412   .     A
C829   F1011   1.360   1_455 S
C830   C838    1.405   .     A
C830   C832    1.392   .     A
C830   F944    1.361   .     S
C831   C871    1.493   .     S
C832   C867    1.481   .     S
C833   C835    1.398   .     A
C833   C863    1.485   .     S
C834   C859    1.479   .     S
C834   C836    1.435   .     A
C835   C839    1.416   .     A
C835   C837    1.407   .     A
C836   C838    1.431   .     A
C836   C840    1.448   .     A
C837   C209    1.398   1_556 S
C839   C228    1.418   1_556 S
Cu841  O856    1.945   .     S
Cu841  N848    2.048   .     S
Cu841  O849    1.952   .     S
Cu841  O852    1.947   .     S
Cu841  Cu842   2.726   .     S
Cu841  O853    1.952   .     S
Cu842  O854    1.952   .     S
Cu842  O855    1.945   .     S
Cu842  O851    1.947   .     S
Cu842  N847    2.048   .     S
Cu842  O850    1.952   .     S
H846   C1028   1.086   .     S
N847   N916    1.295   .     S
N847   C945    1.412   .     S
N848   N983    1.295   1_455 S
N848   C1017   1.418   1_455 S
C859   O860    1.222   .     D
C859   O861    1.398   .     S
O861   H862    1.014   .     S
C863   O865    1.401   .     S
C863   O864    1.220   .     D
O865   H866    1.009   .     S
C867   O868    1.223   .     D
C867   O937    1.397   .     S
O869   H870    1.014   .     S
O869   C1003   1.397   1_455 S
C871   O873    1.398   .     S
C871   O1008   1.217   1_455 S
O872   C939    1.217   .     S
H874   O1077   1.013   .     S
F875   C897    1.360   .     S
F876   C966    1.361   1_455 S
C877   O878    1.220   .     D
C877   N983    1.412   1_455 S
C877   O1015   1.396   1_455 S
O879   C945    1.396   .     S
O879   H948    1.012   .     S
H880   O1015   1.012   1_455 S
C881   O882    1.219   .     D
C881   O883    1.395   .     S
C881   N916    1.418   .     S
O883   H884    1.014   .     S
C885   C891    1.428   .     S
C885   O917    1.299   .     A
C885   O919    1.301   .     A
C886   O918    1.301   .     A
C886   O920    1.299   .     A
C886   C892    1.428   .     S
C887   C908    1.419   .     A
C887   C889    1.395   .     A
C887   H911    1.073   .     S
C888   C890    1.378   .     A
C888   C907    1.401   .     A
C888   H912    1.084   .     S
C889   F925    1.358   .     S
C890   F926    1.359   .     S
C890   C294    1.403   1_556 S
C891   C1096   1.330   .     S
C891   H1117   1.083   .     S
C893   C895    1.486   .     S
C893   O923    1.316   .     A
C893   O921    1.311   .     A
C894   O922    1.314   .     A
C894   C896    1.490   .     S
C894   O924    1.311   .     A
C895   C899    1.424   .     A
C895   C901    1.401   .     A
C896   C900    1.412   .     A
C896   C902    1.427   .     A
C897   C905    1.410   .     A
C897   C899    1.412   .     A
C898   C906    1.405   .     A
C898   C900    1.392   .     A
C898   F1012   1.361   .     S
C899   C939    1.493   .     S
C900   C935    1.481   .     S
C901   C903    1.398   .     A
C901   C931    1.485   .     S
C902   C927    1.479   .     S
C902   C904    1.435   .     A
C903   C907    1.416   .     A
C903   C905    1.407   .     A
C904   C906    1.431   .     A
C904   C908    1.448   .     A
C905   C277    1.398   1_556 S
C907   C296    1.418   1_556 S
Cu909  O924    1.945   .     S
Cu909  N916    2.048   .     S
Cu909  O917    1.952   .     S
Cu909  O920    1.947   .     S
Cu909  Cu910   2.726   .     S
Cu909  O921    1.952   .     S
Cu910  O922    1.952   .     S
Cu910  O923    1.945   .     S
Cu910  O919    1.947   .     S
Cu910  N915    2.048   .     S
Cu910  O918    1.952   .     S
H914   C1096   1.086   .     S
N915   N984    1.295   .     S
N915   C1013   1.412   .     S
C927   O928    1.222   .     D
C927   O929    1.398   .     S
O929   H930    1.014   .     S
C931   O933    1.401   .     S
C931   O932    1.220   .     D
O933   H934    1.009   .     S
C935   O936    1.223   .     D
C935   O1005   1.397   .     S
O937   H938    1.014   .     S
C939   O941    1.398   .     S
O940   C1007   1.217   .     S
H942   O1145   1.013   .     S
F943   C965    1.360   .     S
C945   O946    1.220   .     D
O947   C1013   1.396   .     S
O947   H1016   1.012   .     S
C949   O950    1.219   .     D
C949   O951    1.395   .     S
C949   N984    1.418   .     S
O951   H952    1.014   .     S
C953   C959    1.428   .     S
C953   O985    1.299   .     A
C953   O987    1.301   .     A
C954   O986    1.301   .     A
C954   O988    1.299   .     A
C954   C960    1.428   .     S
C955   C976    1.419   .     A
C955   C957    1.395   .     A
C955   H979    1.073   .     S
C956   C958    1.378   .     A
C956   C975    1.401   .     A
C956   H980    1.084   .     S
C957   F993    1.358   .     S
C958   F994    1.359   .     S
C958   C362    1.403   1_556 S
C959   C1164   1.330   .     S
C959   H1185   1.083   .     S
C961   C963    1.486   .     S
C961   O991    1.316   .     A
C961   O989    1.311   .     A
C962   O990    1.314   .     A
C962   C964    1.490   .     S
C962   O992    1.311   .     A
C963   C967    1.424   .     A
C963   C969    1.401   .     A
C964   C968    1.412   .     A
C964   C970    1.427   .     A
C965   C973    1.410   .     A
C965   C967    1.412   .     A
C966   C974    1.405   .     A
C966   C968    1.392   .     A
C966   F876    1.361   1_655 S
C967   C1007   1.493   .     S
C968   C1003   1.481   .     S
C969   C971    1.398   .     A
C969   C999    1.485   .     S
C970   C995    1.479   .     S
C970   C972    1.435   .     A
C971   C975    1.416   .     A
C971   C973    1.407   .     A
C972   C974    1.431   .     A
C972   C976    1.448   .     A
C973   C345    1.398   1_556 S
C975   C364    1.418   1_556 S
Cu977  O992    1.945   .     S
Cu977  N984    2.048   .     S
Cu977  O985    1.952   .     S
Cu977  O988    1.947   .     S
Cu977  Cu978   2.726   .     S
Cu977  O989    1.952   .     S
Cu978  O990    1.952   .     S
Cu978  O991    1.945   .     S
Cu978  O987    1.947   .     S
Cu978  N983    2.048   .     S
Cu978  O986    1.952   .     S
H982   C1164   1.086   .     S
N983   N848    1.295   1_655 S
N983   C877    1.412   1_655 S
C995   O996    1.222   .     D
C995   O997    1.398   .     S
O997   H998    1.014   .     S
C999   O1001   1.401   .     S
C999   O1000   1.220   .     D
O1001  H1002   1.009   .     S
C1003  O1004   1.223   .     D
C1003  O869    1.397   1_655 S
O1005  H1006   1.014   .     S
C1007  O1009   1.398   .     S
O1008  C871    1.217   1_655 S
H1010  O1213   1.013   .     S
F1011  C829    1.360   1_655 S
C1013  O1014   1.220   .     D
O1015  C877    1.396   1_655 S
O1015  H880    1.012   1_655 S
C1017  O1018   1.219   .     D
C1017  O1019   1.395   .     S
C1017  N848    1.418   1_655 S
O1019  H1020   1.014   .     S
C1021  C1027   1.428   .     S
C1021  O1053   1.299   .     A
C1021  O1055   1.301   .     A
C1022  O1054   1.301   .     A
C1022  O1056   1.299   .     A
C1022  C1028   1.428   .     S
C1023  C1044   1.419   .     A
C1023  C1025   1.395   .     A
C1023  H1047   1.073   .     S
C1024  C1026   1.378   .     A
C1024  C1043   1.401   .     A
C1024  H1048   1.084   .     S
C1025  F1061   1.358   .     S
C1026  F1062   1.359   .     S
C1026  C430    1.403   1_556 S
C1027  C620    1.330   1_565 S
C1027  H641    1.083   1_565 S
C1029  C1031   1.486   .     S
C1029  O1059   1.316   .     A
C1029  O1057   1.311   .     A
C1030  O1058   1.314   .     A
C1030  C1032   1.490   .     S
C1030  O1060   1.311   .     A
C1031  C1035   1.424   .     A
C1031  C1037   1.401   .     A
C1032  C1036   1.412   .     A
C1032  C1038   1.427   .     A
C1033  C1041   1.410   .     A
C1033  C1035   1.412   .     A
C1033  F1215   1.360   1_455 S
C1034  C1042   1.405   .     A
C1034  C1036   1.392   .     A
C1034  F1148   1.361   .     S
C1035  C1075   1.493   .     S
C1036  C1071   1.481   .     S
C1037  C1039   1.398   .     A
C1037  C1067   1.485   .     S
C1038  C1063   1.479   .     S
C1038  C1040   1.435   .     A
C1039  C1043   1.416   .     A
C1039  C1041   1.407   .     A
C1040  C1042   1.431   .     A
C1040  C1044   1.448   .     A
C1041  C413    1.398   1_556 S
C1043  C432    1.418   1_556 S
Cu1045 O1060   1.945   .     S
Cu1045 N1052   2.048   .     S
Cu1045 O1053   1.952   .     S
Cu1045 O1056   1.947   .     S
Cu1045 Cu1046  2.726   .     S
Cu1045 O1057   1.952   .     S
Cu1046 O1058   1.952   .     S
Cu1046 O1059   1.945   .     S
Cu1046 O1055   1.947   .     S
Cu1046 N1051   2.048   .     S
Cu1046 O1054   1.952   .     S
H1050  C620    1.086   1_565 S
N1051  N1120   1.295   .     S
N1051  C1149   1.412   .     S
N1052  N1187   1.295   1_455 S
N1052  C1221   1.418   1_455 S
C1063  O1064   1.222   .     D
C1063  O1065   1.398   .     S
O1065  H1066   1.014   .     S
C1067  O1069   1.401   .     S
C1067  O1068   1.220   .     D
O1069  H1070   1.009   .     S
C1071  O1072   1.223   .     D
C1071  O1141   1.397   .     S
O1073  H1074   1.014   .     S
O1073  C1207   1.397   1_455 S
C1075  O1077   1.398   .     S
C1075  O1212   1.217   1_455 S
O1076  C1143   1.217   .     S
H1078  O669    1.013   1_565 S
F1079  C1101   1.360   .     S
F1080  C1170   1.361   1_455 S
C1081  O1082   1.220   .     D
C1081  N1187   1.412   1_455 S
C1081  O1219   1.396   1_455 S
O1083  C1149   1.396   .     S
O1083  H1152   1.012   .     S
H1084  O1219   1.012   1_455 S
C1085  O1086   1.219   .     D
C1085  O1087   1.395   .     S
C1085  N1120   1.418   .     S
O1087  H1088   1.014   .     S
C1089  C1095   1.428   .     S
C1089  O1121   1.299   .     A
C1089  O1123   1.301   .     A
C1090  O1122   1.301   .     A
C1090  O1124   1.299   .     A
C1090  C1096   1.428   .     S
C1091  C1112   1.419   .     A
C1091  C1093   1.395   .     A
C1091  H1115   1.073   .     S
C1092  C1094   1.378   .     A
C1092  C1111   1.401   .     A
C1092  H1116   1.084   .     S
C1093  F1129   1.358   .     S
C1094  F1130   1.359   .     S
C1094  C498    1.403   1_556 S
C1095  C688    1.330   1_565 S
C1095  H709    1.083   1_565 S
C1097  C1099   1.486   .     S
C1097  O1127   1.316   .     A
C1097  O1125   1.311   .     A
C1098  O1126   1.314   .     A
C1098  C1100   1.490   .     S
C1098  O1128   1.311   .     A
C1099  C1103   1.424   .     A
C1099  C1105   1.401   .     A
C1100  C1104   1.412   .     A
C1100  C1106   1.427   .     A
C1101  C1109   1.410   .     A
C1101  C1103   1.412   .     A
C1102  C1110   1.405   .     A
C1102  C1104   1.392   .     A
C1102  F1216   1.361   .     S
C1103  C1143   1.493   .     S
C1104  C1139   1.481   .     S
C1105  C1107   1.398   .     A
C1105  C1135   1.485   .     S
C1106  C1131   1.479   .     S
C1106  C1108   1.435   .     A
C1107  C1111   1.416   .     A
C1107  C1109   1.407   .     A
C1108  C1110   1.431   .     A
C1108  C1112   1.448   .     A
C1109  C481    1.398   1_556 S
C1111  C500    1.418   1_556 S
Cu1113 O1128   1.945   .     S
Cu1113 N1120   2.048   .     S
Cu1113 O1121   1.952   .     S
Cu1113 O1124   1.947   .     S
Cu1113 Cu1114  2.726   .     S
Cu1113 O1125   1.952   .     S
Cu1114 O1126   1.952   .     S
Cu1114 O1127   1.945   .     S
Cu1114 O1123   1.947   .     S
Cu1114 N1119   2.048   .     S
Cu1114 O1122   1.952   .     S
H1118  C688    1.086   1_565 S
N1119  N1188   1.295   .     S
N1119  C1217   1.412   .     S
C1131  O1132   1.222   .     D
C1131  O1133   1.398   .     S
O1133  H1134   1.014   .     S
C1135  O1137   1.401   .     S
C1135  O1136   1.220   .     D
O1137  H1138   1.009   .     S
C1139  O1140   1.223   .     D
C1139  O1209   1.397   .     S
O1141  H1142   1.014   .     S
C1143  O1145   1.398   .     S
O1144  C1211   1.217   .     S
H1146  O737    1.013   1_565 S
F1147  C1169   1.360   .     S
C1149  O1150   1.220   .     D
O1151  C1217   1.396   .     S
O1151  H1220   1.012   .     S
C1153  O1154   1.219   .     D
C1153  O1155   1.395   .     S
C1153  N1188   1.418   .     S
O1155  H1156   1.014   .     S
C1157  C1163   1.428   .     S
C1157  O1189   1.299   .     A
C1157  O1191   1.301   .     A
C1158  O1190   1.301   .     A
C1158  O1192   1.299   .     A
C1158  C1164   1.428   .     S
C1159  C1180   1.419   .     A
C1159  C1161   1.395   .     A
C1159  H1183   1.073   .     S
C1160  C1162   1.378   .     A
C1160  C1179   1.401   .     A
C1160  H1184   1.084   .     S
C1161  F1197   1.358   .     S
C1162  F1198   1.359   .     S
C1162  C566    1.403   1_556 S
C1163  C756    1.330   1_565 S
C1163  H777    1.083   1_565 S
C1165  C1167   1.486   .     S
C1165  O1195   1.316   .     A
C1165  O1193   1.311   .     A
C1166  O1194   1.314   .     A
C1166  C1168   1.490   .     S
C1166  O1196   1.311   .     A
C1167  C1171   1.424   .     A
C1167  C1173   1.401   .     A
C1168  C1172   1.412   .     A
C1168  C1174   1.427   .     A
C1169  C1177   1.410   .     A
C1169  C1171   1.412   .     A
C1170  C1178   1.405   .     A
C1170  C1172   1.392   .     A
C1170  F1080   1.361   1_655 S
C1171  C1211   1.493   .     S
C1172  C1207   1.481   .     S
C1173  C1175   1.398   .     A
C1173  C1203   1.485   .     S
C1174  C1199   1.479   .     S
C1174  C1176   1.435   .     A
C1175  C1179   1.416   .     A
C1175  C1177   1.407   .     A
C1176  C1178   1.431   .     A
C1176  C1180   1.448   .     A
C1177  C549    1.398   1_556 S
C1179  C568    1.418   1_556 S
Cu1181 O1196   1.945   .     S
Cu1181 N1188   2.048   .     S
Cu1181 O1189   1.952   .     S
Cu1181 O1192   1.947   .     S
Cu1181 Cu1182  2.726   .     S
Cu1181 O1193   1.952   .     S
Cu1182 O1194   1.952   .     S
Cu1182 O1195   1.945   .     S
Cu1182 O1191   1.947   .     S
Cu1182 N1187   2.048   .     S
Cu1182 O1190   1.952   .     S
H1186  C756    1.086   1_565 S
N1187  N1052   1.295   1_655 S
N1187  C1081   1.412   1_655 S
C1199  O1200   1.222   .     D
C1199  O1201   1.398   .     S
O1201  H1202   1.014   .     S
C1203  O1205   1.401   .     S
C1203  O1204   1.220   .     D
O1205  H1206   1.009   .     S
C1207  O1208   1.223   .     D
C1207  O1073   1.397   1_655 S
O1209  H1210   1.014   .     S
C1211  O1213   1.398   .     S
O1212  C1075   1.217   1_655 S
H1214  O805    1.013   1_565 S
F1215  C1033   1.360   1_655 S
C1217  O1218   1.220   .     D
O1219  C1081   1.396   1_655 S
O1219  H1084   1.012   1_655 S
C1221  O1222   1.219   .     D
C1221  O1223   1.395   .     S
C1221  N1052   1.418   1_655 S
O1223  H1224   1.014   .     S
