data_str_m3_o1_o18_pcu_sym.202
_audit_creation_date              2020-01-03
_audit_creation_method            'Materials Studio'
_symmetry_space_group_name_H-M    'P1'
_symmetry_Int_Tables_number       1
_symmetry_cell_setting            triclinic
loop_
_symmetry_equiv_pos_as_xyz
  x,y,z
_cell_length_a                    29.5907
_cell_length_b                    31.9929
_cell_length_c                    31.0734
_cell_angle_alpha                 89.7628
_cell_angle_beta                  69.0629
_cell_angle_gamma                 90.9109
loop_
_atom_site_label
_atom_site_type_symbol
_atom_site_fract_x
_atom_site_fract_y
_atom_site_fract_z
_atom_site_U_iso_or_equiv
_atom_site_adp_type
_atom_site_occupancy
C1     C     0.16693   0.24666   0.24994   0.00000  Uiso   1.00
C2     C     0.16641   0.08670   0.24988   0.00000  Uiso   1.00
C3     C     0.11734   0.19045   0.04888   0.00000  Uiso   1.00
C4     C     0.21719   0.14598   0.45038   0.00000  Uiso   1.00
C5     C     0.08373   0.20089   0.02876   0.00000  Uiso   1.00
C6     C     0.25078   0.13556   0.47054   0.00000  Uiso   1.00
C7     C     0.20936   0.31281   0.22507   0.00000  Uiso   1.00
C8     C     0.12354   0.02066   0.27362   0.00000  Uiso   1.00
C9     C     0.20909   0.02235   0.22498   0.00000  Uiso   1.00
C10    C     0.12396   0.31110   0.27409   0.00000  Uiso   1.00
C11    C     0.16621   0.04260   0.24933   0.00000  Uiso   1.00
C12    C     0.16697   0.29082   0.25003   0.00000  Uiso   1.00
C13    C     0.29897   0.13828   0.27598   0.00000  Uiso   1.00
C14    C     0.03470   0.19474   0.22389   0.00000  Uiso   1.00
C15    C     0.01353   0.13843   0.27639   0.00000  Uiso   1.00
C16    C     0.32028   0.19536   0.22422   0.00000  Uiso   1.00
C17    C     0.13711   0.17119   0.33729   0.00000  Uiso   1.00
C18    C     0.19626   0.16252   0.16261   0.00000  Uiso   1.00
C19    C     0.12080   0.18179   0.38641   0.00000  Uiso   1.00
C20    C     0.21281   0.15298   0.11323   0.00000  Uiso   1.00
C21    C     0.06048   0.19982   0.46015   0.00000  Uiso   1.00
C22    C     0.27371   0.13614   0.03937   0.00000  Uiso   1.00
C23    C     0.07254   0.19210   0.41313   0.00000  Uiso   1.00
C24    C     0.26127   0.14332   0.08678   0.00000  Uiso   1.00
C25    C     0.15600   0.18433   0.40695   0.00000  Uiso   1.00
C26    C     0.17791   0.15102   0.09232   0.00000  Uiso   1.00
C27    C     0.14158   0.18046   0.45460   0.00000  Uiso   1.00
C28    C     0.19270   0.15560   0.04472   0.00000  Uiso   1.00
C29    C     0.09445   0.19321   0.48163   0.00000  Uiso   1.00
C30    C     0.23989   0.14298   0.01776   0.00000  Uiso   1.00
C31    C     0.17375   0.16626   0.47566   0.00000  Uiso   1.00
C32    C     0.16070   0.17007   0.02360   0.00000  Uiso   1.00
H33    H     0.02419   0.20988   0.47955   0.00000  Uiso   1.00
H34    H     0.31003   0.12637   0.01967   0.00000  Uiso   1.00
H35    H     0.10914   0.19847   0.08465   0.00000  Uiso   1.00
H36    H     0.22547   0.13795   0.41461   0.00000  Uiso   1.00
H37    H     0.24202   0.29702   0.20493   0.00000  Uiso   1.00
H38    H     0.09054   0.03662   0.29282   0.00000  Uiso   1.00
H39    H     0.24191   0.03965   0.20554   0.00000  Uiso   1.00
H40    H     0.09110   0.29381   0.29345   0.00000  Uiso   1.00
H41    H     0.27241   0.11574   0.29683   0.00000  Uiso   1.00
H42    H     0.06126   0.21747   0.20342   0.00000  Uiso   1.00
N43    N     0.04759   0.16668   0.25001   0.00000  Uiso   1.00
N44    N     0.28574   0.16666   0.24999   0.00000  Uiso   1.00
O45    O     0.12846   0.22775   0.25000   0.00000  Uiso   1.00
O46    O     0.20488   0.10558   0.24999   0.00000  Uiso   1.00
O47    O     0.20490   0.22774   0.25000   0.00000  Uiso   1.00
O48    O     0.12843   0.10559   0.25000   0.00000  Uiso   1.00
O49    O     0.10661   0.16667   0.31612   0.00000  Uiso   1.00
O50    O     0.22672   0.16666   0.18387   0.00000  Uiso   1.00
O51    O     0.18305   0.16666   0.31612   0.00000  Uiso   1.00
O52    O     0.15028   0.16667   0.18388   0.00000  Uiso   1.00
Zn53   Zn    0.11562   0.16667   0.25000   0.00000  Uiso   1.00
Zn54   Zn    0.21771   0.16666   0.25000   0.00000  Uiso   1.00
N55    N     0.04054   0.22155   0.05633   0.00000  Uiso   1.00
H56    H     0.01069   0.20447   0.05521   0.00000  Uiso   1.00
H57    H     0.04036   0.25099   0.04167   0.00000  Uiso   1.00
N58    N     0.29404   0.11502   0.44292   0.00000  Uiso   1.00
H59    H     0.29439   0.08558   0.45753   0.00000  Uiso   1.00
H60    H     0.32384   0.13223   0.44394   0.00000  Uiso   1.00
I61    I     0.11050   0.11701   0.12563   0.00000  Uiso   1.00
I62    I     0.22305   0.21850   0.37269   0.00000  Uiso   1.00
N63    N     0.29605   0.13634   0.10855   0.00000  Uiso   1.00
H64    H     0.32806   0.12455   0.08499   0.00000  Uiso   1.00
H65    H     0.30522   0.16518   0.11901   0.00000  Uiso   1.00
N66    N     0.03651   0.19917   0.39312   0.00000  Uiso   1.00
H67    H     0.02989   0.17152   0.37851   0.00000  Uiso   1.00
H68    H     0.04959   0.22205   0.36729   0.00000  Uiso   1.00
N69    N     0.02641   0.10898   0.30450   0.00000  Uiso   1.00
H70    H     0.00324   0.11294   0.33862   0.00000  Uiso   1.00
H71    H     0.01993   0.07900   0.29443   0.00000  Uiso   1.00
N72    N     0.30868   0.22837   0.19928   0.00000  Uiso   1.00
H73    H     0.28869   0.21664   0.18034   0.00000  Uiso   1.00
H74    H     0.28853   0.24987   0.22329   0.00000  Uiso   1.00
C75    C     0.50026   0.24666   0.24994   0.00000  Uiso   1.00
C76    C     0.49975   0.08670   0.24988   0.00000  Uiso   1.00
C77    C     0.45067   0.19045   0.04888   0.00000  Uiso   1.00
C78    C     0.55053   0.14598   0.45038   0.00000  Uiso   1.00
C79    C     0.41706   0.20089   0.02876   0.00000  Uiso   1.00
C80    C     0.58411   0.13556   0.47054   0.00000  Uiso   1.00
C81    C     0.54269   0.31281   0.22507   0.00000  Uiso   1.00
C82    C     0.45688   0.02066   0.27362   0.00000  Uiso   1.00
C83    C     0.54242   0.02235   0.22498   0.00000  Uiso   1.00
C84    C     0.45729   0.31110   0.27409   0.00000  Uiso   1.00
C85    C     0.49954   0.04260   0.24933   0.00000  Uiso   1.00
C86    C     0.50031   0.29082   0.25003   0.00000  Uiso   1.00
C87    C     0.63230   0.13828   0.27598   0.00000  Uiso   1.00
C88    C     0.36803   0.19474   0.22389   0.00000  Uiso   1.00
C89    C     0.34687   0.13843   0.27639   0.00000  Uiso   1.00
C90    C     0.65362   0.19536   0.22422   0.00000  Uiso   1.00
C91    C     0.47045   0.17119   0.33729   0.00000  Uiso   1.00
C92    C     0.52959   0.16252   0.16261   0.00000  Uiso   1.00
C93    C     0.45414   0.18179   0.38641   0.00000  Uiso   1.00
C94    C     0.54615   0.15298   0.11323   0.00000  Uiso   1.00
C95    C     0.39382   0.19982   0.46015   0.00000  Uiso   1.00
C96    C     0.60704   0.13614   0.03937   0.00000  Uiso   1.00
C97    C     0.40587   0.19210   0.41313   0.00000  Uiso   1.00
C98    C     0.59460   0.14332   0.08678   0.00000  Uiso   1.00
C99    C     0.48933   0.18433   0.40695   0.00000  Uiso   1.00
C100   C     0.51124   0.15102   0.09232   0.00000  Uiso   1.00
C101   C     0.47492   0.18046   0.45460   0.00000  Uiso   1.00
C102   C     0.52603   0.15560   0.04472   0.00000  Uiso   1.00
C103   C     0.42778   0.19321   0.48163   0.00000  Uiso   1.00
C104   C     0.57323   0.14298   0.01776   0.00000  Uiso   1.00
C105   C     0.50708   0.16626   0.47566   0.00000  Uiso   1.00
C106   C     0.49404   0.17007   0.02360   0.00000  Uiso   1.00
H107   H     0.35752   0.20988   0.47955   0.00000  Uiso   1.00
H108   H     0.64336   0.12637   0.01967   0.00000  Uiso   1.00
H109   H     0.44248   0.19847   0.08465   0.00000  Uiso   1.00
H110   H     0.55880   0.13795   0.41461   0.00000  Uiso   1.00
H111   H     0.57535   0.29702   0.20493   0.00000  Uiso   1.00
H112   H     0.42388   0.03662   0.29282   0.00000  Uiso   1.00
H113   H     0.57524   0.03965   0.20554   0.00000  Uiso   1.00
H114   H     0.42444   0.29381   0.29345   0.00000  Uiso   1.00
H115   H     0.60575   0.11574   0.29683   0.00000  Uiso   1.00
H116   H     0.39460   0.21747   0.20342   0.00000  Uiso   1.00
N117   N     0.38093   0.16668   0.25001   0.00000  Uiso   1.00
N118   N     0.61907   0.16666   0.24999   0.00000  Uiso   1.00
O119   O     0.46179   0.22775   0.25000   0.00000  Uiso   1.00
O120   O     0.53821   0.10558   0.24999   0.00000  Uiso   1.00
O121   O     0.53823   0.22774   0.25000   0.00000  Uiso   1.00
O122   O     0.46177   0.10559   0.25000   0.00000  Uiso   1.00
O123   O     0.43994   0.16667   0.31612   0.00000  Uiso   1.00
O124   O     0.56006   0.16666   0.18387   0.00000  Uiso   1.00
O125   O     0.51639   0.16666   0.31612   0.00000  Uiso   1.00
O126   O     0.48361   0.16667   0.18388   0.00000  Uiso   1.00
Zn127  Zn    0.44896   0.16667   0.25000   0.00000  Uiso   1.00
Zn128  Zn    0.55104   0.16666   0.25000   0.00000  Uiso   1.00
N129   N     0.37388   0.22155   0.05633   0.00000  Uiso   1.00
H130   H     0.34402   0.20447   0.05521   0.00000  Uiso   1.00
H131   H     0.37370   0.25099   0.04167   0.00000  Uiso   1.00
N132   N     0.62737   0.11502   0.44292   0.00000  Uiso   1.00
H133   H     0.62772   0.08558   0.45753   0.00000  Uiso   1.00
H134   H     0.65718   0.13223   0.44394   0.00000  Uiso   1.00
I135   I     0.44384   0.11701   0.12563   0.00000  Uiso   1.00
I136   I     0.55639   0.21850   0.37269   0.00000  Uiso   1.00
N137   N     0.62938   0.13634   0.10855   0.00000  Uiso   1.00
H138   H     0.66140   0.12455   0.08499   0.00000  Uiso   1.00
H139   H     0.63855   0.16518   0.11901   0.00000  Uiso   1.00
N140   N     0.36984   0.19917   0.39312   0.00000  Uiso   1.00
H141   H     0.36323   0.17152   0.37851   0.00000  Uiso   1.00
H142   H     0.38292   0.22205   0.36729   0.00000  Uiso   1.00
N143   N     0.35975   0.10898   0.30450   0.00000  Uiso   1.00
H144   H     0.33657   0.11294   0.33862   0.00000  Uiso   1.00
H145   H     0.35327   0.07900   0.29443   0.00000  Uiso   1.00
N146   N     0.64201   0.22837   0.19928   0.00000  Uiso   1.00
H147   H     0.62202   0.21664   0.18034   0.00000  Uiso   1.00
H148   H     0.62186   0.24987   0.22329   0.00000  Uiso   1.00
C149   C     0.83360   0.24666   0.24994   0.00000  Uiso   1.00
C150   C     0.83308   0.08670   0.24988   0.00000  Uiso   1.00
C151   C     0.78401   0.19045   0.04888   0.00000  Uiso   1.00
C152   C     0.88386   0.14598   0.45038   0.00000  Uiso   1.00
C153   C     0.75040   0.20089   0.02876   0.00000  Uiso   1.00
C154   C     0.91744   0.13556   0.47054   0.00000  Uiso   1.00
C155   C     0.87603   0.31281   0.22507   0.00000  Uiso   1.00
C156   C     0.79021   0.02066   0.27362   0.00000  Uiso   1.00
C157   C     0.87576   0.02235   0.22498   0.00000  Uiso   1.00
C158   C     0.79062   0.31110   0.27409   0.00000  Uiso   1.00
C159   C     0.83287   0.04260   0.24933   0.00000  Uiso   1.00
C160   C     0.83364   0.29082   0.25003   0.00000  Uiso   1.00
C161   C     0.96563   0.13828   0.27598   0.00000  Uiso   1.00
C162   C     0.70136   0.19474   0.22389   0.00000  Uiso   1.00
C163   C     0.68020   0.13843   0.27639   0.00000  Uiso   1.00
C164   C     0.98695   0.19536   0.22422   0.00000  Uiso   1.00
C165   C     0.80378   0.17119   0.33729   0.00000  Uiso   1.00
C166   C     0.86292   0.16252   0.16261   0.00000  Uiso   1.00
C167   C     0.78747   0.18179   0.38641   0.00000  Uiso   1.00
C168   C     0.87948   0.15298   0.11323   0.00000  Uiso   1.00
C169   C     0.72715   0.19982   0.46015   0.00000  Uiso   1.00
C170   C     0.94038   0.13614   0.03937   0.00000  Uiso   1.00
C171   C     0.73921   0.19210   0.41313   0.00000  Uiso   1.00
C172   C     0.92794   0.14332   0.08678   0.00000  Uiso   1.00
C173   C     0.82267   0.18433   0.40695   0.00000  Uiso   1.00
C174   C     0.84457   0.15102   0.09232   0.00000  Uiso   1.00
C175   C     0.80825   0.18046   0.45460   0.00000  Uiso   1.00
C176   C     0.85937   0.15560   0.04472   0.00000  Uiso   1.00
C177   C     0.76112   0.19321   0.48163   0.00000  Uiso   1.00
C178   C     0.90656   0.14298   0.01776   0.00000  Uiso   1.00
C179   C     0.84042   0.16626   0.47566   0.00000  Uiso   1.00
C180   C     0.82737   0.17007   0.02360   0.00000  Uiso   1.00
H181   H     0.69085   0.20988   0.47955   0.00000  Uiso   1.00
H182   H     0.97670   0.12637   0.01967   0.00000  Uiso   1.00
H183   H     0.77581   0.19847   0.08465   0.00000  Uiso   1.00
H184   H     0.89213   0.13795   0.41461   0.00000  Uiso   1.00
H185   H     0.90869   0.29702   0.20493   0.00000  Uiso   1.00
H186   H     0.75721   0.03662   0.29282   0.00000  Uiso   1.00
H187   H     0.90858   0.03965   0.20554   0.00000  Uiso   1.00
H188   H     0.75777   0.29381   0.29345   0.00000  Uiso   1.00
H189   H     0.93908   0.11574   0.29683   0.00000  Uiso   1.00
H190   H     0.72793   0.21747   0.20342   0.00000  Uiso   1.00
N191   N     0.71426   0.16668   0.25001   0.00000  Uiso   1.00
N192   N     0.95241   0.16666   0.24999   0.00000  Uiso   1.00
O193   O     0.79512   0.22775   0.25000   0.00000  Uiso   1.00
O194   O     0.87154   0.10558   0.24999   0.00000  Uiso   1.00
O195   O     0.87157   0.22774   0.25000   0.00000  Uiso   1.00
O196   O     0.79510   0.10559   0.25000   0.00000  Uiso   1.00
O197   O     0.77328   0.16667   0.31612   0.00000  Uiso   1.00
O198   O     0.89339   0.16666   0.18387   0.00000  Uiso   1.00
O199   O     0.84972   0.16666   0.31612   0.00000  Uiso   1.00
O200   O     0.81695   0.16667   0.18388   0.00000  Uiso   1.00
Zn201  Zn    0.78229   0.16667   0.25000   0.00000  Uiso   1.00
Zn202  Zn    0.88438   0.16666   0.25000   0.00000  Uiso   1.00
N203   N     0.70721   0.22155   0.05633   0.00000  Uiso   1.00
H204   H     0.67736   0.20447   0.05521   0.00000  Uiso   1.00
H205   H     0.70703   0.25099   0.04167   0.00000  Uiso   1.00
N206   N     0.96070   0.11502   0.44292   0.00000  Uiso   1.00
H207   H     0.96105   0.08558   0.45753   0.00000  Uiso   1.00
H208   H     0.99051   0.13223   0.44394   0.00000  Uiso   1.00
I209   I     0.77717   0.11701   0.12563   0.00000  Uiso   1.00
I210   I     0.88972   0.21850   0.37269   0.00000  Uiso   1.00
N211   N     0.96272   0.13634   0.10855   0.00000  Uiso   1.00
H212   H     0.99473   0.12455   0.08499   0.00000  Uiso   1.00
H213   H     0.97189   0.16518   0.11901   0.00000  Uiso   1.00
N214   N     0.70318   0.19917   0.39312   0.00000  Uiso   1.00
H215   H     0.69656   0.17152   0.37851   0.00000  Uiso   1.00
H216   H     0.71625   0.22205   0.36729   0.00000  Uiso   1.00
N217   N     0.69308   0.10898   0.30450   0.00000  Uiso   1.00
H218   H     0.66991   0.11294   0.33862   0.00000  Uiso   1.00
H219   H     0.68660   0.07900   0.29443   0.00000  Uiso   1.00
N220   N     0.97534   0.22837   0.19928   0.00000  Uiso   1.00
H221   H     0.95536   0.21664   0.18034   0.00000  Uiso   1.00
H222   H     0.95519   0.24987   0.22329   0.00000  Uiso   1.00
C223   C     0.16693   0.58000   0.24994   0.00000  Uiso   1.00
C224   C     0.16641   0.42003   0.24988   0.00000  Uiso   1.00
C225   C     0.11734   0.52379   0.04888   0.00000  Uiso   1.00
C226   C     0.21719   0.47931   0.45038   0.00000  Uiso   1.00
C227   C     0.08373   0.53422   0.02876   0.00000  Uiso   1.00
C228   C     0.25078   0.46889   0.47054   0.00000  Uiso   1.00
C229   C     0.20936   0.64615   0.22507   0.00000  Uiso   1.00
C230   C     0.12354   0.35399   0.27362   0.00000  Uiso   1.00
C231   C     0.20909   0.35568   0.22498   0.00000  Uiso   1.00
C232   C     0.12396   0.64443   0.27409   0.00000  Uiso   1.00
C233   C     0.16621   0.37593   0.24933   0.00000  Uiso   1.00
C234   C     0.16697   0.62416   0.25003   0.00000  Uiso   1.00
C235   C     0.29897   0.47162   0.27598   0.00000  Uiso   1.00
C236   C     0.03470   0.52808   0.22389   0.00000  Uiso   1.00
C237   C     0.01353   0.47176   0.27639   0.00000  Uiso   1.00
C238   C     0.32028   0.52870   0.22422   0.00000  Uiso   1.00
C239   C     0.13711   0.50453   0.33729   0.00000  Uiso   1.00
C240   C     0.19626   0.49585   0.16261   0.00000  Uiso   1.00
C241   C     0.12080   0.51512   0.38641   0.00000  Uiso   1.00
C242   C     0.21281   0.48631   0.11323   0.00000  Uiso   1.00
C243   C     0.06048   0.53315   0.46015   0.00000  Uiso   1.00
C244   C     0.27371   0.46948   0.03937   0.00000  Uiso   1.00
C245   C     0.07254   0.52543   0.41313   0.00000  Uiso   1.00
C246   C     0.26127   0.47665   0.08678   0.00000  Uiso   1.00
C247   C     0.15600   0.51766   0.40695   0.00000  Uiso   1.00
C248   C     0.17791   0.48435   0.09232   0.00000  Uiso   1.00
C249   C     0.14158   0.51379   0.45460   0.00000  Uiso   1.00
C250   C     0.19270   0.48893   0.04472   0.00000  Uiso   1.00
C251   C     0.09445   0.52655   0.48163   0.00000  Uiso   1.00
C252   C     0.23989   0.47631   0.01776   0.00000  Uiso   1.00
C253   C     0.17375   0.49959   0.47566   0.00000  Uiso   1.00
C254   C     0.16070   0.50340   0.02360   0.00000  Uiso   1.00
H255   H     0.02419   0.54321   0.47955   0.00000  Uiso   1.00
H256   H     0.31003   0.45970   0.01967   0.00000  Uiso   1.00
H257   H     0.10914   0.53181   0.08465   0.00000  Uiso   1.00
H258   H     0.22547   0.47128   0.41461   0.00000  Uiso   1.00
H259   H     0.24202   0.63035   0.20493   0.00000  Uiso   1.00
H260   H     0.09054   0.36995   0.29282   0.00000  Uiso   1.00
H261   H     0.24191   0.37298   0.20554   0.00000  Uiso   1.00
H262   H     0.09110   0.62714   0.29345   0.00000  Uiso   1.00
H263   H     0.27241   0.44908   0.29683   0.00000  Uiso   1.00
H264   H     0.06126   0.55080   0.20342   0.00000  Uiso   1.00
N265   N     0.04759   0.50001   0.25001   0.00000  Uiso   1.00
N266   N     0.28574   0.49999   0.24999   0.00000  Uiso   1.00
O267   O     0.12846   0.56108   0.25000   0.00000  Uiso   1.00
O268   O     0.20488   0.43892   0.24999   0.00000  Uiso   1.00
O269   O     0.20490   0.56107   0.25000   0.00000  Uiso   1.00
O270   O     0.12843   0.43893   0.25000   0.00000  Uiso   1.00
O271   O     0.10661   0.50001   0.31612   0.00000  Uiso   1.00
O272   O     0.22672   0.49999   0.18387   0.00000  Uiso   1.00
O273   O     0.18305   0.50000   0.31612   0.00000  Uiso   1.00
O274   O     0.15028   0.50000   0.18388   0.00000  Uiso   1.00
Zn275  Zn    0.11562   0.50001   0.25000   0.00000  Uiso   1.00
Zn276  Zn    0.21771   0.49999   0.25000   0.00000  Uiso   1.00
N277   N     0.04054   0.55488   0.05633   0.00000  Uiso   1.00
H278   H     0.01069   0.53781   0.05521   0.00000  Uiso   1.00
H279   H     0.04036   0.58433   0.04167   0.00000  Uiso   1.00
N280   N     0.29404   0.44835   0.44292   0.00000  Uiso   1.00
H281   H     0.29439   0.41892   0.45753   0.00000  Uiso   1.00
H282   H     0.32384   0.46556   0.44394   0.00000  Uiso   1.00
I283   I     0.11050   0.45035   0.12563   0.00000  Uiso   1.00
I284   I     0.22305   0.55184   0.37269   0.00000  Uiso   1.00
N285   N     0.29605   0.46967   0.10855   0.00000  Uiso   1.00
H286   H     0.32806   0.45788   0.08499   0.00000  Uiso   1.00
H287   H     0.30522   0.49852   0.11901   0.00000  Uiso   1.00
N288   N     0.03651   0.53251   0.39312   0.00000  Uiso   1.00
H289   H     0.02989   0.50485   0.37851   0.00000  Uiso   1.00
H290   H     0.04959   0.55538   0.36729   0.00000  Uiso   1.00
N291   N     0.02641   0.44231   0.30450   0.00000  Uiso   1.00
H292   H     0.00324   0.44627   0.33862   0.00000  Uiso   1.00
H293   H     0.01993   0.41233   0.29443   0.00000  Uiso   1.00
N294   N     0.30868   0.56171   0.19928   0.00000  Uiso   1.00
H295   H     0.28869   0.54997   0.18034   0.00000  Uiso   1.00
H296   H     0.28853   0.58321   0.22329   0.00000  Uiso   1.00
C297   C     0.50026   0.58000   0.24994   0.00000  Uiso   1.00
C298   C     0.49975   0.42003   0.24988   0.00000  Uiso   1.00
C299   C     0.45067   0.52379   0.04888   0.00000  Uiso   1.00
C300   C     0.55053   0.47931   0.45038   0.00000  Uiso   1.00
C301   C     0.41706   0.53422   0.02876   0.00000  Uiso   1.00
C302   C     0.58411   0.46889   0.47054   0.00000  Uiso   1.00
C303   C     0.54269   0.64615   0.22507   0.00000  Uiso   1.00
C304   C     0.45688   0.35399   0.27362   0.00000  Uiso   1.00
C305   C     0.54242   0.35568   0.22498   0.00000  Uiso   1.00
C306   C     0.45729   0.64443   0.27409   0.00000  Uiso   1.00
C307   C     0.49954   0.37593   0.24933   0.00000  Uiso   1.00
C308   C     0.50031   0.62416   0.25003   0.00000  Uiso   1.00
C309   C     0.63230   0.47162   0.27598   0.00000  Uiso   1.00
C310   C     0.36803   0.52808   0.22389   0.00000  Uiso   1.00
C311   C     0.34687   0.47176   0.27639   0.00000  Uiso   1.00
C312   C     0.65362   0.52870   0.22422   0.00000  Uiso   1.00
C313   C     0.47045   0.50453   0.33729   0.00000  Uiso   1.00
C314   C     0.52959   0.49585   0.16261   0.00000  Uiso   1.00
C315   C     0.45414   0.51512   0.38641   0.00000  Uiso   1.00
C316   C     0.54615   0.48631   0.11323   0.00000  Uiso   1.00
C317   C     0.39382   0.53315   0.46015   0.00000  Uiso   1.00
C318   C     0.60704   0.46948   0.03937   0.00000  Uiso   1.00
C319   C     0.40587   0.52543   0.41313   0.00000  Uiso   1.00
C320   C     0.59460   0.47665   0.08678   0.00000  Uiso   1.00
C321   C     0.48933   0.51766   0.40695   0.00000  Uiso   1.00
C322   C     0.51124   0.48435   0.09232   0.00000  Uiso   1.00
C323   C     0.47492   0.51379   0.45460   0.00000  Uiso   1.00
C324   C     0.52603   0.48893   0.04472   0.00000  Uiso   1.00
C325   C     0.42778   0.52655   0.48163   0.00000  Uiso   1.00
C326   C     0.57323   0.47631   0.01776   0.00000  Uiso   1.00
C327   C     0.50708   0.49959   0.47566   0.00000  Uiso   1.00
C328   C     0.49404   0.50340   0.02360   0.00000  Uiso   1.00
H329   H     0.35752   0.54321   0.47955   0.00000  Uiso   1.00
H330   H     0.64336   0.45970   0.01967   0.00000  Uiso   1.00
H331   H     0.44248   0.53181   0.08465   0.00000  Uiso   1.00
H332   H     0.55880   0.47128   0.41461   0.00000  Uiso   1.00
H333   H     0.57535   0.63035   0.20493   0.00000  Uiso   1.00
H334   H     0.42388   0.36995   0.29282   0.00000  Uiso   1.00
H335   H     0.57524   0.37298   0.20554   0.00000  Uiso   1.00
H336   H     0.42444   0.62714   0.29345   0.00000  Uiso   1.00
H337   H     0.60575   0.44908   0.29683   0.00000  Uiso   1.00
H338   H     0.39460   0.55080   0.20342   0.00000  Uiso   1.00
N339   N     0.38093   0.50001   0.25001   0.00000  Uiso   1.00
N340   N     0.61907   0.49999   0.24999   0.00000  Uiso   1.00
O341   O     0.46179   0.56108   0.25000   0.00000  Uiso   1.00
O342   O     0.53821   0.43892   0.24999   0.00000  Uiso   1.00
O343   O     0.53823   0.56107   0.25000   0.00000  Uiso   1.00
O344   O     0.46177   0.43893   0.25000   0.00000  Uiso   1.00
O345   O     0.43994   0.50001   0.31612   0.00000  Uiso   1.00
O346   O     0.56006   0.49999   0.18387   0.00000  Uiso   1.00
O347   O     0.51639   0.50000   0.31612   0.00000  Uiso   1.00
O348   O     0.48361   0.50000   0.18388   0.00000  Uiso   1.00
Zn349  Zn    0.44896   0.50001   0.25000   0.00000  Uiso   1.00
Zn350  Zn    0.55104   0.49999   0.25000   0.00000  Uiso   1.00
N351   N     0.37388   0.55488   0.05633   0.00000  Uiso   1.00
H352   H     0.34402   0.53781   0.05521   0.00000  Uiso   1.00
H353   H     0.37370   0.58433   0.04167   0.00000  Uiso   1.00
N354   N     0.62737   0.44835   0.44292   0.00000  Uiso   1.00
H355   H     0.62772   0.41892   0.45753   0.00000  Uiso   1.00
H356   H     0.65718   0.46556   0.44394   0.00000  Uiso   1.00
I357   I     0.44384   0.45035   0.12563   0.00000  Uiso   1.00
I358   I     0.55639   0.55184   0.37269   0.00000  Uiso   1.00
N359   N     0.62938   0.46967   0.10855   0.00000  Uiso   1.00
H360   H     0.66140   0.45788   0.08499   0.00000  Uiso   1.00
H361   H     0.63855   0.49852   0.11901   0.00000  Uiso   1.00
N362   N     0.36984   0.53251   0.39312   0.00000  Uiso   1.00
H363   H     0.36323   0.50485   0.37851   0.00000  Uiso   1.00
H364   H     0.38292   0.55538   0.36729   0.00000  Uiso   1.00
N365   N     0.35975   0.44231   0.30450   0.00000  Uiso   1.00
H366   H     0.33657   0.44627   0.33862   0.00000  Uiso   1.00
H367   H     0.35327   0.41233   0.29443   0.00000  Uiso   1.00
N368   N     0.64201   0.56171   0.19928   0.00000  Uiso   1.00
H369   H     0.62202   0.54997   0.18034   0.00000  Uiso   1.00
H370   H     0.62186   0.58321   0.22329   0.00000  Uiso   1.00
C371   C     0.83360   0.58000   0.24994   0.00000  Uiso   1.00
C372   C     0.83308   0.42003   0.24988   0.00000  Uiso   1.00
C373   C     0.78401   0.52379   0.04888   0.00000  Uiso   1.00
C374   C     0.88386   0.47931   0.45038   0.00000  Uiso   1.00
C375   C     0.75040   0.53422   0.02876   0.00000  Uiso   1.00
C376   C     0.91744   0.46889   0.47054   0.00000  Uiso   1.00
C377   C     0.87603   0.64615   0.22507   0.00000  Uiso   1.00
C378   C     0.79021   0.35399   0.27362   0.00000  Uiso   1.00
C379   C     0.87576   0.35568   0.22498   0.00000  Uiso   1.00
C380   C     0.79062   0.64443   0.27409   0.00000  Uiso   1.00
C381   C     0.83287   0.37593   0.24933   0.00000  Uiso   1.00
C382   C     0.83364   0.62416   0.25003   0.00000  Uiso   1.00
C383   C     0.96563   0.47162   0.27598   0.00000  Uiso   1.00
C384   C     0.70136   0.52808   0.22389   0.00000  Uiso   1.00
C385   C     0.68020   0.47176   0.27639   0.00000  Uiso   1.00
C386   C     0.98695   0.52870   0.22422   0.00000  Uiso   1.00
C387   C     0.80378   0.50453   0.33729   0.00000  Uiso   1.00
C388   C     0.86292   0.49585   0.16261   0.00000  Uiso   1.00
C389   C     0.78747   0.51512   0.38641   0.00000  Uiso   1.00
C390   C     0.87948   0.48631   0.11323   0.00000  Uiso   1.00
C391   C     0.72715   0.53315   0.46015   0.00000  Uiso   1.00
C392   C     0.94038   0.46948   0.03937   0.00000  Uiso   1.00
C393   C     0.73921   0.52543   0.41313   0.00000  Uiso   1.00
C394   C     0.92794   0.47665   0.08678   0.00000  Uiso   1.00
C395   C     0.82267   0.51766   0.40695   0.00000  Uiso   1.00
C396   C     0.84457   0.48435   0.09232   0.00000  Uiso   1.00
C397   C     0.80825   0.51379   0.45460   0.00000  Uiso   1.00
C398   C     0.85937   0.48893   0.04472   0.00000  Uiso   1.00
C399   C     0.76112   0.52655   0.48163   0.00000  Uiso   1.00
C400   C     0.90656   0.47631   0.01776   0.00000  Uiso   1.00
C401   C     0.84042   0.49959   0.47566   0.00000  Uiso   1.00
C402   C     0.82737   0.50340   0.02360   0.00000  Uiso   1.00
H403   H     0.69085   0.54321   0.47955   0.00000  Uiso   1.00
H404   H     0.97670   0.45970   0.01967   0.00000  Uiso   1.00
H405   H     0.77581   0.53181   0.08465   0.00000  Uiso   1.00
H406   H     0.89213   0.47128   0.41461   0.00000  Uiso   1.00
H407   H     0.90869   0.63035   0.20493   0.00000  Uiso   1.00
H408   H     0.75721   0.36995   0.29282   0.00000  Uiso   1.00
H409   H     0.90858   0.37298   0.20554   0.00000  Uiso   1.00
H410   H     0.75777   0.62714   0.29345   0.00000  Uiso   1.00
H411   H     0.93908   0.44908   0.29683   0.00000  Uiso   1.00
H412   H     0.72793   0.55080   0.20342   0.00000  Uiso   1.00
N413   N     0.71426   0.50001   0.25001   0.00000  Uiso   1.00
N414   N     0.95241   0.49999   0.24999   0.00000  Uiso   1.00
O415   O     0.79512   0.56108   0.25000   0.00000  Uiso   1.00
O416   O     0.87154   0.43892   0.24999   0.00000  Uiso   1.00
O417   O     0.87157   0.56107   0.25000   0.00000  Uiso   1.00
O418   O     0.79510   0.43893   0.25000   0.00000  Uiso   1.00
O419   O     0.77328   0.50001   0.31612   0.00000  Uiso   1.00
O420   O     0.89339   0.49999   0.18387   0.00000  Uiso   1.00
O421   O     0.84972   0.50000   0.31612   0.00000  Uiso   1.00
O422   O     0.81695   0.50000   0.18388   0.00000  Uiso   1.00
Zn423  Zn    0.78229   0.50001   0.25000   0.00000  Uiso   1.00
Zn424  Zn    0.88438   0.49999   0.25000   0.00000  Uiso   1.00
N425   N     0.70721   0.55488   0.05633   0.00000  Uiso   1.00
H426   H     0.67736   0.53781   0.05521   0.00000  Uiso   1.00
H427   H     0.70703   0.58433   0.04167   0.00000  Uiso   1.00
N428   N     0.96070   0.44835   0.44292   0.00000  Uiso   1.00
H429   H     0.96105   0.41892   0.45753   0.00000  Uiso   1.00
H430   H     0.99051   0.46556   0.44394   0.00000  Uiso   1.00
I431   I     0.77717   0.45035   0.12563   0.00000  Uiso   1.00
I432   I     0.88972   0.55184   0.37269   0.00000  Uiso   1.00
N433   N     0.96272   0.46967   0.10855   0.00000  Uiso   1.00
H434   H     0.99473   0.45788   0.08499   0.00000  Uiso   1.00
H435   H     0.97189   0.49852   0.11901   0.00000  Uiso   1.00
N436   N     0.70318   0.53251   0.39312   0.00000  Uiso   1.00
H437   H     0.69656   0.50485   0.37851   0.00000  Uiso   1.00
H438   H     0.71625   0.55538   0.36729   0.00000  Uiso   1.00
N439   N     0.69308   0.44231   0.30450   0.00000  Uiso   1.00
H440   H     0.66991   0.44627   0.33862   0.00000  Uiso   1.00
H441   H     0.68660   0.41233   0.29443   0.00000  Uiso   1.00
N442   N     0.97534   0.56171   0.19928   0.00000  Uiso   1.00
H443   H     0.95536   0.54997   0.18034   0.00000  Uiso   1.00
H444   H     0.95519   0.58321   0.22329   0.00000  Uiso   1.00
C445   C     0.16693   0.91333   0.24994   0.00000  Uiso   1.00
C446   C     0.16641   0.75337   0.24988   0.00000  Uiso   1.00
C447   C     0.11734   0.85712   0.04888   0.00000  Uiso   1.00
C448   C     0.21719   0.81265   0.45038   0.00000  Uiso   1.00
C449   C     0.08373   0.86756   0.02876   0.00000  Uiso   1.00
C450   C     0.25078   0.80223   0.47054   0.00000  Uiso   1.00
C451   C     0.20936   0.97948   0.22507   0.00000  Uiso   1.00
C452   C     0.12354   0.68732   0.27362   0.00000  Uiso   1.00
C453   C     0.20909   0.68901   0.22498   0.00000  Uiso   1.00
C454   C     0.12396   0.97777   0.27409   0.00000  Uiso   1.00
C455   C     0.16621   0.70927   0.24933   0.00000  Uiso   1.00
C456   C     0.16697   0.95749   0.25003   0.00000  Uiso   1.00
C457   C     0.29897   0.80495   0.27598   0.00000  Uiso   1.00
C458   C     0.03470   0.86141   0.22389   0.00000  Uiso   1.00
C459   C     0.01353   0.80510   0.27639   0.00000  Uiso   1.00
C460   C     0.32028   0.86203   0.22422   0.00000  Uiso   1.00
C461   C     0.13711   0.83786   0.33729   0.00000  Uiso   1.00
C462   C     0.19626   0.82919   0.16261   0.00000  Uiso   1.00
C463   C     0.12080   0.84845   0.38641   0.00000  Uiso   1.00
C464   C     0.21281   0.81964   0.11323   0.00000  Uiso   1.00
C465   C     0.06048   0.86648   0.46015   0.00000  Uiso   1.00
C466   C     0.27371   0.80281   0.03937   0.00000  Uiso   1.00
C467   C     0.07254   0.85877   0.41313   0.00000  Uiso   1.00
C468   C     0.26127   0.80998   0.08678   0.00000  Uiso   1.00
C469   C     0.15600   0.85099   0.40695   0.00000  Uiso   1.00
C470   C     0.17791   0.81769   0.09232   0.00000  Uiso   1.00
C471   C     0.14158   0.84713   0.45460   0.00000  Uiso   1.00
C472   C     0.19270   0.82226   0.04472   0.00000  Uiso   1.00
C473   C     0.09445   0.85988   0.48163   0.00000  Uiso   1.00
C474   C     0.23989   0.80965   0.01776   0.00000  Uiso   1.00
C475   C     0.17375   0.83292   0.47566   0.00000  Uiso   1.00
C476   C     0.16070   0.83673   0.02360   0.00000  Uiso   1.00
H477   H     0.02419   0.87655   0.47955   0.00000  Uiso   1.00
H478   H     0.31003   0.79303   0.01967   0.00000  Uiso   1.00
H479   H     0.10914   0.86514   0.08465   0.00000  Uiso   1.00
H480   H     0.22547   0.80462   0.41461   0.00000  Uiso   1.00
H481   H     0.24202   0.96369   0.20493   0.00000  Uiso   1.00
H482   H     0.09054   0.70328   0.29282   0.00000  Uiso   1.00
H483   H     0.24191   0.70632   0.20554   0.00000  Uiso   1.00
H484   H     0.09110   0.96047   0.29345   0.00000  Uiso   1.00
H485   H     0.27241   0.78241   0.29683   0.00000  Uiso   1.00
H486   H     0.06126   0.88413   0.20342   0.00000  Uiso   1.00
N487   N     0.04759   0.83334   0.25001   0.00000  Uiso   1.00
N488   N     0.28574   0.83332   0.24999   0.00000  Uiso   1.00
O489   O     0.12846   0.89442   0.25000   0.00000  Uiso   1.00
O490   O     0.20488   0.77225   0.24999   0.00000  Uiso   1.00
O491   O     0.20490   0.89441   0.25000   0.00000  Uiso   1.00
O492   O     0.12843   0.77226   0.25000   0.00000  Uiso   1.00
O493   O     0.10661   0.83334   0.31612   0.00000  Uiso   1.00
O494   O     0.22672   0.83333   0.18387   0.00000  Uiso   1.00
O495   O     0.18305   0.83333   0.31612   0.00000  Uiso   1.00
O496   O     0.15028   0.83334   0.18388   0.00000  Uiso   1.00
Zn497  Zn    0.11562   0.83334   0.25000   0.00000  Uiso   1.00
Zn498  Zn    0.21771   0.83333   0.25000   0.00000  Uiso   1.00
N499   N     0.04054   0.88822   0.05633   0.00000  Uiso   1.00
H500   H     0.01069   0.87114   0.05521   0.00000  Uiso   1.00
H501   H     0.04036   0.91766   0.04167   0.00000  Uiso   1.00
N502   N     0.29404   0.78169   0.44292   0.00000  Uiso   1.00
H503   H     0.29439   0.75225   0.45753   0.00000  Uiso   1.00
H504   H     0.32384   0.79890   0.44394   0.00000  Uiso   1.00
I505   I     0.11050   0.78368   0.12563   0.00000  Uiso   1.00
I506   I     0.22305   0.88517   0.37269   0.00000  Uiso   1.00
N507   N     0.29605   0.80301   0.10855   0.00000  Uiso   1.00
H508   H     0.32806   0.79121   0.08499   0.00000  Uiso   1.00
H509   H     0.30522   0.83185   0.11901   0.00000  Uiso   1.00
N510   N     0.03651   0.86584   0.39312   0.00000  Uiso   1.00
H511   H     0.02989   0.83818   0.37851   0.00000  Uiso   1.00
H512   H     0.04959   0.88872   0.36729   0.00000  Uiso   1.00
N513   N     0.02641   0.77564   0.30450   0.00000  Uiso   1.00
H514   H     0.00324   0.77961   0.33862   0.00000  Uiso   1.00
H515   H     0.01993   0.74566   0.29443   0.00000  Uiso   1.00
N516   N     0.30868   0.89504   0.19928   0.00000  Uiso   1.00
H517   H     0.28869   0.88331   0.18034   0.00000  Uiso   1.00
H518   H     0.28853   0.91654   0.22329   0.00000  Uiso   1.00
C519   C     0.50026   0.91333   0.24994   0.00000  Uiso   1.00
C520   C     0.49975   0.75337   0.24988   0.00000  Uiso   1.00
C521   C     0.45067   0.85712   0.04888   0.00000  Uiso   1.00
C522   C     0.55053   0.81265   0.45038   0.00000  Uiso   1.00
C523   C     0.41706   0.86756   0.02876   0.00000  Uiso   1.00
C524   C     0.58411   0.80223   0.47054   0.00000  Uiso   1.00
C525   C     0.54269   0.97948   0.22507   0.00000  Uiso   1.00
C526   C     0.45688   0.68732   0.27362   0.00000  Uiso   1.00
C527   C     0.54242   0.68901   0.22498   0.00000  Uiso   1.00
C528   C     0.45729   0.97777   0.27409   0.00000  Uiso   1.00
C529   C     0.49954   0.70927   0.24933   0.00000  Uiso   1.00
C530   C     0.50031   0.95749   0.25003   0.00000  Uiso   1.00
C531   C     0.63230   0.80495   0.27598   0.00000  Uiso   1.00
C532   C     0.36803   0.86141   0.22389   0.00000  Uiso   1.00
C533   C     0.34687   0.80510   0.27639   0.00000  Uiso   1.00
C534   C     0.65362   0.86203   0.22422   0.00000  Uiso   1.00
C535   C     0.47045   0.83786   0.33729   0.00000  Uiso   1.00
C536   C     0.52959   0.82919   0.16261   0.00000  Uiso   1.00
C537   C     0.45414   0.84845   0.38641   0.00000  Uiso   1.00
C538   C     0.54615   0.81964   0.11323   0.00000  Uiso   1.00
C539   C     0.39382   0.86648   0.46015   0.00000  Uiso   1.00
C540   C     0.60704   0.80281   0.03937   0.00000  Uiso   1.00
C541   C     0.40587   0.85877   0.41313   0.00000  Uiso   1.00
C542   C     0.59460   0.80998   0.08678   0.00000  Uiso   1.00
C543   C     0.48933   0.85099   0.40695   0.00000  Uiso   1.00
C544   C     0.51124   0.81769   0.09232   0.00000  Uiso   1.00
C545   C     0.47492   0.84713   0.45460   0.00000  Uiso   1.00
C546   C     0.52603   0.82226   0.04472   0.00000  Uiso   1.00
C547   C     0.42778   0.85988   0.48163   0.00000  Uiso   1.00
C548   C     0.57323   0.80965   0.01776   0.00000  Uiso   1.00
C549   C     0.50708   0.83292   0.47566   0.00000  Uiso   1.00
C550   C     0.49404   0.83673   0.02360   0.00000  Uiso   1.00
H551   H     0.35752   0.87655   0.47955   0.00000  Uiso   1.00
H552   H     0.64336   0.79303   0.01967   0.00000  Uiso   1.00
H553   H     0.44248   0.86514   0.08465   0.00000  Uiso   1.00
H554   H     0.55880   0.80462   0.41461   0.00000  Uiso   1.00
H555   H     0.57535   0.96369   0.20493   0.00000  Uiso   1.00
H556   H     0.42388   0.70328   0.29282   0.00000  Uiso   1.00
H557   H     0.57524   0.70632   0.20554   0.00000  Uiso   1.00
H558   H     0.42444   0.96047   0.29345   0.00000  Uiso   1.00
H559   H     0.60575   0.78241   0.29683   0.00000  Uiso   1.00
H560   H     0.39460   0.88413   0.20342   0.00000  Uiso   1.00
N561   N     0.38093   0.83334   0.25001   0.00000  Uiso   1.00
N562   N     0.61907   0.83332   0.24999   0.00000  Uiso   1.00
O563   O     0.46179   0.89442   0.25000   0.00000  Uiso   1.00
O564   O     0.53821   0.77225   0.24999   0.00000  Uiso   1.00
O565   O     0.53823   0.89441   0.25000   0.00000  Uiso   1.00
O566   O     0.46177   0.77226   0.25000   0.00000  Uiso   1.00
O567   O     0.43994   0.83334   0.31612   0.00000  Uiso   1.00
O568   O     0.56006   0.83333   0.18387   0.00000  Uiso   1.00
O569   O     0.51639   0.83333   0.31612   0.00000  Uiso   1.00
O570   O     0.48361   0.83334   0.18388   0.00000  Uiso   1.00
Zn571  Zn    0.44896   0.83334   0.25000   0.00000  Uiso   1.00
Zn572  Zn    0.55104   0.83333   0.25000   0.00000  Uiso   1.00
N573   N     0.37388   0.88822   0.05633   0.00000  Uiso   1.00
H574   H     0.34402   0.87114   0.05521   0.00000  Uiso   1.00
H575   H     0.37370   0.91766   0.04167   0.00000  Uiso   1.00
N576   N     0.62737   0.78169   0.44292   0.00000  Uiso   1.00
H577   H     0.62772   0.75225   0.45753   0.00000  Uiso   1.00
H578   H     0.65718   0.79890   0.44394   0.00000  Uiso   1.00
I579   I     0.44384   0.78368   0.12563   0.00000  Uiso   1.00
I580   I     0.55639   0.88517   0.37269   0.00000  Uiso   1.00
N581   N     0.62938   0.80301   0.10855   0.00000  Uiso   1.00
H582   H     0.66140   0.79121   0.08499   0.00000  Uiso   1.00
H583   H     0.63855   0.83185   0.11901   0.00000  Uiso   1.00
N584   N     0.36984   0.86584   0.39312   0.00000  Uiso   1.00
H585   H     0.36323   0.83818   0.37851   0.00000  Uiso   1.00
H586   H     0.38292   0.88872   0.36729   0.00000  Uiso   1.00
N587   N     0.35975   0.77564   0.30450   0.00000  Uiso   1.00
H588   H     0.33657   0.77961   0.33862   0.00000  Uiso   1.00
H589   H     0.35327   0.74566   0.29443   0.00000  Uiso   1.00
N590   N     0.64201   0.89504   0.19928   0.00000  Uiso   1.00
H591   H     0.62202   0.88331   0.18034   0.00000  Uiso   1.00
H592   H     0.62186   0.91654   0.22329   0.00000  Uiso   1.00
C593   C     0.83360   0.91333   0.24994   0.00000  Uiso   1.00
C594   C     0.83308   0.75337   0.24988   0.00000  Uiso   1.00
C595   C     0.78401   0.85712   0.04888   0.00000  Uiso   1.00
C596   C     0.88386   0.81265   0.45038   0.00000  Uiso   1.00
C597   C     0.75040   0.86756   0.02876   0.00000  Uiso   1.00
C598   C     0.91744   0.80223   0.47054   0.00000  Uiso   1.00
C599   C     0.87603   0.97948   0.22507   0.00000  Uiso   1.00
C600   C     0.79021   0.68732   0.27362   0.00000  Uiso   1.00
C601   C     0.87576   0.68901   0.22498   0.00000  Uiso   1.00
C602   C     0.79062   0.97777   0.27409   0.00000  Uiso   1.00
C603   C     0.83287   0.70927   0.24933   0.00000  Uiso   1.00
C604   C     0.83364   0.95749   0.25003   0.00000  Uiso   1.00
C605   C     0.96563   0.80495   0.27598   0.00000  Uiso   1.00
C606   C     0.70136   0.86141   0.22389   0.00000  Uiso   1.00
C607   C     0.68020   0.80510   0.27639   0.00000  Uiso   1.00
C608   C     0.98695   0.86203   0.22422   0.00000  Uiso   1.00
C609   C     0.80378   0.83786   0.33729   0.00000  Uiso   1.00
C610   C     0.86292   0.82919   0.16261   0.00000  Uiso   1.00
C611   C     0.78747   0.84845   0.38641   0.00000  Uiso   1.00
C612   C     0.87948   0.81964   0.11323   0.00000  Uiso   1.00
C613   C     0.72715   0.86648   0.46015   0.00000  Uiso   1.00
C614   C     0.94038   0.80281   0.03937   0.00000  Uiso   1.00
C615   C     0.73921   0.85877   0.41313   0.00000  Uiso   1.00
C616   C     0.92794   0.80998   0.08678   0.00000  Uiso   1.00
C617   C     0.82267   0.85099   0.40695   0.00000  Uiso   1.00
C618   C     0.84457   0.81769   0.09232   0.00000  Uiso   1.00
C619   C     0.80825   0.84713   0.45460   0.00000  Uiso   1.00
C620   C     0.85937   0.82226   0.04472   0.00000  Uiso   1.00
C621   C     0.76112   0.85988   0.48163   0.00000  Uiso   1.00
C622   C     0.90656   0.80965   0.01776   0.00000  Uiso   1.00
C623   C     0.84042   0.83292   0.47566   0.00000  Uiso   1.00
C624   C     0.82737   0.83673   0.02360   0.00000  Uiso   1.00
H625   H     0.69085   0.87655   0.47955   0.00000  Uiso   1.00
H626   H     0.97670   0.79303   0.01967   0.00000  Uiso   1.00
H627   H     0.77581   0.86514   0.08465   0.00000  Uiso   1.00
H628   H     0.89213   0.80462   0.41461   0.00000  Uiso   1.00
H629   H     0.90869   0.96369   0.20493   0.00000  Uiso   1.00
H630   H     0.75721   0.70328   0.29282   0.00000  Uiso   1.00
H631   H     0.90858   0.70632   0.20554   0.00000  Uiso   1.00
H632   H     0.75777   0.96047   0.29345   0.00000  Uiso   1.00
H633   H     0.93908   0.78241   0.29683   0.00000  Uiso   1.00
H634   H     0.72793   0.88413   0.20342   0.00000  Uiso   1.00
N635   N     0.71426   0.83334   0.25001   0.00000  Uiso   1.00
N636   N     0.95241   0.83332   0.24999   0.00000  Uiso   1.00
O637   O     0.79512   0.89442   0.25000   0.00000  Uiso   1.00
O638   O     0.87154   0.77225   0.24999   0.00000  Uiso   1.00
O639   O     0.87157   0.89441   0.25000   0.00000  Uiso   1.00
O640   O     0.79510   0.77226   0.25000   0.00000  Uiso   1.00
O641   O     0.77328   0.83334   0.31612   0.00000  Uiso   1.00
O642   O     0.89339   0.83333   0.18387   0.00000  Uiso   1.00
O643   O     0.84972   0.83333   0.31612   0.00000  Uiso   1.00
O644   O     0.81695   0.83334   0.18388   0.00000  Uiso   1.00
Zn645  Zn    0.78229   0.83334   0.25000   0.00000  Uiso   1.00
Zn646  Zn    0.88438   0.83333   0.25000   0.00000  Uiso   1.00
N647   N     0.70721   0.88822   0.05633   0.00000  Uiso   1.00
H648   H     0.67736   0.87114   0.05521   0.00000  Uiso   1.00
H649   H     0.70703   0.91766   0.04167   0.00000  Uiso   1.00
N650   N     0.96070   0.78169   0.44292   0.00000  Uiso   1.00
H651   H     0.96105   0.75225   0.45753   0.00000  Uiso   1.00
H652   H     0.99051   0.79890   0.44394   0.00000  Uiso   1.00
I653   I     0.77717   0.78368   0.12563   0.00000  Uiso   1.00
I654   I     0.88972   0.88517   0.37269   0.00000  Uiso   1.00
N655   N     0.96272   0.80301   0.10855   0.00000  Uiso   1.00
H656   H     0.99473   0.79121   0.08499   0.00000  Uiso   1.00
H657   H     0.97189   0.83185   0.11901   0.00000  Uiso   1.00
N658   N     0.70318   0.86584   0.39312   0.00000  Uiso   1.00
H659   H     0.69656   0.83818   0.37851   0.00000  Uiso   1.00
H660   H     0.71625   0.88872   0.36729   0.00000  Uiso   1.00
N661   N     0.69308   0.77564   0.30450   0.00000  Uiso   1.00
H662   H     0.66991   0.77961   0.33862   0.00000  Uiso   1.00
H663   H     0.68660   0.74566   0.29443   0.00000  Uiso   1.00
N664   N     0.97534   0.89504   0.19928   0.00000  Uiso   1.00
H665   H     0.95536   0.88331   0.18034   0.00000  Uiso   1.00
H666   H     0.95519   0.91654   0.22329   0.00000  Uiso   1.00
C667   C     0.16693   0.24666   0.74994   0.00000  Uiso   1.00
C668   C     0.16641   0.08670   0.74988   0.00000  Uiso   1.00
C669   C     0.11734   0.19045   0.54888   0.00000  Uiso   1.00
C670   C     0.21719   0.14598   0.95038   0.00000  Uiso   1.00
C671   C     0.08373   0.20089   0.52876   0.00000  Uiso   1.00
C672   C     0.25078   0.13556   0.97054   0.00000  Uiso   1.00
C673   C     0.20936   0.31281   0.72507   0.00000  Uiso   1.00
C674   C     0.12354   0.02066   0.77362   0.00000  Uiso   1.00
C675   C     0.20909   0.02235   0.72498   0.00000  Uiso   1.00
C676   C     0.12396   0.31110   0.77409   0.00000  Uiso   1.00
C677   C     0.16621   0.04260   0.74933   0.00000  Uiso   1.00
C678   C     0.16697   0.29082   0.75003   0.00000  Uiso   1.00
C679   C     0.29897   0.13828   0.77598   0.00000  Uiso   1.00
C680   C     0.03470   0.19474   0.72389   0.00000  Uiso   1.00
C681   C     0.01353   0.13843   0.77639   0.00000  Uiso   1.00
C682   C     0.32028   0.19536   0.72422   0.00000  Uiso   1.00
C683   C     0.13711   0.17119   0.83729   0.00000  Uiso   1.00
C684   C     0.19626   0.16252   0.66261   0.00000  Uiso   1.00
C685   C     0.12080   0.18179   0.88641   0.00000  Uiso   1.00
C686   C     0.21281   0.15298   0.61323   0.00000  Uiso   1.00
C687   C     0.06048   0.19982   0.96015   0.00000  Uiso   1.00
C688   C     0.27371   0.13614   0.53937   0.00000  Uiso   1.00
C689   C     0.07254   0.19210   0.91313   0.00000  Uiso   1.00
C690   C     0.26127   0.14332   0.58678   0.00000  Uiso   1.00
C691   C     0.15600   0.18433   0.90695   0.00000  Uiso   1.00
C692   C     0.17791   0.15102   0.59232   0.00000  Uiso   1.00
C693   C     0.14158   0.18046   0.95460   0.00000  Uiso   1.00
C694   C     0.19270   0.15560   0.54472   0.00000  Uiso   1.00
C695   C     0.09445   0.19321   0.98163   0.00000  Uiso   1.00
C696   C     0.23989   0.14298   0.51776   0.00000  Uiso   1.00
C697   C     0.17375   0.16626   0.97566   0.00000  Uiso   1.00
C698   C     0.16070   0.17007   0.52360   0.00000  Uiso   1.00
H699   H     0.02419   0.20988   0.97955   0.00000  Uiso   1.00
H700   H     0.31003   0.12637   0.51967   0.00000  Uiso   1.00
H701   H     0.10914   0.19847   0.58465   0.00000  Uiso   1.00
H702   H     0.22547   0.13795   0.91461   0.00000  Uiso   1.00
H703   H     0.24202   0.29702   0.70493   0.00000  Uiso   1.00
H704   H     0.09054   0.03662   0.79282   0.00000  Uiso   1.00
H705   H     0.24191   0.03965   0.70554   0.00000  Uiso   1.00
H706   H     0.09110   0.29381   0.79345   0.00000  Uiso   1.00
H707   H     0.27241   0.11574   0.79683   0.00000  Uiso   1.00
H708   H     0.06126   0.21747   0.70342   0.00000  Uiso   1.00
N709   N     0.04759   0.16668   0.75001   0.00000  Uiso   1.00
N710   N     0.28574   0.16666   0.74999   0.00000  Uiso   1.00
O711   O     0.12846   0.22775   0.75000   0.00000  Uiso   1.00
O712   O     0.20488   0.10558   0.74999   0.00000  Uiso   1.00
O713   O     0.20490   0.22774   0.75000   0.00000  Uiso   1.00
O714   O     0.12843   0.10559   0.75000   0.00000  Uiso   1.00
O715   O     0.10661   0.16667   0.81612   0.00000  Uiso   1.00
O716   O     0.22672   0.16666   0.68387   0.00000  Uiso   1.00
O717   O     0.18305   0.16666   0.81612   0.00000  Uiso   1.00
O718   O     0.15028   0.16667   0.68388   0.00000  Uiso   1.00
Zn719  Zn    0.11562   0.16667   0.75000   0.00000  Uiso   1.00
Zn720  Zn    0.21771   0.16666   0.75000   0.00000  Uiso   1.00
N721   N     0.04054   0.22155   0.55633   0.00000  Uiso   1.00
H722   H     0.01069   0.20447   0.55521   0.00000  Uiso   1.00
H723   H     0.04036   0.25099   0.54167   0.00000  Uiso   1.00
N724   N     0.29404   0.11502   0.94292   0.00000  Uiso   1.00
H725   H     0.29439   0.08558   0.95753   0.00000  Uiso   1.00
H726   H     0.32384   0.13223   0.94394   0.00000  Uiso   1.00
I727   I     0.11050   0.11701   0.62563   0.00000  Uiso   1.00
I728   I     0.22305   0.21850   0.87269   0.00000  Uiso   1.00
N729   N     0.29605   0.13634   0.60855   0.00000  Uiso   1.00
H730   H     0.32806   0.12455   0.58499   0.00000  Uiso   1.00
H731   H     0.30522   0.16518   0.61901   0.00000  Uiso   1.00
N732   N     0.03651   0.19917   0.89312   0.00000  Uiso   1.00
H733   H     0.02989   0.17152   0.87851   0.00000  Uiso   1.00
H734   H     0.04959   0.22205   0.86729   0.00000  Uiso   1.00
N735   N     0.02641   0.10898   0.80450   0.00000  Uiso   1.00
H736   H     0.00324   0.11294   0.83862   0.00000  Uiso   1.00
H737   H     0.01993   0.07900   0.79443   0.00000  Uiso   1.00
N738   N     0.30868   0.22837   0.69928   0.00000  Uiso   1.00
H739   H     0.28869   0.21664   0.68034   0.00000  Uiso   1.00
H740   H     0.28853   0.24987   0.72329   0.00000  Uiso   1.00
C741   C     0.50026   0.24666   0.74994   0.00000  Uiso   1.00
C742   C     0.49975   0.08670   0.74988   0.00000  Uiso   1.00
C743   C     0.45067   0.19045   0.54888   0.00000  Uiso   1.00
C744   C     0.55053   0.14598   0.95038   0.00000  Uiso   1.00
C745   C     0.41706   0.20089   0.52876   0.00000  Uiso   1.00
C746   C     0.58411   0.13556   0.97054   0.00000  Uiso   1.00
C747   C     0.54269   0.31281   0.72507   0.00000  Uiso   1.00
C748   C     0.45688   0.02066   0.77362   0.00000  Uiso   1.00
C749   C     0.54242   0.02235   0.72498   0.00000  Uiso   1.00
C750   C     0.45729   0.31110   0.77409   0.00000  Uiso   1.00
C751   C     0.49954   0.04260   0.74933   0.00000  Uiso   1.00
C752   C     0.50031   0.29082   0.75003   0.00000  Uiso   1.00
C753   C     0.63230   0.13828   0.77598   0.00000  Uiso   1.00
C754   C     0.36803   0.19474   0.72389   0.00000  Uiso   1.00
C755   C     0.34687   0.13843   0.77639   0.00000  Uiso   1.00
C756   C     0.65362   0.19536   0.72422   0.00000  Uiso   1.00
C757   C     0.47045   0.17119   0.83729   0.00000  Uiso   1.00
C758   C     0.52959   0.16252   0.66261   0.00000  Uiso   1.00
C759   C     0.45414   0.18179   0.88641   0.00000  Uiso   1.00
C760   C     0.54615   0.15298   0.61323   0.00000  Uiso   1.00
C761   C     0.39382   0.19982   0.96015   0.00000  Uiso   1.00
C762   C     0.60704   0.13614   0.53937   0.00000  Uiso   1.00
C763   C     0.40587   0.19210   0.91313   0.00000  Uiso   1.00
C764   C     0.59460   0.14332   0.58678   0.00000  Uiso   1.00
C765   C     0.48933   0.18433   0.90695   0.00000  Uiso   1.00
C766   C     0.51124   0.15102   0.59232   0.00000  Uiso   1.00
C767   C     0.47492   0.18046   0.95460   0.00000  Uiso   1.00
C768   C     0.52603   0.15560   0.54472   0.00000  Uiso   1.00
C769   C     0.42778   0.19321   0.98163   0.00000  Uiso   1.00
C770   C     0.57323   0.14298   0.51776   0.00000  Uiso   1.00
C771   C     0.50708   0.16626   0.97566   0.00000  Uiso   1.00
C772   C     0.49404   0.17007   0.52360   0.00000  Uiso   1.00
H773   H     0.35752   0.20988   0.97955   0.00000  Uiso   1.00
H774   H     0.64336   0.12637   0.51967   0.00000  Uiso   1.00
H775   H     0.44248   0.19847   0.58465   0.00000  Uiso   1.00
H776   H     0.55880   0.13795   0.91461   0.00000  Uiso   1.00
H777   H     0.57535   0.29702   0.70493   0.00000  Uiso   1.00
H778   H     0.42388   0.03662   0.79282   0.00000  Uiso   1.00
H779   H     0.57524   0.03965   0.70554   0.00000  Uiso   1.00
H780   H     0.42444   0.29381   0.79345   0.00000  Uiso   1.00
H781   H     0.60575   0.11574   0.79683   0.00000  Uiso   1.00
H782   H     0.39460   0.21747   0.70342   0.00000  Uiso   1.00
N783   N     0.38093   0.16668   0.75001   0.00000  Uiso   1.00
N784   N     0.61907   0.16666   0.74999   0.00000  Uiso   1.00
O785   O     0.46179   0.22775   0.75000   0.00000  Uiso   1.00
O786   O     0.53821   0.10558   0.74999   0.00000  Uiso   1.00
O787   O     0.53823   0.22774   0.75000   0.00000  Uiso   1.00
O788   O     0.46177   0.10559   0.75000   0.00000  Uiso   1.00
O789   O     0.43994   0.16667   0.81612   0.00000  Uiso   1.00
O790   O     0.56006   0.16666   0.68387   0.00000  Uiso   1.00
O791   O     0.51639   0.16666   0.81612   0.00000  Uiso   1.00
O792   O     0.48361   0.16667   0.68388   0.00000  Uiso   1.00
Zn793  Zn    0.44896   0.16667   0.75000   0.00000  Uiso   1.00
Zn794  Zn    0.55104   0.16666   0.75000   0.00000  Uiso   1.00
N795   N     0.37388   0.22155   0.55633   0.00000  Uiso   1.00
H796   H     0.34402   0.20447   0.55521   0.00000  Uiso   1.00
H797   H     0.37370   0.25099   0.54167   0.00000  Uiso   1.00
N798   N     0.62737   0.11502   0.94292   0.00000  Uiso   1.00
H799   H     0.62772   0.08558   0.95753   0.00000  Uiso   1.00
H800   H     0.65718   0.13223   0.94394   0.00000  Uiso   1.00
I801   I     0.44384   0.11701   0.62563   0.00000  Uiso   1.00
I802   I     0.55639   0.21850   0.87269   0.00000  Uiso   1.00
N803   N     0.62938   0.13634   0.60855   0.00000  Uiso   1.00
H804   H     0.66140   0.12455   0.58499   0.00000  Uiso   1.00
H805   H     0.63855   0.16518   0.61901   0.00000  Uiso   1.00
N806   N     0.36984   0.19917   0.89312   0.00000  Uiso   1.00
H807   H     0.36323   0.17152   0.87851   0.00000  Uiso   1.00
H808   H     0.38292   0.22205   0.86729   0.00000  Uiso   1.00
N809   N     0.35975   0.10898   0.80450   0.00000  Uiso   1.00
H810   H     0.33657   0.11294   0.83862   0.00000  Uiso   1.00
H811   H     0.35327   0.07900   0.79443   0.00000  Uiso   1.00
N812   N     0.64201   0.22837   0.69928   0.00000  Uiso   1.00
H813   H     0.62202   0.21664   0.68034   0.00000  Uiso   1.00
H814   H     0.62186   0.24987   0.72329   0.00000  Uiso   1.00
C815   C     0.83360   0.24666   0.74994   0.00000  Uiso   1.00
C816   C     0.83308   0.08670   0.74988   0.00000  Uiso   1.00
C817   C     0.78401   0.19045   0.54888   0.00000  Uiso   1.00
C818   C     0.88386   0.14598   0.95038   0.00000  Uiso   1.00
C819   C     0.75040   0.20089   0.52876   0.00000  Uiso   1.00
C820   C     0.91744   0.13556   0.97054   0.00000  Uiso   1.00
C821   C     0.87603   0.31281   0.72507   0.00000  Uiso   1.00
C822   C     0.79021   0.02066   0.77362   0.00000  Uiso   1.00
C823   C     0.87576   0.02235   0.72498   0.00000  Uiso   1.00
C824   C     0.79062   0.31110   0.77409   0.00000  Uiso   1.00
C825   C     0.83287   0.04260   0.74933   0.00000  Uiso   1.00
C826   C     0.83364   0.29082   0.75003   0.00000  Uiso   1.00
C827   C     0.96563   0.13828   0.77598   0.00000  Uiso   1.00
C828   C     0.70136   0.19474   0.72389   0.00000  Uiso   1.00
C829   C     0.68020   0.13843   0.77639   0.00000  Uiso   1.00
C830   C     0.98695   0.19536   0.72422   0.00000  Uiso   1.00
C831   C     0.80378   0.17119   0.83729   0.00000  Uiso   1.00
C832   C     0.86292   0.16252   0.66261   0.00000  Uiso   1.00
C833   C     0.78747   0.18179   0.88641   0.00000  Uiso   1.00
C834   C     0.87948   0.15298   0.61323   0.00000  Uiso   1.00
C835   C     0.72715   0.19982   0.96015   0.00000  Uiso   1.00
C836   C     0.94038   0.13614   0.53937   0.00000  Uiso   1.00
C837   C     0.73921   0.19210   0.91313   0.00000  Uiso   1.00
C838   C     0.92794   0.14332   0.58678   0.00000  Uiso   1.00
C839   C     0.82267   0.18433   0.90695   0.00000  Uiso   1.00
C840   C     0.84457   0.15102   0.59232   0.00000  Uiso   1.00
C841   C     0.80825   0.18046   0.95460   0.00000  Uiso   1.00
C842   C     0.85937   0.15560   0.54472   0.00000  Uiso   1.00
C843   C     0.76112   0.19321   0.98163   0.00000  Uiso   1.00
C844   C     0.90656   0.14298   0.51776   0.00000  Uiso   1.00
C845   C     0.84042   0.16626   0.97566   0.00000  Uiso   1.00
C846   C     0.82737   0.17007   0.52360   0.00000  Uiso   1.00
H847   H     0.69085   0.20988   0.97955   0.00000  Uiso   1.00
H848   H     0.97670   0.12637   0.51967   0.00000  Uiso   1.00
H849   H     0.77581   0.19847   0.58465   0.00000  Uiso   1.00
H850   H     0.89213   0.13795   0.91461   0.00000  Uiso   1.00
H851   H     0.90869   0.29702   0.70493   0.00000  Uiso   1.00
H852   H     0.75721   0.03662   0.79282   0.00000  Uiso   1.00
H853   H     0.90858   0.03965   0.70554   0.00000  Uiso   1.00
H854   H     0.75777   0.29381   0.79345   0.00000  Uiso   1.00
H855   H     0.93908   0.11574   0.79683   0.00000  Uiso   1.00
H856   H     0.72793   0.21747   0.70342   0.00000  Uiso   1.00
N857   N     0.71426   0.16668   0.75001   0.00000  Uiso   1.00
N858   N     0.95241   0.16666   0.74999   0.00000  Uiso   1.00
O859   O     0.79512   0.22775   0.75000   0.00000  Uiso   1.00
O860   O     0.87154   0.10558   0.74999   0.00000  Uiso   1.00
O861   O     0.87157   0.22774   0.75000   0.00000  Uiso   1.00
O862   O     0.79510   0.10559   0.75000   0.00000  Uiso   1.00
O863   O     0.77328   0.16667   0.81612   0.00000  Uiso   1.00
O864   O     0.89339   0.16666   0.68387   0.00000  Uiso   1.00
O865   O     0.84972   0.16666   0.81612   0.00000  Uiso   1.00
O866   O     0.81695   0.16667   0.68388   0.00000  Uiso   1.00
Zn867  Zn    0.78229   0.16667   0.75000   0.00000  Uiso   1.00
Zn868  Zn    0.88438   0.16666   0.75000   0.00000  Uiso   1.00
N869   N     0.70721   0.22155   0.55633   0.00000  Uiso   1.00
H870   H     0.67736   0.20447   0.55521   0.00000  Uiso   1.00
H871   H     0.70703   0.25099   0.54167   0.00000  Uiso   1.00
N872   N     0.96070   0.11502   0.94292   0.00000  Uiso   1.00
H873   H     0.96105   0.08558   0.95753   0.00000  Uiso   1.00
H874   H     0.99051   0.13223   0.94394   0.00000  Uiso   1.00
I875   I     0.77717   0.11701   0.62563   0.00000  Uiso   1.00
I876   I     0.88972   0.21850   0.87269   0.00000  Uiso   1.00
N877   N     0.96272   0.13634   0.60855   0.00000  Uiso   1.00
H878   H     0.99473   0.12455   0.58499   0.00000  Uiso   1.00
H879   H     0.97189   0.16518   0.61901   0.00000  Uiso   1.00
N880   N     0.70318   0.19917   0.89312   0.00000  Uiso   1.00
H881   H     0.69656   0.17152   0.87851   0.00000  Uiso   1.00
H882   H     0.71625   0.22205   0.86729   0.00000  Uiso   1.00
N883   N     0.69308   0.10898   0.80450   0.00000  Uiso   1.00
H884   H     0.66991   0.11294   0.83862   0.00000  Uiso   1.00
H885   H     0.68660   0.07900   0.79443   0.00000  Uiso   1.00
N886   N     0.97534   0.22837   0.69928   0.00000  Uiso   1.00
H887   H     0.95536   0.21664   0.68034   0.00000  Uiso   1.00
H888   H     0.95519   0.24987   0.72329   0.00000  Uiso   1.00
C889   C     0.16693   0.58000   0.74994   0.00000  Uiso   1.00
C890   C     0.16641   0.42003   0.74988   0.00000  Uiso   1.00
C891   C     0.11734   0.52379   0.54888   0.00000  Uiso   1.00
C892   C     0.21719   0.47931   0.95038   0.00000  Uiso   1.00
C893   C     0.08373   0.53422   0.52876   0.00000  Uiso   1.00
C894   C     0.25078   0.46889   0.97054   0.00000  Uiso   1.00
C895   C     0.20936   0.64615   0.72507   0.00000  Uiso   1.00
C896   C     0.12354   0.35399   0.77362   0.00000  Uiso   1.00
C897   C     0.20909   0.35568   0.72498   0.00000  Uiso   1.00
C898   C     0.12396   0.64443   0.77409   0.00000  Uiso   1.00
C899   C     0.16621   0.37593   0.74933   0.00000  Uiso   1.00
C900   C     0.16697   0.62416   0.75003   0.00000  Uiso   1.00
C901   C     0.29897   0.47162   0.77598   0.00000  Uiso   1.00
C902   C     0.03470   0.52808   0.72389   0.00000  Uiso   1.00
C903   C     0.01353   0.47176   0.77639   0.00000  Uiso   1.00
C904   C     0.32028   0.52870   0.72422   0.00000  Uiso   1.00
C905   C     0.13711   0.50453   0.83729   0.00000  Uiso   1.00
C906   C     0.19626   0.49585   0.66261   0.00000  Uiso   1.00
C907   C     0.12080   0.51512   0.88641   0.00000  Uiso   1.00
C908   C     0.21281   0.48631   0.61323   0.00000  Uiso   1.00
C909   C     0.06048   0.53315   0.96015   0.00000  Uiso   1.00
C910   C     0.27371   0.46948   0.53937   0.00000  Uiso   1.00
C911   C     0.07254   0.52543   0.91313   0.00000  Uiso   1.00
C912   C     0.26127   0.47665   0.58678   0.00000  Uiso   1.00
C913   C     0.15600   0.51766   0.90695   0.00000  Uiso   1.00
C914   C     0.17791   0.48435   0.59232   0.00000  Uiso   1.00
C915   C     0.14158   0.51379   0.95460   0.00000  Uiso   1.00
C916   C     0.19270   0.48893   0.54472   0.00000  Uiso   1.00
C917   C     0.09445   0.52655   0.98163   0.00000  Uiso   1.00
C918   C     0.23989   0.47631   0.51776   0.00000  Uiso   1.00
C919   C     0.17375   0.49959   0.97566   0.00000  Uiso   1.00
C920   C     0.16070   0.50340   0.52360   0.00000  Uiso   1.00
H921   H     0.02419   0.54321   0.97955   0.00000  Uiso   1.00
H922   H     0.31003   0.45970   0.51967   0.00000  Uiso   1.00
H923   H     0.10914   0.53181   0.58465   0.00000  Uiso   1.00
H924   H     0.22547   0.47128   0.91461   0.00000  Uiso   1.00
H925   H     0.24202   0.63035   0.70493   0.00000  Uiso   1.00
H926   H     0.09054   0.36995   0.79282   0.00000  Uiso   1.00
H927   H     0.24191   0.37298   0.70554   0.00000  Uiso   1.00
H928   H     0.09110   0.62714   0.79345   0.00000  Uiso   1.00
H929   H     0.27241   0.44908   0.79683   0.00000  Uiso   1.00
H930   H     0.06126   0.55080   0.70342   0.00000  Uiso   1.00
N931   N     0.04759   0.50001   0.75001   0.00000  Uiso   1.00
N932   N     0.28574   0.49999   0.74999   0.00000  Uiso   1.00
O933   O     0.12846   0.56108   0.75000   0.00000  Uiso   1.00
O934   O     0.20488   0.43892   0.74999   0.00000  Uiso   1.00
O935   O     0.20490   0.56107   0.75000   0.00000  Uiso   1.00
O936   O     0.12843   0.43893   0.75000   0.00000  Uiso   1.00
O937   O     0.10661   0.50001   0.81612   0.00000  Uiso   1.00
O938   O     0.22672   0.49999   0.68387   0.00000  Uiso   1.00
O939   O     0.18305   0.50000   0.81612   0.00000  Uiso   1.00
O940   O     0.15028   0.50000   0.68388   0.00000  Uiso   1.00
Zn941  Zn    0.11562   0.50001   0.75000   0.00000  Uiso   1.00
Zn942  Zn    0.21771   0.49999   0.75000   0.00000  Uiso   1.00
N943   N     0.04054   0.55488   0.55633   0.00000  Uiso   1.00
H944   H     0.01069   0.53781   0.55521   0.00000  Uiso   1.00
H945   H     0.04036   0.58433   0.54167   0.00000  Uiso   1.00
N946   N     0.29404   0.44835   0.94292   0.00000  Uiso   1.00
H947   H     0.29439   0.41892   0.95753   0.00000  Uiso   1.00
H948   H     0.32384   0.46556   0.94394   0.00000  Uiso   1.00
I949   I     0.11050   0.45035   0.62563   0.00000  Uiso   1.00
I950   I     0.22305   0.55184   0.87269   0.00000  Uiso   1.00
N951   N     0.29605   0.46967   0.60855   0.00000  Uiso   1.00
H952   H     0.32806   0.45788   0.58499   0.00000  Uiso   1.00
H953   H     0.30522   0.49852   0.61901   0.00000  Uiso   1.00
N954   N     0.03651   0.53251   0.89312   0.00000  Uiso   1.00
H955   H     0.02989   0.50485   0.87851   0.00000  Uiso   1.00
H956   H     0.04959   0.55538   0.86729   0.00000  Uiso   1.00
N957   N     0.02641   0.44231   0.80450   0.00000  Uiso   1.00
H958   H     0.00324   0.44627   0.83862   0.00000  Uiso   1.00
H959   H     0.01993   0.41233   0.79443   0.00000  Uiso   1.00
N960   N     0.30868   0.56171   0.69928   0.00000  Uiso   1.00
H961   H     0.28869   0.54997   0.68034   0.00000  Uiso   1.00
H962   H     0.28853   0.58321   0.72329   0.00000  Uiso   1.00
C963   C     0.50026   0.58000   0.74994   0.00000  Uiso   1.00
C964   C     0.49975   0.42003   0.74988   0.00000  Uiso   1.00
C965   C     0.45067   0.52379   0.54888   0.00000  Uiso   1.00
C966   C     0.55053   0.47931   0.95038   0.00000  Uiso   1.00
C967   C     0.41706   0.53422   0.52876   0.00000  Uiso   1.00
C968   C     0.58411   0.46889   0.97054   0.00000  Uiso   1.00
C969   C     0.54269   0.64615   0.72507   0.00000  Uiso   1.00
C970   C     0.45688   0.35399   0.77362   0.00000  Uiso   1.00
C971   C     0.54242   0.35568   0.72498   0.00000  Uiso   1.00
C972   C     0.45729   0.64443   0.77409   0.00000  Uiso   1.00
C973   C     0.49954   0.37593   0.74933   0.00000  Uiso   1.00
C974   C     0.50031   0.62416   0.75003   0.00000  Uiso   1.00
C975   C     0.63230   0.47162   0.77598   0.00000  Uiso   1.00
C976   C     0.36803   0.52808   0.72389   0.00000  Uiso   1.00
C977   C     0.34687   0.47176   0.77639   0.00000  Uiso   1.00
C978   C     0.65362   0.52870   0.72422   0.00000  Uiso   1.00
C979   C     0.47045   0.50453   0.83729   0.00000  Uiso   1.00
C980   C     0.52959   0.49585   0.66261   0.00000  Uiso   1.00
C981   C     0.45414   0.51512   0.88641   0.00000  Uiso   1.00
C982   C     0.54615   0.48631   0.61323   0.00000  Uiso   1.00
C983   C     0.39382   0.53315   0.96015   0.00000  Uiso   1.00
C984   C     0.60704   0.46948   0.53937   0.00000  Uiso   1.00
C985   C     0.40587   0.52543   0.91313   0.00000  Uiso   1.00
C986   C     0.59460   0.47665   0.58678   0.00000  Uiso   1.00
C987   C     0.48933   0.51766   0.90695   0.00000  Uiso   1.00
C988   C     0.51124   0.48435   0.59232   0.00000  Uiso   1.00
C989   C     0.47492   0.51379   0.95460   0.00000  Uiso   1.00
C990   C     0.52603   0.48893   0.54472   0.00000  Uiso   1.00
C991   C     0.42778   0.52655   0.98163   0.00000  Uiso   1.00
C992   C     0.57323   0.47631   0.51776   0.00000  Uiso   1.00
C993   C     0.50708   0.49959   0.97566   0.00000  Uiso   1.00
C994   C     0.49404   0.50340   0.52360   0.00000  Uiso   1.00
H995   H     0.35752   0.54321   0.97955   0.00000  Uiso   1.00
H996   H     0.64336   0.45970   0.51967   0.00000  Uiso   1.00
H997   H     0.44248   0.53181   0.58465   0.00000  Uiso   1.00
H998   H     0.55880   0.47128   0.91461   0.00000  Uiso   1.00
H999   H     0.57535   0.63035   0.70493   0.00000  Uiso   1.00
H1000  H     0.42388   0.36995   0.79282   0.00000  Uiso   1.00
H1001  H     0.57524   0.37298   0.70554   0.00000  Uiso   1.00
H1002  H     0.42444   0.62714   0.79345   0.00000  Uiso   1.00
H1003  H     0.60575   0.44908   0.79683   0.00000  Uiso   1.00
H1004  H     0.39460   0.55080   0.70342   0.00000  Uiso   1.00
N1005  N     0.38093   0.50001   0.75001   0.00000  Uiso   1.00
N1006  N     0.61907   0.49999   0.74999   0.00000  Uiso   1.00
O1007  O     0.46179   0.56108   0.75000   0.00000  Uiso   1.00
O1008  O     0.53821   0.43892   0.74999   0.00000  Uiso   1.00
O1009  O     0.53823   0.56107   0.75000   0.00000  Uiso   1.00
O1010  O     0.46177   0.43893   0.75000   0.00000  Uiso   1.00
O1011  O     0.43994   0.50001   0.81612   0.00000  Uiso   1.00
O1012  O     0.56006   0.49999   0.68387   0.00000  Uiso   1.00
O1013  O     0.51639   0.50000   0.81612   0.00000  Uiso   1.00
O1014  O     0.48361   0.50000   0.68388   0.00000  Uiso   1.00
Zn1015 Zn    0.44896   0.50001   0.75000   0.00000  Uiso   1.00
Zn1016 Zn    0.55104   0.49999   0.75000   0.00000  Uiso   1.00
N1017  N     0.37388   0.55488   0.55633   0.00000  Uiso   1.00
H1018  H     0.34402   0.53781   0.55521   0.00000  Uiso   1.00
H1019  H     0.37370   0.58433   0.54167   0.00000  Uiso   1.00
N1020  N     0.62737   0.44835   0.94292   0.00000  Uiso   1.00
H1021  H     0.62772   0.41892   0.95753   0.00000  Uiso   1.00
H1022  H     0.65718   0.46556   0.94394   0.00000  Uiso   1.00
I1023  I     0.44384   0.45035   0.62563   0.00000  Uiso   1.00
I1024  I     0.55639   0.55184   0.87269   0.00000  Uiso   1.00
N1025  N     0.62938   0.46967   0.60855   0.00000  Uiso   1.00
H1026  H     0.66140   0.45788   0.58499   0.00000  Uiso   1.00
H1027  H     0.63855   0.49852   0.61901   0.00000  Uiso   1.00
N1028  N     0.36984   0.53251   0.89312   0.00000  Uiso   1.00
H1029  H     0.36323   0.50485   0.87851   0.00000  Uiso   1.00
H1030  H     0.38292   0.55538   0.86729   0.00000  Uiso   1.00
N1031  N     0.35975   0.44231   0.80450   0.00000  Uiso   1.00
H1032  H     0.33657   0.44627   0.83862   0.00000  Uiso   1.00
H1033  H     0.35327   0.41233   0.79443   0.00000  Uiso   1.00
N1034  N     0.64201   0.56171   0.69928   0.00000  Uiso   1.00
H1035  H     0.62202   0.54997   0.68034   0.00000  Uiso   1.00
H1036  H     0.62186   0.58321   0.72329   0.00000  Uiso   1.00
C1037  C     0.83360   0.58000   0.74994   0.00000  Uiso   1.00
C1038  C     0.83308   0.42003   0.74988   0.00000  Uiso   1.00
C1039  C     0.78401   0.52379   0.54888   0.00000  Uiso   1.00
C1040  C     0.88386   0.47931   0.95038   0.00000  Uiso   1.00
C1041  C     0.75040   0.53422   0.52876   0.00000  Uiso   1.00
C1042  C     0.91744   0.46889   0.97054   0.00000  Uiso   1.00
C1043  C     0.87603   0.64615   0.72507   0.00000  Uiso   1.00
C1044  C     0.79021   0.35399   0.77362   0.00000  Uiso   1.00
C1045  C     0.87576   0.35568   0.72498   0.00000  Uiso   1.00
C1046  C     0.79062   0.64443   0.77409   0.00000  Uiso   1.00
C1047  C     0.83287   0.37593   0.74933   0.00000  Uiso   1.00
C1048  C     0.83364   0.62416   0.75003   0.00000  Uiso   1.00
C1049  C     0.96563   0.47162   0.77598   0.00000  Uiso   1.00
C1050  C     0.70136   0.52808   0.72389   0.00000  Uiso   1.00
C1051  C     0.68020   0.47176   0.77639   0.00000  Uiso   1.00
C1052  C     0.98695   0.52870   0.72422   0.00000  Uiso   1.00
C1053  C     0.80378   0.50453   0.83729   0.00000  Uiso   1.00
C1054  C     0.86292   0.49585   0.66261   0.00000  Uiso   1.00
C1055  C     0.78747   0.51512   0.88641   0.00000  Uiso   1.00
C1056  C     0.87948   0.48631   0.61323   0.00000  Uiso   1.00
C1057  C     0.72715   0.53315   0.96015   0.00000  Uiso   1.00
C1058  C     0.94038   0.46948   0.53937   0.00000  Uiso   1.00
C1059  C     0.73921   0.52543   0.91313   0.00000  Uiso   1.00
C1060  C     0.92794   0.47665   0.58678   0.00000  Uiso   1.00
C1061  C     0.82267   0.51766   0.90695   0.00000  Uiso   1.00
C1062  C     0.84457   0.48435   0.59232   0.00000  Uiso   1.00
C1063  C     0.80825   0.51379   0.95460   0.00000  Uiso   1.00
C1064  C     0.85937   0.48893   0.54472   0.00000  Uiso   1.00
C1065  C     0.76112   0.52655   0.98163   0.00000  Uiso   1.00
C1066  C     0.90656   0.47631   0.51776   0.00000  Uiso   1.00
C1067  C     0.84042   0.49959   0.97566   0.00000  Uiso   1.00
C1068  C     0.82737   0.50340   0.52360   0.00000  Uiso   1.00
H1069  H     0.69085   0.54321   0.97955   0.00000  Uiso   1.00
H1070  H     0.97670   0.45970   0.51967   0.00000  Uiso   1.00
H1071  H     0.77581   0.53181   0.58465   0.00000  Uiso   1.00
H1072  H     0.89213   0.47128   0.91461   0.00000  Uiso   1.00
H1073  H     0.90869   0.63035   0.70493   0.00000  Uiso   1.00
H1074  H     0.75721   0.36995   0.79282   0.00000  Uiso   1.00
H1075  H     0.90858   0.37298   0.70554   0.00000  Uiso   1.00
H1076  H     0.75777   0.62714   0.79345   0.00000  Uiso   1.00
H1077  H     0.93908   0.44908   0.79683   0.00000  Uiso   1.00
H1078  H     0.72793   0.55080   0.70342   0.00000  Uiso   1.00
N1079  N     0.71426   0.50001   0.75001   0.00000  Uiso   1.00
N1080  N     0.95241   0.49999   0.74999   0.00000  Uiso   1.00
O1081  O     0.79512   0.56108   0.75000   0.00000  Uiso   1.00
O1082  O     0.87154   0.43892   0.74999   0.00000  Uiso   1.00
O1083  O     0.87157   0.56107   0.75000   0.00000  Uiso   1.00
O1084  O     0.79510   0.43893   0.75000   0.00000  Uiso   1.00
O1085  O     0.77328   0.50001   0.81612   0.00000  Uiso   1.00
O1086  O     0.89339   0.49999   0.68387   0.00000  Uiso   1.00
O1087  O     0.84972   0.50000   0.81612   0.00000  Uiso   1.00
O1088  O     0.81695   0.50000   0.68388   0.00000  Uiso   1.00
Zn1089 Zn    0.78229   0.50001   0.75000   0.00000  Uiso   1.00
Zn1090 Zn    0.88438   0.49999   0.75000   0.00000  Uiso   1.00
N1091  N     0.70721   0.55488   0.55633   0.00000  Uiso   1.00
H1092  H     0.67736   0.53781   0.55521   0.00000  Uiso   1.00
H1093  H     0.70703   0.58433   0.54167   0.00000  Uiso   1.00
N1094  N     0.96070   0.44835   0.94292   0.00000  Uiso   1.00
H1095  H     0.96105   0.41892   0.95753   0.00000  Uiso   1.00
H1096  H     0.99051   0.46556   0.94394   0.00000  Uiso   1.00
I1097  I     0.77717   0.45035   0.62563   0.00000  Uiso   1.00
I1098  I     0.88972   0.55184   0.87269   0.00000  Uiso   1.00
N1099  N     0.96272   0.46967   0.60855   0.00000  Uiso   1.00
H1100  H     0.99473   0.45788   0.58499   0.00000  Uiso   1.00
H1101  H     0.97189   0.49852   0.61901   0.00000  Uiso   1.00
N1102  N     0.70318   0.53251   0.89312   0.00000  Uiso   1.00
H1103  H     0.69656   0.50485   0.87851   0.00000  Uiso   1.00
H1104  H     0.71625   0.55538   0.86729   0.00000  Uiso   1.00
N1105  N     0.69308   0.44231   0.80450   0.00000  Uiso   1.00
H1106  H     0.66991   0.44627   0.83862   0.00000  Uiso   1.00
H1107  H     0.68660   0.41233   0.79443   0.00000  Uiso   1.00
N1108  N     0.97534   0.56171   0.69928   0.00000  Uiso   1.00
H1109  H     0.95536   0.54997   0.68034   0.00000  Uiso   1.00
H1110  H     0.95519   0.58321   0.72329   0.00000  Uiso   1.00
C1111  C     0.16693   0.91333   0.74994   0.00000  Uiso   1.00
C1112  C     0.16641   0.75337   0.74988   0.00000  Uiso   1.00
C1113  C     0.11734   0.85712   0.54888   0.00000  Uiso   1.00
C1114  C     0.21719   0.81265   0.95038   0.00000  Uiso   1.00
C1115  C     0.08373   0.86756   0.52876   0.00000  Uiso   1.00
C1116  C     0.25078   0.80223   0.97054   0.00000  Uiso   1.00
C1117  C     0.20936   0.97948   0.72507   0.00000  Uiso   1.00
C1118  C     0.12354   0.68732   0.77362   0.00000  Uiso   1.00
C1119  C     0.20909   0.68901   0.72498   0.00000  Uiso   1.00
C1120  C     0.12396   0.97777   0.77409   0.00000  Uiso   1.00
C1121  C     0.16621   0.70927   0.74933   0.00000  Uiso   1.00
C1122  C     0.16697   0.95749   0.75003   0.00000  Uiso   1.00
C1123  C     0.29897   0.80495   0.77598   0.00000  Uiso   1.00
C1124  C     0.03470   0.86141   0.72389   0.00000  Uiso   1.00
C1125  C     0.01353   0.80510   0.77639   0.00000  Uiso   1.00
C1126  C     0.32028   0.86203   0.72422   0.00000  Uiso   1.00
C1127  C     0.13711   0.83786   0.83729   0.00000  Uiso   1.00
C1128  C     0.19626   0.82919   0.66261   0.00000  Uiso   1.00
C1129  C     0.12080   0.84845   0.88641   0.00000  Uiso   1.00
C1130  C     0.21281   0.81964   0.61323   0.00000  Uiso   1.00
C1131  C     0.06048   0.86648   0.96015   0.00000  Uiso   1.00
C1132  C     0.27371   0.80281   0.53937   0.00000  Uiso   1.00
C1133  C     0.07254   0.85877   0.91313   0.00000  Uiso   1.00
C1134  C     0.26127   0.80998   0.58678   0.00000  Uiso   1.00
C1135  C     0.15600   0.85099   0.90695   0.00000  Uiso   1.00
C1136  C     0.17791   0.81769   0.59232   0.00000  Uiso   1.00
C1137  C     0.14158   0.84713   0.95460   0.00000  Uiso   1.00
C1138  C     0.19270   0.82226   0.54472   0.00000  Uiso   1.00
C1139  C     0.09445   0.85988   0.98163   0.00000  Uiso   1.00
C1140  C     0.23989   0.80965   0.51776   0.00000  Uiso   1.00
C1141  C     0.17375   0.83292   0.97566   0.00000  Uiso   1.00
C1142  C     0.16070   0.83673   0.52360   0.00000  Uiso   1.00
H1143  H     0.02419   0.87655   0.97955   0.00000  Uiso   1.00
H1144  H     0.31003   0.79303   0.51967   0.00000  Uiso   1.00
H1145  H     0.10914   0.86514   0.58465   0.00000  Uiso   1.00
H1146  H     0.22547   0.80462   0.91461   0.00000  Uiso   1.00
H1147  H     0.24202   0.96369   0.70493   0.00000  Uiso   1.00
H1148  H     0.09054   0.70328   0.79282   0.00000  Uiso   1.00
H1149  H     0.24191   0.70632   0.70554   0.00000  Uiso   1.00
H1150  H     0.09110   0.96047   0.79345   0.00000  Uiso   1.00
H1151  H     0.27241   0.78241   0.79683   0.00000  Uiso   1.00
H1152  H     0.06126   0.88413   0.70342   0.00000  Uiso   1.00
N1153  N     0.04759   0.83334   0.75001   0.00000  Uiso   1.00
N1154  N     0.28574   0.83332   0.74999   0.00000  Uiso   1.00
O1155  O     0.12846   0.89442   0.75000   0.00000  Uiso   1.00
O1156  O     0.20488   0.77225   0.74999   0.00000  Uiso   1.00
O1157  O     0.20490   0.89441   0.75000   0.00000  Uiso   1.00
O1158  O     0.12843   0.77226   0.75000   0.00000  Uiso   1.00
O1159  O     0.10661   0.83334   0.81612   0.00000  Uiso   1.00
O1160  O     0.22672   0.83333   0.68387   0.00000  Uiso   1.00
O1161  O     0.18305   0.83333   0.81612   0.00000  Uiso   1.00
O1162  O     0.15028   0.83334   0.68388   0.00000  Uiso   1.00
Zn1163 Zn    0.11562   0.83334   0.75000   0.00000  Uiso   1.00
Zn1164 Zn    0.21771   0.83333   0.75000   0.00000  Uiso   1.00
N1165  N     0.04054   0.88822   0.55633   0.00000  Uiso   1.00
H1166  H     0.01069   0.87114   0.55521   0.00000  Uiso   1.00
H1167  H     0.04036   0.91766   0.54167   0.00000  Uiso   1.00
N1168  N     0.29404   0.78169   0.94292   0.00000  Uiso   1.00
H1169  H     0.29439   0.75225   0.95753   0.00000  Uiso   1.00
H1170  H     0.32384   0.79890   0.94394   0.00000  Uiso   1.00
I1171  I     0.11050   0.78368   0.62563   0.00000  Uiso   1.00
I1172  I     0.22305   0.88517   0.87269   0.00000  Uiso   1.00
N1173  N     0.29605   0.80301   0.60855   0.00000  Uiso   1.00
H1174  H     0.32806   0.79121   0.58499   0.00000  Uiso   1.00
H1175  H     0.30522   0.83185   0.61901   0.00000  Uiso   1.00
N1176  N     0.03651   0.86584   0.89312   0.00000  Uiso   1.00
H1177  H     0.02989   0.83818   0.87851   0.00000  Uiso   1.00
H1178  H     0.04959   0.88872   0.86729   0.00000  Uiso   1.00
N1179  N     0.02641   0.77564   0.80450   0.00000  Uiso   1.00
H1180  H     0.00324   0.77961   0.83862   0.00000  Uiso   1.00
H1181  H     0.01993   0.74566   0.79443   0.00000  Uiso   1.00
N1182  N     0.30868   0.89504   0.69928   0.00000  Uiso   1.00
H1183  H     0.28869   0.88331   0.68034   0.00000  Uiso   1.00
H1184  H     0.28853   0.91654   0.72329   0.00000  Uiso   1.00
C1185  C     0.50026   0.91333   0.74994   0.00000  Uiso   1.00
C1186  C     0.49975   0.75337   0.74988   0.00000  Uiso   1.00
C1187  C     0.45067   0.85712   0.54888   0.00000  Uiso   1.00
C1188  C     0.55053   0.81265   0.95038   0.00000  Uiso   1.00
C1189  C     0.41706   0.86756   0.52876   0.00000  Uiso   1.00
C1190  C     0.58411   0.80223   0.97054   0.00000  Uiso   1.00
C1191  C     0.54269   0.97948   0.72507   0.00000  Uiso   1.00
C1192  C     0.45688   0.68732   0.77362   0.00000  Uiso   1.00
C1193  C     0.54242   0.68901   0.72498   0.00000  Uiso   1.00
C1194  C     0.45729   0.97777   0.77409   0.00000  Uiso   1.00
C1195  C     0.49954   0.70927   0.74933   0.00000  Uiso   1.00
C1196  C     0.50031   0.95749   0.75003   0.00000  Uiso   1.00
C1197  C     0.63230   0.80495   0.77598   0.00000  Uiso   1.00
C1198  C     0.36803   0.86141   0.72389   0.00000  Uiso   1.00
C1199  C     0.34687   0.80510   0.77639   0.00000  Uiso   1.00
C1200  C     0.65362   0.86203   0.72422   0.00000  Uiso   1.00
C1201  C     0.47045   0.83786   0.83729   0.00000  Uiso   1.00
C1202  C     0.52959   0.82919   0.66261   0.00000  Uiso   1.00
C1203  C     0.45414   0.84845   0.88641   0.00000  Uiso   1.00
C1204  C     0.54615   0.81964   0.61323   0.00000  Uiso   1.00
C1205  C     0.39382   0.86648   0.96015   0.00000  Uiso   1.00
C1206  C     0.60704   0.80281   0.53937   0.00000  Uiso   1.00
C1207  C     0.40587   0.85877   0.91313   0.00000  Uiso   1.00
C1208  C     0.59460   0.80998   0.58678   0.00000  Uiso   1.00
C1209  C     0.48933   0.85099   0.90695   0.00000  Uiso   1.00
C1210  C     0.51124   0.81769   0.59232   0.00000  Uiso   1.00
C1211  C     0.47492   0.84713   0.95460   0.00000  Uiso   1.00
C1212  C     0.52603   0.82226   0.54472   0.00000  Uiso   1.00
C1213  C     0.42778   0.85988   0.98163   0.00000  Uiso   1.00
C1214  C     0.57323   0.80965   0.51776   0.00000  Uiso   1.00
C1215  C     0.50708   0.83292   0.97566   0.00000  Uiso   1.00
C1216  C     0.49404   0.83673   0.52360   0.00000  Uiso   1.00
H1217  H     0.35752   0.87655   0.97955   0.00000  Uiso   1.00
H1218  H     0.64336   0.79303   0.51967   0.00000  Uiso   1.00
H1219  H     0.44248   0.86514   0.58465   0.00000  Uiso   1.00
H1220  H     0.55880   0.80462   0.91461   0.00000  Uiso   1.00
H1221  H     0.57535   0.96369   0.70493   0.00000  Uiso   1.00
H1222  H     0.42388   0.70328   0.79282   0.00000  Uiso   1.00
H1223  H     0.57524   0.70632   0.70554   0.00000  Uiso   1.00
H1224  H     0.42444   0.96047   0.79345   0.00000  Uiso   1.00
H1225  H     0.60575   0.78241   0.79683   0.00000  Uiso   1.00
H1226  H     0.39460   0.88413   0.70342   0.00000  Uiso   1.00
N1227  N     0.38093   0.83334   0.75001   0.00000  Uiso   1.00
N1228  N     0.61907   0.83332   0.74999   0.00000  Uiso   1.00
O1229  O     0.46179   0.89442   0.75000   0.00000  Uiso   1.00
O1230  O     0.53821   0.77225   0.74999   0.00000  Uiso   1.00
O1231  O     0.53823   0.89441   0.75000   0.00000  Uiso   1.00
O1232  O     0.46177   0.77226   0.75000   0.00000  Uiso   1.00
O1233  O     0.43994   0.83334   0.81612   0.00000  Uiso   1.00
O1234  O     0.56006   0.83333   0.68387   0.00000  Uiso   1.00
O1235  O     0.51639   0.83333   0.81612   0.00000  Uiso   1.00
O1236  O     0.48361   0.83334   0.68388   0.00000  Uiso   1.00
Zn1237 Zn    0.44896   0.83334   0.75000   0.00000  Uiso   1.00
Zn1238 Zn    0.55104   0.83333   0.75000   0.00000  Uiso   1.00
N1239  N     0.37388   0.88822   0.55633   0.00000  Uiso   1.00
H1240  H     0.34402   0.87114   0.55521   0.00000  Uiso   1.00
H1241  H     0.37370   0.91766   0.54167   0.00000  Uiso   1.00
N1242  N     0.62737   0.78169   0.94292   0.00000  Uiso   1.00
H1243  H     0.62772   0.75225   0.95753   0.00000  Uiso   1.00
H1244  H     0.65718   0.79890   0.94394   0.00000  Uiso   1.00
I1245  I     0.44384   0.78368   0.62563   0.00000  Uiso   1.00
I1246  I     0.55639   0.88517   0.87269   0.00000  Uiso   1.00
N1247  N     0.62938   0.80301   0.60855   0.00000  Uiso   1.00
H1248  H     0.66140   0.79121   0.58499   0.00000  Uiso   1.00
H1249  H     0.63855   0.83185   0.61901   0.00000  Uiso   1.00
N1250  N     0.36984   0.86584   0.89312   0.00000  Uiso   1.00
H1251  H     0.36323   0.83818   0.87851   0.00000  Uiso   1.00
H1252  H     0.38292   0.88872   0.86729   0.00000  Uiso   1.00
N1253  N     0.35975   0.77564   0.80450   0.00000  Uiso   1.00
H1254  H     0.33657   0.77961   0.83862   0.00000  Uiso   1.00
H1255  H     0.35327   0.74566   0.79443   0.00000  Uiso   1.00
N1256  N     0.64201   0.89504   0.69928   0.00000  Uiso   1.00
H1257  H     0.62202   0.88331   0.68034   0.00000  Uiso   1.00
H1258  H     0.62186   0.91654   0.72329   0.00000  Uiso   1.00
C1259  C     0.83360   0.91333   0.74994   0.00000  Uiso   1.00
C1260  C     0.83308   0.75337   0.74988   0.00000  Uiso   1.00
C1261  C     0.78401   0.85712   0.54888   0.00000  Uiso   1.00
C1262  C     0.88386   0.81265   0.95038   0.00000  Uiso   1.00
C1263  C     0.75040   0.86756   0.52876   0.00000  Uiso   1.00
C1264  C     0.91744   0.80223   0.97054   0.00000  Uiso   1.00
C1265  C     0.87603   0.97948   0.72507   0.00000  Uiso   1.00
C1266  C     0.79021   0.68732   0.77362   0.00000  Uiso   1.00
C1267  C     0.87576   0.68901   0.72498   0.00000  Uiso   1.00
C1268  C     0.79062   0.97777   0.77409   0.00000  Uiso   1.00
C1269  C     0.83287   0.70927   0.74933   0.00000  Uiso   1.00
C1270  C     0.83364   0.95749   0.75003   0.00000  Uiso   1.00
C1271  C     0.96563   0.80495   0.77598   0.00000  Uiso   1.00
C1272  C     0.70136   0.86141   0.72389   0.00000  Uiso   1.00
C1273  C     0.68020   0.80510   0.77639   0.00000  Uiso   1.00
C1274  C     0.98695   0.86203   0.72422   0.00000  Uiso   1.00
C1275  C     0.80378   0.83786   0.83729   0.00000  Uiso   1.00
C1276  C     0.86292   0.82919   0.66261   0.00000  Uiso   1.00
C1277  C     0.78747   0.84845   0.88641   0.00000  Uiso   1.00
C1278  C     0.87948   0.81964   0.61323   0.00000  Uiso   1.00
C1279  C     0.72715   0.86648   0.96015   0.00000  Uiso   1.00
C1280  C     0.94038   0.80281   0.53937   0.00000  Uiso   1.00
C1281  C     0.73921   0.85877   0.91313   0.00000  Uiso   1.00
C1282  C     0.92794   0.80998   0.58678   0.00000  Uiso   1.00
C1283  C     0.82267   0.85099   0.90695   0.00000  Uiso   1.00
C1284  C     0.84457   0.81769   0.59232   0.00000  Uiso   1.00
C1285  C     0.80825   0.84713   0.95460   0.00000  Uiso   1.00
C1286  C     0.85937   0.82226   0.54472   0.00000  Uiso   1.00
C1287  C     0.76112   0.85988   0.98163   0.00000  Uiso   1.00
C1288  C     0.90656   0.80965   0.51776   0.00000  Uiso   1.00
C1289  C     0.84042   0.83292   0.97566   0.00000  Uiso   1.00
C1290  C     0.82737   0.83673   0.52360   0.00000  Uiso   1.00
H1291  H     0.69085   0.87655   0.97955   0.00000  Uiso   1.00
H1292  H     0.97670   0.79303   0.51967   0.00000  Uiso   1.00
H1293  H     0.77581   0.86514   0.58465   0.00000  Uiso   1.00
H1294  H     0.89213   0.80462   0.91461   0.00000  Uiso   1.00
H1295  H     0.90869   0.96369   0.70493   0.00000  Uiso   1.00
H1296  H     0.75721   0.70328   0.79282   0.00000  Uiso   1.00
H1297  H     0.90858   0.70632   0.70554   0.00000  Uiso   1.00
H1298  H     0.75777   0.96047   0.79345   0.00000  Uiso   1.00
H1299  H     0.93908   0.78241   0.79683   0.00000  Uiso   1.00
H1300  H     0.72793   0.88413   0.70342   0.00000  Uiso   1.00
N1301  N     0.71426   0.83334   0.75001   0.00000  Uiso   1.00
N1302  N     0.95241   0.83332   0.74999   0.00000  Uiso   1.00
O1303  O     0.79512   0.89442   0.75000   0.00000  Uiso   1.00
O1304  O     0.87154   0.77225   0.74999   0.00000  Uiso   1.00
O1305  O     0.87157   0.89441   0.75000   0.00000  Uiso   1.00
O1306  O     0.79510   0.77226   0.75000   0.00000  Uiso   1.00
O1307  O     0.77328   0.83334   0.81612   0.00000  Uiso   1.00
O1308  O     0.89339   0.83333   0.68387   0.00000  Uiso   1.00
O1309  O     0.84972   0.83333   0.81612   0.00000  Uiso   1.00
O1310  O     0.81695   0.83334   0.68388   0.00000  Uiso   1.00
Zn1311 Zn    0.78229   0.83334   0.75000   0.00000  Uiso   1.00
Zn1312 Zn    0.88438   0.83333   0.75000   0.00000  Uiso   1.00
N1313  N     0.70721   0.88822   0.55633   0.00000  Uiso   1.00
H1314  H     0.67736   0.87114   0.55521   0.00000  Uiso   1.00
H1315  H     0.70703   0.91766   0.54167   0.00000  Uiso   1.00
N1316  N     0.96070   0.78169   0.94292   0.00000  Uiso   1.00
H1317  H     0.96105   0.75225   0.95753   0.00000  Uiso   1.00
H1318  H     0.99051   0.79890   0.94394   0.00000  Uiso   1.00
I1319  I     0.77717   0.78368   0.62563   0.00000  Uiso   1.00
I1320  I     0.88972   0.88517   0.87269   0.00000  Uiso   1.00
N1321  N     0.96272   0.80301   0.60855   0.00000  Uiso   1.00
H1322  H     0.99473   0.79121   0.58499   0.00000  Uiso   1.00
H1323  H     0.97189   0.83185   0.61901   0.00000  Uiso   1.00
N1324  N     0.70318   0.86584   0.89312   0.00000  Uiso   1.00
H1325  H     0.69656   0.83818   0.87851   0.00000  Uiso   1.00
H1326  H     0.71625   0.88872   0.86729   0.00000  Uiso   1.00
N1327  N     0.69308   0.77564   0.80450   0.00000  Uiso   1.00
H1328  H     0.66991   0.77961   0.83862   0.00000  Uiso   1.00
H1329  H     0.68660   0.74566   0.79443   0.00000  Uiso   1.00
N1330  N     0.97534   0.89504   0.69928   0.00000  Uiso   1.00
H1331  H     0.95536   0.88331   0.68034   0.00000  Uiso   1.00
H1332  H     0.95519   0.91654   0.72329   0.00000  Uiso   1.00
loop_
_geom_bond_atom_site_label_1
_geom_bond_atom_site_label_2
_geom_bond_distance
_geom_bond_site_symmetry_2
_ccdc_geom_bond_type
C1     O45     1.280   .     A
C1     C12     1.413   .     S
C1     O47     1.285   .     A
C2     O48     1.283   .     A
C2     O46     1.281   .     A
C2     C11     1.411   .     S
C3     H35     1.082   .     S
C3     C32     1.414   .     A
C3     C5      1.394   .     A
C4     H36     1.082   .     S
C4     C31     1.414   .     A
C4     C6      1.394   .     A
C5     N55     1.433   .     S
C5     C695    1.407   1_554 S
C6     N58     1.433   .     S
C6     C696    1.407   .     S
C7     H37     1.080   .     S
C7     C12     1.393   .     A
C7     C231    1.372   .     S
C8     H38     1.083   .     S
C8     C11     1.394   .     A
C8     C454    1.373   1_545 S
C9     H39     1.084   .     S
C9     C11     1.395   .     A
C9     C451    1.372   1_545 S
C10    H40     1.084   .     S
C10    C12     1.397   .     A
C10    C230    1.373   .     S
C13    H41     1.082   .     S
C13    N44     1.364   .     A
C13    C89     1.422   .     S
C14    H42     1.082   .     S
C14    N43     1.355   .     A
C14    C164    1.410   1_455 S
C15    N69     1.428   .     S
C15    N43     1.371   .     A
C15    C161    1.422   1_455 S
C16    N72     1.424   .     S
C16    N44     1.382   .     A
C16    C88     1.410   .     S
C17    O51     1.292   .     A
C17    O49     1.300   .     A
C17    C19     1.470   .     S
C18    O52     1.292   .     A
C18    C20     1.469   .     S
C18    O50     1.300   .     A
C19    C25     1.404   .     A
C19    C23     1.417   .     A
C20    C26     1.404   .     A
C20    C24     1.415   .     A
C21    H33     1.082   .     S
C21    C29     1.409   .     A
C21    C23     1.399   .     A
C22    H34     1.082   .     S
C22    C24     1.406   .     A
C22    C30     1.409   .     A
C23    N66     1.434   .     S
C24    N63     1.439   .     S
C25    I62     2.163   .     S
C25    C27     1.391   .     A
C26    C28     1.391   .     A
C26    I61     2.163   .     S
C27    C29     1.415   .     A
C27    C31     1.413   .     A
C28    C30     1.414   .     A
C28    C32     1.413   .     A
C29    C671    1.407   .     S
C30    C672    1.407   1_554 S
C31    C698    1.406   .     S
C32    C697    1.406   1_554 S
N43    Zn53    2.013   .     S
N44    Zn54    2.013   .     S
O45    Zn53    1.985   .     S
O46    Zn54    1.985   .     S
O47    Zn54    1.996   .     S
O48    Zn53    1.996   .     S
O49    Zn53    1.975   .     S
O50    Zn54    1.975   .     S
O51    Zn54    1.941   .     S
O52    Zn53    1.941   .     S
N55    H56     1.043   .     S
N55    H57     1.045   .     S
N58    H60     1.042   .     S
N58    H59     1.045   .     S
N63    H65     1.043   .     S
N63    H64     1.046   .     S
N66    H68     1.046   .     S
N66    H67     1.043   .     S
N69    H70     1.046   .     S
N69    H71     1.046   .     S
N72    H74     1.041   .     S
N72    H73     1.040   .     S
C75    O119    1.280   .     A
C75    C86     1.413   .     S
C75    O121    1.285   .     A
C76    O122    1.283   .     A
C76    O120    1.281   .     A
C76    C85     1.411   .     S
C77    H109    1.082   .     S
C77    C106    1.414   .     A
C77    C79     1.394   .     A
C78    H110    1.082   .     S
C78    C105    1.414   .     A
C78    C80     1.394   .     A
C79    N129    1.433   .     S
C79    C769    1.407   1_554 S
C80    N132    1.433   .     S
C80    C770    1.407   .     S
C81    H111    1.080   .     S
C81    C86     1.393   .     A
C81    C305    1.372   .     S
C82    H112    1.083   .     S
C82    C85     1.394   .     A
C82    C528    1.373   1_545 S
C83    H113    1.084   .     S
C83    C85     1.395   .     A
C83    C525    1.372   1_545 S
C84    H114    1.084   .     S
C84    C86     1.397   .     A
C84    C304    1.373   .     S
C87    H115    1.082   .     S
C87    N118    1.364   .     A
C87    C163    1.422   .     S
C88    H116    1.082   .     S
C88    N117    1.355   .     A
C89    N143    1.428   .     S
C89    N117    1.371   .     A
C90    N146    1.424   .     S
C90    N118    1.382   .     A
C90    C162    1.410   .     S
C91    O125    1.292   .     A
C91    O123    1.300   .     A
C91    C93     1.470   .     S
C92    O126    1.292   .     A
C92    C94     1.469   .     S
C92    O124    1.300   .     A
C93    C99     1.404   .     A
C93    C97     1.417   .     A
C94    C100    1.404   .     A
C94    C98     1.415   .     A
C95    H107    1.082   .     S
C95    C103    1.409   .     A
C95    C97     1.399   .     A
C96    H108    1.082   .     S
C96    C98     1.406   .     A
C96    C104    1.409   .     A
C97    N140    1.434   .     S
C98    N137    1.439   .     S
C99    I136    2.163   .     S
C99    C101    1.391   .     A
C100   C102    1.391   .     A
C100   I135    2.163   .     S
C101   C103    1.415   .     A
C101   C105    1.413   .     A
C102   C104    1.414   .     A
C102   C106    1.413   .     A
C103   C745    1.407   .     S
C104   C746    1.407   1_554 S
C105   C772    1.406   .     S
C106   C771    1.406   1_554 S
N117   Zn127   2.013   .     S
N118   Zn128   2.013   .     S
O119   Zn127   1.985   .     S
O120   Zn128   1.985   .     S
O121   Zn128   1.996   .     S
O122   Zn127   1.996   .     S
O123   Zn127   1.975   .     S
O124   Zn128   1.975   .     S
O125   Zn128   1.941   .     S
O126   Zn127   1.941   .     S
N129   H130    1.043   .     S
N129   H131    1.045   .     S
N132   H134    1.042   .     S
N132   H133    1.045   .     S
N137   H139    1.043   .     S
N137   H138    1.046   .     S
N140   H142    1.046   .     S
N140   H141    1.043   .     S
N143   H144    1.046   .     S
N143   H145    1.046   .     S
N146   H148    1.041   .     S
N146   H147    1.040   .     S
C149   O193    1.280   .     A
C149   C160    1.413   .     S
C149   O195    1.285   .     A
C150   O196    1.283   .     A
C150   O194    1.281   .     A
C150   C159    1.411   .     S
C151   H183    1.082   .     S
C151   C180    1.414   .     A
C151   C153    1.394   .     A
C152   H184    1.082   .     S
C152   C179    1.414   .     A
C152   C154    1.394   .     A
C153   N203    1.433   .     S
C153   C843    1.407   1_554 S
C154   N206    1.433   .     S
C154   C844    1.407   .     S
C155   H185    1.080   .     S
C155   C160    1.393   .     A
C155   C379    1.372   .     S
C156   H186    1.083   .     S
C156   C159    1.394   .     A
C156   C602    1.373   1_545 S
C157   H187    1.084   .     S
C157   C159    1.395   .     A
C157   C599    1.372   1_545 S
C158   H188    1.084   .     S
C158   C160    1.397   .     A
C158   C378    1.373   .     S
C161   H189    1.082   .     S
C161   N192    1.364   .     A
C161   C15     1.422   1_655 S
C162   H190    1.082   .     S
C162   N191    1.355   .     A
C163   N217    1.428   .     S
C163   N191    1.371   .     A
C164   N220    1.424   .     S
C164   N192    1.382   .     A
C164   C14     1.410   1_655 S
C165   O199    1.292   .     A
C165   O197    1.300   .     A
C165   C167    1.470   .     S
C166   O200    1.292   .     A
C166   C168    1.469   .     S
C166   O198    1.300   .     A
C167   C173    1.404   .     A
C167   C171    1.417   .     A
C168   C174    1.404   .     A
C168   C172    1.415   .     A
C169   H181    1.082   .     S
C169   C177    1.409   .     A
C169   C171    1.399   .     A
C170   H182    1.082   .     S
C170   C172    1.406   .     A
C170   C178    1.409   .     A
C171   N214    1.434   .     S
C172   N211    1.439   .     S
C173   I210    2.163   .     S
C173   C175    1.391   .     A
C174   C176    1.391   .     A
C174   I209    2.163   .     S
C175   C177    1.415   .     A
C175   C179    1.413   .     A
C176   C178    1.414   .     A
C176   C180    1.413   .     A
C177   C819    1.407   .     S
C178   C820    1.407   1_554 S
C179   C846    1.406   .     S
C180   C845    1.406   1_554 S
N191   Zn201   2.013   .     S
N192   Zn202   2.013   .     S
O193   Zn201   1.985   .     S
O194   Zn202   1.985   .     S
O195   Zn202   1.996   .     S
O196   Zn201   1.996   .     S
O197   Zn201   1.975   .     S
O198   Zn202   1.975   .     S
O199   Zn202   1.941   .     S
O200   Zn201   1.941   .     S
N203   H204    1.043   .     S
N203   H205    1.045   .     S
N206   H208    1.042   .     S
N206   H207    1.045   .     S
N211   H213    1.043   .     S
N211   H212    1.046   .     S
N214   H216    1.046   .     S
N214   H215    1.043   .     S
N217   H218    1.046   .     S
N217   H219    1.046   .     S
N220   H222    1.041   .     S
N220   H221    1.040   .     S
C223   O267    1.280   .     A
C223   C234    1.413   .     S
C223   O269    1.285   .     A
C224   O270    1.283   .     A
C224   O268    1.281   .     A
C224   C233    1.411   .     S
C225   H257    1.082   .     S
C225   C254    1.414   .     A
C225   C227    1.394   .     A
C226   H258    1.082   .     S
C226   C253    1.414   .     A
C226   C228    1.394   .     A
C227   N277    1.433   .     S
C227   C917    1.407   1_554 S
C228   N280    1.433   .     S
C228   C918    1.407   .     S
C229   H259    1.080   .     S
C229   C234    1.393   .     A
C229   C453    1.372   .     S
C230   H260    1.083   .     S
C230   C233    1.394   .     A
C231   H261    1.084   .     S
C231   C233    1.395   .     A
C232   H262    1.084   .     S
C232   C234    1.397   .     A
C232   C452    1.373   .     S
C235   H263    1.082   .     S
C235   N266    1.364   .     A
C235   C311    1.422   .     S
C236   H264    1.082   .     S
C236   N265    1.355   .     A
C236   C386    1.410   1_455 S
C237   N291    1.428   .     S
C237   N265    1.371   .     A
C237   C383    1.422   1_455 S
C238   N294    1.424   .     S
C238   N266    1.382   .     A
C238   C310    1.410   .     S
C239   O273    1.292   .     A
C239   O271    1.300   .     A
C239   C241    1.470   .     S
C240   O274    1.292   .     A
C240   C242    1.469   .     S
C240   O272    1.300   .     A
C241   C247    1.404   .     A
C241   C245    1.417   .     A
C242   C248    1.404   .     A
C242   C246    1.415   .     A
C243   H255    1.082   .     S
C243   C251    1.409   .     A
C243   C245    1.399   .     A
C244   H256    1.082   .     S
C244   C246    1.406   .     A
C244   C252    1.409   .     A
C245   N288    1.434   .     S
C246   N285    1.439   .     S
C247   I284    2.163   .     S
C247   C249    1.391   .     A
C248   C250    1.391   .     A
C248   I283    2.163   .     S
C249   C251    1.415   .     A
C249   C253    1.413   .     A
C250   C252    1.414   .     A
C250   C254    1.413   .     A
C251   C893    1.407   .     S
C252   C894    1.407   1_554 S
C253   C920    1.406   .     S
C254   C919    1.406   1_554 S
N265   Zn275   2.013   .     S
N266   Zn276   2.013   .     S
O267   Zn275   1.985   .     S
O268   Zn276   1.985   .     S
O269   Zn276   1.996   .     S
O270   Zn275   1.996   .     S
O271   Zn275   1.975   .     S
O272   Zn276   1.975   .     S
O273   Zn276   1.941   .     S
O274   Zn275   1.941   .     S
N277   H278    1.043   .     S
N277   H279    1.045   .     S
N280   H282    1.042   .     S
N280   H281    1.045   .     S
N285   H287    1.043   .     S
N285   H286    1.046   .     S
N288   H290    1.046   .     S
N288   H289    1.043   .     S
N291   H292    1.046   .     S
N291   H293    1.046   .     S
N294   H296    1.041   .     S
N294   H295    1.040   .     S
C297   O341    1.280   .     A
C297   C308    1.413   .     S
C297   O343    1.285   .     A
C298   O344    1.283   .     A
C298   O342    1.281   .     A
C298   C307    1.411   .     S
C299   H331    1.082   .     S
C299   C328    1.414   .     A
C299   C301    1.394   .     A
C300   H332    1.082   .     S
C300   C327    1.414   .     A
C300   C302    1.394   .     A
C301   N351    1.433   .     S
C301   C991    1.407   1_554 S
C302   N354    1.433   .     S
C302   C992    1.407   .     S
C303   H333    1.080   .     S
C303   C308    1.393   .     A
C303   C527    1.372   .     S
C304   H334    1.083   .     S
C304   C307    1.394   .     A
C305   H335    1.084   .     S
C305   C307    1.395   .     A
C306   H336    1.084   .     S
C306   C308    1.397   .     A
C306   C526    1.373   .     S
C309   H337    1.082   .     S
C309   N340    1.364   .     A
C309   C385    1.422   .     S
C310   H338    1.082   .     S
C310   N339    1.355   .     A
C311   N365    1.428   .     S
C311   N339    1.371   .     A
C312   N368    1.424   .     S
C312   N340    1.382   .     A
C312   C384    1.410   .     S
C313   O347    1.292   .     A
C313   O345    1.300   .     A
C313   C315    1.470   .     S
C314   O348    1.292   .     A
C314   C316    1.469   .     S
C314   O346    1.300   .     A
C315   C321    1.404   .     A
C315   C319    1.417   .     A
C316   C322    1.404   .     A
C316   C320    1.415   .     A
C317   H329    1.082   .     S
C317   C325    1.409   .     A
C317   C319    1.399   .     A
C318   H330    1.082   .     S
C318   C320    1.406   .     A
C318   C326    1.409   .     A
C319   N362    1.434   .     S
C320   N359    1.439   .     S
C321   I358    2.163   .     S
C321   C323    1.391   .     A
C322   C324    1.391   .     A
C322   I357    2.163   .     S
C323   C325    1.415   .     A
C323   C327    1.413   .     A
C324   C326    1.414   .     A
C324   C328    1.413   .     A
C325   C967    1.407   .     S
C326   C968    1.407   1_554 S
C327   C994    1.406   .     S
C328   C993    1.406   1_554 S
N339   Zn349   2.013   .     S
N340   Zn350   2.013   .     S
O341   Zn349   1.985   .     S
O342   Zn350   1.985   .     S
O343   Zn350   1.996   .     S
O344   Zn349   1.996   .     S
O345   Zn349   1.975   .     S
O346   Zn350   1.975   .     S
O347   Zn350   1.941   .     S
O348   Zn349   1.941   .     S
N351   H352    1.043   .     S
N351   H353    1.045   .     S
N354   H356    1.042   .     S
N354   H355    1.045   .     S
N359   H361    1.043   .     S
N359   H360    1.046   .     S
N362   H364    1.046   .     S
N362   H363    1.043   .     S
N365   H366    1.046   .     S
N365   H367    1.046   .     S
N368   H370    1.041   .     S
N368   H369    1.040   .     S
C371   O415    1.280   .     A
C371   C382    1.413   .     S
C371   O417    1.285   .     A
C372   O418    1.283   .     A
C372   O416    1.281   .     A
C372   C381    1.411   .     S
C373   H405    1.082   .     S
C373   C402    1.414   .     A
C373   C375    1.394   .     A
C374   H406    1.082   .     S
C374   C401    1.414   .     A
C374   C376    1.394   .     A
C375   N425    1.433   .     S
C375   C1065   1.407   1_554 S
C376   N428    1.433   .     S
C376   C1066   1.407   .     S
C377   H407    1.080   .     S
C377   C382    1.393   .     A
C377   C601    1.372   .     S
C378   H408    1.083   .     S
C378   C381    1.394   .     A
C379   H409    1.084   .     S
C379   C381    1.395   .     A
C380   H410    1.084   .     S
C380   C382    1.397   .     A
C380   C600    1.373   .     S
C383   H411    1.082   .     S
C383   N414    1.364   .     A
C383   C237    1.422   1_655 S
C384   H412    1.082   .     S
C384   N413    1.355   .     A
C385   N439    1.428   .     S
C385   N413    1.371   .     A
C386   N442    1.424   .     S
C386   N414    1.382   .     A
C386   C236    1.410   1_655 S
C387   O421    1.292   .     A
C387   O419    1.300   .     A
C387   C389    1.470   .     S
C388   O422    1.292   .     A
C388   C390    1.469   .     S
C388   O420    1.300   .     A
C389   C395    1.404   .     A
C389   C393    1.417   .     A
C390   C396    1.404   .     A
C390   C394    1.415   .     A
C391   H403    1.082   .     S
C391   C399    1.409   .     A
C391   C393    1.399   .     A
C392   H404    1.082   .     S
C392   C394    1.406   .     A
C392   C400    1.409   .     A
C393   N436    1.434   .     S
C394   N433    1.439   .     S
C395   I432    2.163   .     S
C395   C397    1.391   .     A
C396   C398    1.391   .     A
C396   I431    2.163   .     S
C397   C399    1.415   .     A
C397   C401    1.413   .     A
C398   C400    1.414   .     A
C398   C402    1.413   .     A
C399   C1041   1.407   .     S
C400   C1042   1.407   1_554 S
C401   C1068   1.406   .     S
C402   C1067   1.406   1_554 S
N413   Zn423   2.013   .     S
N414   Zn424   2.013   .     S
O415   Zn423   1.985   .     S
O416   Zn424   1.985   .     S
O417   Zn424   1.996   .     S
O418   Zn423   1.996   .     S
O419   Zn423   1.975   .     S
O420   Zn424   1.975   .     S
O421   Zn424   1.941   .     S
O422   Zn423   1.941   .     S
N425   H426    1.043   .     S
N425   H427    1.045   .     S
N428   H430    1.042   .     S
N428   H429    1.045   .     S
N433   H435    1.043   .     S
N433   H434    1.046   .     S
N436   H438    1.046   .     S
N436   H437    1.043   .     S
N439   H440    1.046   .     S
N439   H441    1.046   .     S
N442   H444    1.041   .     S
N442   H443    1.040   .     S
C445   O489    1.280   .     A
C445   C456    1.413   .     S
C445   O491    1.285   .     A
C446   O492    1.283   .     A
C446   O490    1.281   .     A
C446   C455    1.411   .     S
C447   H479    1.082   .     S
C447   C476    1.414   .     A
C447   C449    1.394   .     A
C448   H480    1.082   .     S
C448   C475    1.414   .     A
C448   C450    1.394   .     A
C449   N499    1.433   .     S
C449   C1139   1.407   1_554 S
C450   N502    1.433   .     S
C450   C1140   1.407   .     S
C451   H481    1.080   .     S
C451   C456    1.393   .     A
C451   C9      1.372   1_565 S
C452   H482    1.083   .     S
C452   C455    1.394   .     A
C453   H483    1.084   .     S
C453   C455    1.395   .     A
C454   H484    1.084   .     S
C454   C456    1.397   .     A
C454   C8      1.373   1_565 S
C457   H485    1.082   .     S
C457   N488    1.364   .     A
C457   C533    1.422   .     S
C458   H486    1.082   .     S
C458   N487    1.355   .     A
C458   C608    1.410   1_455 S
C459   N513    1.428   .     S
C459   N487    1.371   .     A
C459   C605    1.422   1_455 S
C460   N516    1.424   .     S
C460   N488    1.382   .     A
C460   C532    1.410   .     S
C461   O495    1.292   .     A
C461   O493    1.300   .     A
C461   C463    1.470   .     S
C462   O496    1.292   .     A
C462   C464    1.469   .     S
C462   O494    1.300   .     A
C463   C469    1.404   .     A
C463   C467    1.417   .     A
C464   C470    1.404   .     A
C464   C468    1.415   .     A
C465   H477    1.082   .     S
C465   C473    1.409   .     A
C465   C467    1.399   .     A
C466   H478    1.082   .     S
C466   C468    1.406   .     A
C466   C474    1.409   .     A
C467   N510    1.434   .     S
C468   N507    1.439   .     S
C469   I506    2.163   .     S
C469   C471    1.391   .     A
C470   C472    1.391   .     A
C470   I505    2.163   .     S
C471   C473    1.415   .     A
C471   C475    1.413   .     A
C472   C474    1.414   .     A
C472   C476    1.413   .     A
C473   C1115   1.407   .     S
C474   C1116   1.407   1_554 S
C475   C1142   1.406   .     S
C476   C1141   1.406   1_554 S
N487   Zn497   2.013   .     S
N488   Zn498   2.013   .     S
O489   Zn497   1.985   .     S
O490   Zn498   1.985   .     S
O491   Zn498   1.996   .     S
O492   Zn497   1.996   .     S
O493   Zn497   1.975   .     S
O494   Zn498   1.975   .     S
O495   Zn498   1.941   .     S
O496   Zn497   1.941   .     S
N499   H500    1.043   .     S
N499   H501    1.045   .     S
N502   H504    1.042   .     S
N502   H503    1.045   .     S
N507   H509    1.043   .     S
N507   H508    1.046   .     S
N510   H512    1.046   .     S
N510   H511    1.043   .     S
N513   H514    1.046   .     S
N513   H515    1.046   .     S
N516   H518    1.041   .     S
N516   H517    1.040   .     S
C519   O563    1.280   .     A
C519   C530    1.413   .     S
C519   O565    1.285   .     A
C520   O566    1.283   .     A
C520   O564    1.281   .     A
C520   C529    1.411   .     S
C521   H553    1.082   .     S
C521   C550    1.414   .     A
C521   C523    1.394   .     A
C522   H554    1.082   .     S
C522   C549    1.414   .     A
C522   C524    1.394   .     A
C523   N573    1.433   .     S
C523   C1213   1.407   1_554 S
C524   N576    1.433   .     S
C524   C1214   1.407   .     S
C525   H555    1.080   .     S
C525   C530    1.393   .     A
C525   C83     1.372   1_565 S
C526   H556    1.083   .     S
C526   C529    1.394   .     A
C527   H557    1.084   .     S
C527   C529    1.395   .     A
C528   H558    1.084   .     S
C528   C530    1.397   .     A
C528   C82     1.373   1_565 S
C531   H559    1.082   .     S
C531   N562    1.364   .     A
C531   C607    1.422   .     S
C532   H560    1.082   .     S
C532   N561    1.355   .     A
C533   N587    1.428   .     S
C533   N561    1.371   .     A
C534   N590    1.424   .     S
C534   N562    1.382   .     A
C534   C606    1.410   .     S
C535   O569    1.292   .     A
C535   O567    1.300   .     A
C535   C537    1.470   .     S
C536   O570    1.292   .     A
C536   C538    1.469   .     S
C536   O568    1.300   .     A
C537   C543    1.404   .     A
C537   C541    1.417   .     A
C538   C544    1.404   .     A
C538   C542    1.415   .     A
C539   H551    1.082   .     S
C539   C547    1.409   .     A
C539   C541    1.399   .     A
C540   H552    1.082   .     S
C540   C542    1.406   .     A
C540   C548    1.409   .     A
C541   N584    1.434   .     S
C542   N581    1.439   .     S
C543   I580    2.163   .     S
C543   C545    1.391   .     A
C544   C546    1.391   .     A
C544   I579    2.163   .     S
C545   C547    1.415   .     A
C545   C549    1.413   .     A
C546   C548    1.414   .     A
C546   C550    1.413   .     A
C547   C1189   1.407   .     S
C548   C1190   1.407   1_554 S
C549   C1216   1.406   .     S
C550   C1215   1.406   1_554 S
N561   Zn571   2.013   .     S
N562   Zn572   2.013   .     S
O563   Zn571   1.985   .     S
O564   Zn572   1.985   .     S
O565   Zn572   1.996   .     S
O566   Zn571   1.996   .     S
O567   Zn571   1.975   .     S
O568   Zn572   1.975   .     S
O569   Zn572   1.941   .     S
O570   Zn571   1.941   .     S
N573   H574    1.043   .     S
N573   H575    1.045   .     S
N576   H578    1.042   .     S
N576   H577    1.045   .     S
N581   H583    1.043   .     S
N581   H582    1.046   .     S
N584   H586    1.046   .     S
N584   H585    1.043   .     S
N587   H588    1.046   .     S
N587   H589    1.046   .     S
N590   H592    1.041   .     S
N590   H591    1.040   .     S
C593   O637    1.280   .     A
C593   C604    1.413   .     S
C593   O639    1.285   .     A
C594   O640    1.283   .     A
C594   O638    1.281   .     A
C594   C603    1.411   .     S
C595   H627    1.082   .     S
C595   C624    1.414   .     A
C595   C597    1.394   .     A
C596   H628    1.082   .     S
C596   C623    1.414   .     A
C596   C598    1.394   .     A
C597   N647    1.433   .     S
C597   C1287   1.407   1_554 S
C598   N650    1.433   .     S
C598   C1288   1.407   .     S
C599   H629    1.080   .     S
C599   C604    1.393   .     A
C599   C157    1.372   1_565 S
C600   H630    1.083   .     S
C600   C603    1.394   .     A
C601   H631    1.084   .     S
C601   C603    1.395   .     A
C602   H632    1.084   .     S
C602   C604    1.397   .     A
C602   C156    1.373   1_565 S
C605   H633    1.082   .     S
C605   N636    1.364   .     A
C605   C459    1.422   1_655 S
C606   H634    1.082   .     S
C606   N635    1.355   .     A
C607   N661    1.428   .     S
C607   N635    1.371   .     A
C608   N664    1.424   .     S
C608   N636    1.382   .     A
C608   C458    1.410   1_655 S
C609   O643    1.292   .     A
C609   O641    1.300   .     A
C609   C611    1.470   .     S
C610   O644    1.292   .     A
C610   C612    1.469   .     S
C610   O642    1.300   .     A
C611   C617    1.404   .     A
C611   C615    1.417   .     A
C612   C618    1.404   .     A
C612   C616    1.415   .     A
C613   H625    1.082   .     S
C613   C621    1.409   .     A
C613   C615    1.399   .     A
C614   H626    1.082   .     S
C614   C616    1.406   .     A
C614   C622    1.409   .     A
C615   N658    1.434   .     S
C616   N655    1.439   .     S
C617   I654    2.163   .     S
C617   C619    1.391   .     A
C618   C620    1.391   .     A
C618   I653    2.163   .     S
C619   C621    1.415   .     A
C619   C623    1.413   .     A
C620   C622    1.414   .     A
C620   C624    1.413   .     A
C621   C1263   1.407   .     S
C622   C1264   1.407   1_554 S
C623   C1290   1.406   .     S
C624   C1289   1.406   1_554 S
N635   Zn645   2.013   .     S
N636   Zn646   2.013   .     S
O637   Zn645   1.985   .     S
O638   Zn646   1.985   .     S
O639   Zn646   1.996   .     S
O640   Zn645   1.996   .     S
O641   Zn645   1.975   .     S
O642   Zn646   1.975   .     S
O643   Zn646   1.941   .     S
O644   Zn645   1.941   .     S
N647   H648    1.043   .     S
N647   H649    1.045   .     S
N650   H652    1.042   .     S
N650   H651    1.045   .     S
N655   H657    1.043   .     S
N655   H656    1.046   .     S
N658   H660    1.046   .     S
N658   H659    1.043   .     S
N661   H662    1.046   .     S
N661   H663    1.046   .     S
N664   H666    1.041   .     S
N664   H665    1.040   .     S
C667   O711    1.280   .     A
C667   C678    1.413   .     S
C667   O713    1.285   .     A
C668   O714    1.283   .     A
C668   O712    1.281   .     A
C668   C677    1.411   .     S
C669   H701    1.082   .     S
C669   C698    1.414   .     A
C669   C671    1.394   .     A
C670   H702    1.082   .     S
C670   C697    1.414   .     A
C670   C672    1.394   .     A
C671   N721    1.433   .     S
C672   N724    1.433   .     S
C672   C30     1.407   1_556 S
C673   H703    1.080   .     S
C673   C678    1.393   .     A
C673   C897    1.372   .     S
C674   H704    1.083   .     S
C674   C677    1.394   .     A
C674   C1120   1.373   1_545 S
C675   H705    1.084   .     S
C675   C677    1.395   .     A
C675   C1117   1.372   1_545 S
C676   H706    1.084   .     S
C676   C678    1.397   .     A
C676   C896    1.373   .     S
C679   H707    1.082   .     S
C679   N710    1.364   .     A
C679   C755    1.422   .     S
C680   H708    1.082   .     S
C680   N709    1.355   .     A
C680   C830    1.410   1_455 S
C681   N735    1.428   .     S
C681   N709    1.371   .     A
C681   C827    1.422   1_455 S
C682   N738    1.424   .     S
C682   N710    1.382   .     A
C682   C754    1.410   .     S
C683   O717    1.292   .     A
C683   O715    1.300   .     A
C683   C685    1.470   .     S
C684   O718    1.292   .     A
C684   C686    1.469   .     S
C684   O716    1.300   .     A
C685   C691    1.404   .     A
C685   C689    1.417   .     A
C686   C692    1.404   .     A
C686   C690    1.415   .     A
C687   H699    1.082   .     S
C687   C695    1.409   .     A
C687   C689    1.399   .     A
C688   H700    1.082   .     S
C688   C690    1.406   .     A
C688   C696    1.409   .     A
C689   N732    1.434   .     S
C690   N729    1.439   .     S
C691   I728    2.163   .     S
C691   C693    1.391   .     A
C692   C694    1.391   .     A
C692   I727    2.163   .     S
C693   C695    1.415   .     A
C693   C697    1.413   .     A
C694   C696    1.414   .     A
C694   C698    1.413   .     A
C695   C5      1.407   1_556 S
C697   C32     1.406   1_556 S
N709   Zn719   2.013   .     S
N710   Zn720   2.013   .     S
O711   Zn719   1.985   .     S
O712   Zn720   1.985   .     S
O713   Zn720   1.996   .     S
O714   Zn719   1.996   .     S
O715   Zn719   1.975   .     S
O716   Zn720   1.975   .     S
O717   Zn720   1.941   .     S
O718   Zn719   1.941   .     S
N721   H722    1.043   .     S
N721   H723    1.045   .     S
N724   H726    1.042   .     S
N724   H725    1.045   .     S
N729   H731    1.043   .     S
N729   H730    1.046   .     S
N732   H734    1.046   .     S
N732   H733    1.043   .     S
N735   H736    1.046   .     S
N735   H737    1.046   .     S
N738   H740    1.041   .     S
N738   H739    1.040   .     S
C741   O785    1.280   .     A
C741   C752    1.413   .     S
C741   O787    1.285   .     A
C742   O788    1.283   .     A
C742   O786    1.281   .     A
C742   C751    1.411   .     S
C743   H775    1.082   .     S
C743   C772    1.414   .     A
C743   C745    1.394   .     A
C744   H776    1.082   .     S
C744   C771    1.414   .     A
C744   C746    1.394   .     A
C745   N795    1.433   .     S
C746   N798    1.433   .     S
C746   C104    1.407   1_556 S
C747   H777    1.080   .     S
C747   C752    1.393   .     A
C747   C971    1.372   .     S
C748   H778    1.083   .     S
C748   C751    1.394   .     A
C748   C1194   1.373   1_545 S
C749   H779    1.084   .     S
C749   C751    1.395   .     A
C749   C1191   1.372   1_545 S
C750   H780    1.084   .     S
C750   C752    1.397   .     A
C750   C970    1.373   .     S
C753   H781    1.082   .     S
C753   N784    1.364   .     A
C753   C829    1.422   .     S
C754   H782    1.082   .     S
C754   N783    1.355   .     A
C755   N809    1.428   .     S
C755   N783    1.371   .     A
C756   N812    1.424   .     S
C756   N784    1.382   .     A
C756   C828    1.410   .     S
C757   O791    1.292   .     A
C757   O789    1.300   .     A
C757   C759    1.470   .     S
C758   O792    1.292   .     A
C758   C760    1.469   .     S
C758   O790    1.300   .     A
C759   C765    1.404   .     A
C759   C763    1.417   .     A
C760   C766    1.404   .     A
C760   C764    1.415   .     A
C761   H773    1.082   .     S
C761   C769    1.409   .     A
C761   C763    1.399   .     A
C762   H774    1.082   .     S
C762   C764    1.406   .     A
C762   C770    1.409   .     A
C763   N806    1.434   .     S
C764   N803    1.439   .     S
C765   I802    2.163   .     S
C765   C767    1.391   .     A
C766   C768    1.391   .     A
C766   I801    2.163   .     S
C767   C769    1.415   .     A
C767   C771    1.413   .     A
C768   C770    1.414   .     A
C768   C772    1.413   .     A
C769   C79     1.407   1_556 S
C771   C106    1.406   1_556 S
N783   Zn793   2.013   .     S
N784   Zn794   2.013   .     S
O785   Zn793   1.985   .     S
O786   Zn794   1.985   .     S
O787   Zn794   1.996   .     S
O788   Zn793   1.996   .     S
O789   Zn793   1.975   .     S
O790   Zn794   1.975   .     S
O791   Zn794   1.941   .     S
O792   Zn793   1.941   .     S
N795   H796    1.043   .     S
N795   H797    1.045   .     S
N798   H800    1.042   .     S
N798   H799    1.045   .     S
N803   H805    1.043   .     S
N803   H804    1.046   .     S
N806   H808    1.046   .     S
N806   H807    1.043   .     S
N809   H810    1.046   .     S
N809   H811    1.046   .     S
N812   H814    1.041   .     S
N812   H813    1.040   .     S
C815   O859    1.280   .     A
C815   C826    1.413   .     S
C815   O861    1.285   .     A
C816   O862    1.283   .     A
C816   O860    1.281   .     A
C816   C825    1.411   .     S
C817   H849    1.082   .     S
C817   C846    1.414   .     A
C817   C819    1.394   .     A
C818   H850    1.082   .     S
C818   C845    1.414   .     A
C818   C820    1.394   .     A
C819   N869    1.433   .     S
C820   N872    1.433   .     S
C820   C178    1.407   1_556 S
C821   H851    1.080   .     S
C821   C826    1.393   .     A
C821   C1045   1.372   .     S
C822   H852    1.083   .     S
C822   C825    1.394   .     A
C822   C1268   1.373   1_545 S
C823   H853    1.084   .     S
C823   C825    1.395   .     A
C823   C1265   1.372   1_545 S
C824   H854    1.084   .     S
C824   C826    1.397   .     A
C824   C1044   1.373   .     S
C827   H855    1.082   .     S
C827   N858    1.364   .     A
C827   C681    1.422   1_655 S
C828   H856    1.082   .     S
C828   N857    1.355   .     A
C829   N883    1.428   .     S
C829   N857    1.371   .     A
C830   N886    1.424   .     S
C830   N858    1.382   .     A
C830   C680    1.410   1_655 S
C831   O865    1.292   .     A
C831   O863    1.300   .     A
C831   C833    1.470   .     S
C832   O866    1.292   .     A
C832   C834    1.469   .     S
C832   O864    1.300   .     A
C833   C839    1.404   .     A
C833   C837    1.417   .     A
C834   C840    1.404   .     A
C834   C838    1.415   .     A
C835   H847    1.082   .     S
C835   C843    1.409   .     A
C835   C837    1.399   .     A
C836   H848    1.082   .     S
C836   C838    1.406   .     A
C836   C844    1.409   .     A
C837   N880    1.434   .     S
C838   N877    1.439   .     S
C839   I876    2.163   .     S
C839   C841    1.391   .     A
C840   C842    1.391   .     A
C840   I875    2.163   .     S
C841   C843    1.415   .     A
C841   C845    1.413   .     A
C842   C844    1.414   .     A
C842   C846    1.413   .     A
C843   C153    1.407   1_556 S
C845   C180    1.406   1_556 S
N857   Zn867   2.013   .     S
N858   Zn868   2.013   .     S
O859   Zn867   1.985   .     S
O860   Zn868   1.985   .     S
O861   Zn868   1.996   .     S
O862   Zn867   1.996   .     S
O863   Zn867   1.975   .     S
O864   Zn868   1.975   .     S
O865   Zn868   1.941   .     S
O866   Zn867   1.941   .     S
N869   H870    1.043   .     S
N869   H871    1.045   .     S
N872   H874    1.042   .     S
N872   H873    1.045   .     S
N877   H879    1.043   .     S
N877   H878    1.046   .     S
N880   H882    1.046   .     S
N880   H881    1.043   .     S
N883   H884    1.046   .     S
N883   H885    1.046   .     S
N886   H888    1.041   .     S
N886   H887    1.040   .     S
C889   O933    1.280   .     A
C889   C900    1.413   .     S
C889   O935    1.285   .     A
C890   O936    1.283   .     A
C890   O934    1.281   .     A
C890   C899    1.411   .     S
C891   H923    1.082   .     S
C891   C920    1.414   .     A
C891   C893    1.394   .     A
C892   H924    1.082   .     S
C892   C919    1.414   .     A
C892   C894    1.394   .     A
C893   N943    1.433   .     S
C894   N946    1.433   .     S
C894   C252    1.407   1_556 S
C895   H925    1.080   .     S
C895   C900    1.393   .     A
C895   C1119   1.372   .     S
C896   H926    1.083   .     S
C896   C899    1.394   .     A
C897   H927    1.084   .     S
C897   C899    1.395   .     A
C898   H928    1.084   .     S
C898   C900    1.397   .     A
C898   C1118   1.373   .     S
C901   H929    1.082   .     S
C901   N932    1.364   .     A
C901   C977    1.422   .     S
C902   H930    1.082   .     S
C902   N931    1.355   .     A
C902   C1052   1.410   1_455 S
C903   N957    1.428   .     S
C903   N931    1.371   .     A
C903   C1049   1.422   1_455 S
C904   N960    1.424   .     S
C904   N932    1.382   .     A
C904   C976    1.410   .     S
C905   O939    1.292   .     A
C905   O937    1.300   .     A
C905   C907    1.470   .     S
C906   O940    1.292   .     A
C906   C908    1.469   .     S
C906   O938    1.300   .     A
C907   C913    1.404   .     A
C907   C911    1.417   .     A
C908   C914    1.404   .     A
C908   C912    1.415   .     A
C909   H921    1.082   .     S
C909   C917    1.409   .     A
C909   C911    1.399   .     A
C910   H922    1.082   .     S
C910   C912    1.406   .     A
C910   C918    1.409   .     A
C911   N954    1.434   .     S
C912   N951    1.439   .     S
C913   I950    2.163   .     S
C913   C915    1.391   .     A
C914   C916    1.391   .     A
C914   I949    2.163   .     S
C915   C917    1.415   .     A
C915   C919    1.413   .     A
C916   C918    1.414   .     A
C916   C920    1.413   .     A
C917   C227    1.407   1_556 S
C919   C254    1.406   1_556 S
N931   Zn941   2.013   .     S
N932   Zn942   2.013   .     S
O933   Zn941   1.985   .     S
O934   Zn942   1.985   .     S
O935   Zn942   1.996   .     S
O936   Zn941   1.996   .     S
O937   Zn941   1.975   .     S
O938   Zn942   1.975   .     S
O939   Zn942   1.941   .     S
O940   Zn941   1.941   .     S
N943   H944    1.043   .     S
N943   H945    1.045   .     S
N946   H948    1.042   .     S
N946   H947    1.045   .     S
N951   H953    1.043   .     S
N951   H952    1.046   .     S
N954   H956    1.046   .     S
N954   H955    1.043   .     S
N957   H958    1.046   .     S
N957   H959    1.046   .     S
N960   H962    1.041   .     S
N960   H961    1.040   .     S
C963   O1007   1.280   .     A
C963   C974    1.413   .     S
C963   O1009   1.285   .     A
C964   O1010   1.283   .     A
C964   O1008   1.281   .     A
C964   C973    1.411   .     S
C965   H997    1.082   .     S
C965   C994    1.414   .     A
C965   C967    1.394   .     A
C966   H998    1.082   .     S
C966   C993    1.414   .     A
C966   C968    1.394   .     A
C967   N1017   1.433   .     S
C968   N1020   1.433   .     S
C968   C326    1.407   1_556 S
C969   H999    1.080   .     S
C969   C974    1.393   .     A
C969   C1193   1.372   .     S
C970   H1000   1.083   .     S
C970   C973    1.394   .     A
C971   H1001   1.084   .     S
C971   C973    1.395   .     A
C972   H1002   1.084   .     S
C972   C974    1.397   .     A
C972   C1192   1.373   .     S
C975   H1003   1.082   .     S
C975   N1006   1.364   .     A
C975   C1051   1.422   .     S
C976   H1004   1.082   .     S
C976   N1005   1.355   .     A
C977   N1031   1.428   .     S
C977   N1005   1.371   .     A
C978   N1034   1.424   .     S
C978   N1006   1.382   .     A
C978   C1050   1.410   .     S
C979   O1013   1.292   .     A
C979   O1011   1.300   .     A
C979   C981    1.470   .     S
C980   O1014   1.292   .     A
C980   C982    1.469   .     S
C980   O1012   1.300   .     A
C981   C987    1.404   .     A
C981   C985    1.417   .     A
C982   C988    1.404   .     A
C982   C986    1.415   .     A
C983   H995    1.082   .     S
C983   C991    1.409   .     A
C983   C985    1.399   .     A
C984   H996    1.082   .     S
C984   C986    1.406   .     A
C984   C992    1.409   .     A
C985   N1028   1.434   .     S
C986   N1025   1.439   .     S
C987   I1024   2.163   .     S
C987   C989    1.391   .     A
C988   C990    1.391   .     A
C988   I1023   2.163   .     S
C989   C991    1.415   .     A
C989   C993    1.413   .     A
C990   C992    1.414   .     A
C990   C994    1.413   .     A
C991   C301    1.407   1_556 S
C993   C328    1.406   1_556 S
N1005  Zn1015  2.013   .     S
N1006  Zn1016  2.013   .     S
O1007  Zn1015  1.985   .     S
O1008  Zn1016  1.985   .     S
O1009  Zn1016  1.996   .     S
O1010  Zn1015  1.996   .     S
O1011  Zn1015  1.975   .     S
O1012  Zn1016  1.975   .     S
O1013  Zn1016  1.941   .     S
O1014  Zn1015  1.941   .     S
N1017  H1018   1.043   .     S
N1017  H1019   1.045   .     S
N1020  H1022   1.042   .     S
N1020  H1021   1.045   .     S
N1025  H1027   1.043   .     S
N1025  H1026   1.046   .     S
N1028  H1030   1.046   .     S
N1028  H1029   1.043   .     S
N1031  H1032   1.046   .     S
N1031  H1033   1.046   .     S
N1034  H1036   1.041   .     S
N1034  H1035   1.040   .     S
C1037  O1081   1.280   .     A
C1037  C1048   1.413   .     S
C1037  O1083   1.285   .     A
C1038  O1084   1.283   .     A
C1038  O1082   1.281   .     A
C1038  C1047   1.411   .     S
C1039  H1071   1.082   .     S
C1039  C1068   1.414   .     A
C1039  C1041   1.394   .     A
C1040  H1072   1.082   .     S
C1040  C1067   1.414   .     A
C1040  C1042   1.394   .     A
C1041  N1091   1.433   .     S
C1042  N1094   1.433   .     S
C1042  C400    1.407   1_556 S
C1043  H1073   1.080   .     S
C1043  C1048   1.393   .     A
C1043  C1267   1.372   .     S
C1044  H1074   1.083   .     S
C1044  C1047   1.394   .     A
C1045  H1075   1.084   .     S
C1045  C1047   1.395   .     A
C1046  H1076   1.084   .     S
C1046  C1048   1.397   .     A
C1046  C1266   1.373   .     S
C1049  H1077   1.082   .     S
C1049  N1080   1.364   .     A
C1049  C903    1.422   1_655 S
C1050  H1078   1.082   .     S
C1050  N1079   1.355   .     A
C1051  N1105   1.428   .     S
C1051  N1079   1.371   .     A
C1052  N1108   1.424   .     S
C1052  N1080   1.382   .     A
C1052  C902    1.410   1_655 S
C1053  O1087   1.292   .     A
C1053  O1085   1.300   .     A
C1053  C1055   1.470   .     S
C1054  O1088   1.292   .     A
C1054  C1056   1.469   .     S
C1054  O1086   1.300   .     A
C1055  C1061   1.404   .     A
C1055  C1059   1.417   .     A
C1056  C1062   1.404   .     A
C1056  C1060   1.415   .     A
C1057  H1069   1.082   .     S
C1057  C1065   1.409   .     A
C1057  C1059   1.399   .     A
C1058  H1070   1.082   .     S
C1058  C1060   1.406   .     A
C1058  C1066   1.409   .     A
C1059  N1102   1.434   .     S
C1060  N1099   1.439   .     S
C1061  I1098   2.163   .     S
C1061  C1063   1.391   .     A
C1062  C1064   1.391   .     A
C1062  I1097   2.163   .     S
C1063  C1065   1.415   .     A
C1063  C1067   1.413   .     A
C1064  C1066   1.414   .     A
C1064  C1068   1.413   .     A
C1065  C375    1.407   1_556 S
C1067  C402    1.406   1_556 S
N1079  Zn1089  2.013   .     S
N1080  Zn1090  2.013   .     S
O1081  Zn1089  1.985   .     S
O1082  Zn1090  1.985   .     S
O1083  Zn1090  1.996   .     S
O1084  Zn1089  1.996   .     S
O1085  Zn1089  1.975   .     S
O1086  Zn1090  1.975   .     S
O1087  Zn1090  1.941   .     S
O1088  Zn1089  1.941   .     S
N1091  H1092   1.043   .     S
N1091  H1093   1.045   .     S
N1094  H1096   1.042   .     S
N1094  H1095   1.045   .     S
N1099  H1101   1.043   .     S
N1099  H1100   1.046   .     S
N1102  H1104   1.046   .     S
N1102  H1103   1.043   .     S
N1105  H1106   1.046   .     S
N1105  H1107   1.046   .     S
N1108  H1110   1.041   .     S
N1108  H1109   1.040   .     S
C1111  O1155   1.280   .     A
C1111  C1122   1.413   .     S
C1111  O1157   1.285   .     A
C1112  O1158   1.283   .     A
C1112  O1156   1.281   .     A
C1112  C1121   1.411   .     S
C1113  H1145   1.082   .     S
C1113  C1142   1.414   .     A
C1113  C1115   1.394   .     A
C1114  H1146   1.082   .     S
C1114  C1141   1.414   .     A
C1114  C1116   1.394   .     A
C1115  N1165   1.433   .     S
C1116  N1168   1.433   .     S
C1116  C474    1.407   1_556 S
C1117  H1147   1.080   .     S
C1117  C1122   1.393   .     A
C1117  C675    1.372   1_565 S
C1118  H1148   1.083   .     S
C1118  C1121   1.394   .     A
C1119  H1149   1.084   .     S
C1119  C1121   1.395   .     A
C1120  H1150   1.084   .     S
C1120  C1122   1.397   .     A
C1120  C674    1.373   1_565 S
C1123  H1151   1.082   .     S
C1123  N1154   1.364   .     A
C1123  C1199   1.422   .     S
C1124  H1152   1.082   .     S
C1124  N1153   1.355   .     A
C1124  C1274   1.410   1_455 S
C1125  N1179   1.428   .     S
C1125  N1153   1.371   .     A
C1125  C1271   1.422   1_455 S
C1126  N1182   1.424   .     S
C1126  N1154   1.382   .     A
C1126  C1198   1.410   .     S
C1127  O1161   1.292   .     A
C1127  O1159   1.300   .     A
C1127  C1129   1.470   .     S
C1128  O1162   1.292   .     A
C1128  C1130   1.469   .     S
C1128  O1160   1.300   .     A
C1129  C1135   1.404   .     A
C1129  C1133   1.417   .     A
C1130  C1136   1.404   .     A
C1130  C1134   1.415   .     A
C1131  H1143   1.082   .     S
C1131  C1139   1.409   .     A
C1131  C1133   1.399   .     A
C1132  H1144   1.082   .     S
C1132  C1134   1.406   .     A
C1132  C1140   1.409   .     A
C1133  N1176   1.434   .     S
C1134  N1173   1.439   .     S
C1135  I1172   2.163   .     S
C1135  C1137   1.391   .     A
C1136  C1138   1.391   .     A
C1136  I1171   2.163   .     S
C1137  C1139   1.415   .     A
C1137  C1141   1.413   .     A
C1138  C1140   1.414   .     A
C1138  C1142   1.413   .     A
C1139  C449    1.407   1_556 S
C1141  C476    1.406   1_556 S
N1153  Zn1163  2.013   .     S
N1154  Zn1164  2.013   .     S
O1155  Zn1163  1.985   .     S
O1156  Zn1164  1.985   .     S
O1157  Zn1164  1.996   .     S
O1158  Zn1163  1.996   .     S
O1159  Zn1163  1.975   .     S
O1160  Zn1164  1.975   .     S
O1161  Zn1164  1.941   .     S
O1162  Zn1163  1.941   .     S
N1165  H1166   1.043   .     S
N1165  H1167   1.045   .     S
N1168  H1170   1.042   .     S
N1168  H1169   1.045   .     S
N1173  H1175   1.043   .     S
N1173  H1174   1.046   .     S
N1176  H1178   1.046   .     S
N1176  H1177   1.043   .     S
N1179  H1180   1.046   .     S
N1179  H1181   1.046   .     S
N1182  H1184   1.041   .     S
N1182  H1183   1.040   .     S
C1185  O1229   1.280   .     A
C1185  C1196   1.413   .     S
C1185  O1231   1.285   .     A
C1186  O1232   1.283   .     A
C1186  O1230   1.281   .     A
C1186  C1195   1.411   .     S
C1187  H1219   1.082   .     S
C1187  C1216   1.414   .     A
C1187  C1189   1.394   .     A
C1188  H1220   1.082   .     S
C1188  C1215   1.414   .     A
C1188  C1190   1.394   .     A
C1189  N1239   1.433   .     S
C1190  N1242   1.433   .     S
C1190  C548    1.407   1_556 S
C1191  H1221   1.080   .     S
C1191  C1196   1.393   .     A
C1191  C749    1.372   1_565 S
C1192  H1222   1.083   .     S
C1192  C1195   1.394   .     A
C1193  H1223   1.084   .     S
C1193  C1195   1.395   .     A
C1194  H1224   1.084   .     S
C1194  C1196   1.397   .     A
C1194  C748    1.373   1_565 S
C1197  H1225   1.082   .     S
C1197  N1228   1.364   .     A
C1197  C1273   1.422   .     S
C1198  H1226   1.082   .     S
C1198  N1227   1.355   .     A
C1199  N1253   1.428   .     S
C1199  N1227   1.371   .     A
C1200  N1256   1.424   .     S
C1200  N1228   1.382   .     A
C1200  C1272   1.410   .     S
C1201  O1235   1.292   .     A
C1201  O1233   1.300   .     A
C1201  C1203   1.470   .     S
C1202  O1236   1.292   .     A
C1202  C1204   1.469   .     S
C1202  O1234   1.300   .     A
C1203  C1209   1.404   .     A
C1203  C1207   1.417   .     A
C1204  C1210   1.404   .     A
C1204  C1208   1.415   .     A
C1205  H1217   1.082   .     S
C1205  C1213   1.409   .     A
C1205  C1207   1.399   .     A
C1206  H1218   1.082   .     S
C1206  C1208   1.406   .     A
C1206  C1214   1.409   .     A
C1207  N1250   1.434   .     S
C1208  N1247   1.439   .     S
C1209  I1246   2.163   .     S
C1209  C1211   1.391   .     A
C1210  C1212   1.391   .     A
C1210  I1245   2.163   .     S
C1211  C1213   1.415   .     A
C1211  C1215   1.413   .     A
C1212  C1214   1.414   .     A
C1212  C1216   1.413   .     A
C1213  C523    1.407   1_556 S
C1215  C550    1.406   1_556 S
N1227  Zn1237  2.013   .     S
N1228  Zn1238  2.013   .     S
O1229  Zn1237  1.985   .     S
O1230  Zn1238  1.985   .     S
O1231  Zn1238  1.996   .     S
O1232  Zn1237  1.996   .     S
O1233  Zn1237  1.975   .     S
O1234  Zn1238  1.975   .     S
O1235  Zn1238  1.941   .     S
O1236  Zn1237  1.941   .     S
N1239  H1240   1.043   .     S
N1239  H1241   1.045   .     S
N1242  H1244   1.042   .     S
N1242  H1243   1.045   .     S
N1247  H1249   1.043   .     S
N1247  H1248   1.046   .     S
N1250  H1252   1.046   .     S
N1250  H1251   1.043   .     S
N1253  H1254   1.046   .     S
N1253  H1255   1.046   .     S
N1256  H1258   1.041   .     S
N1256  H1257   1.040   .     S
C1259  O1303   1.280   .     A
C1259  C1270   1.413   .     S
C1259  O1305   1.285   .     A
C1260  O1306   1.283   .     A
C1260  O1304   1.281   .     A
C1260  C1269   1.411   .     S
C1261  H1293   1.082   .     S
C1261  C1290   1.414   .     A
C1261  C1263   1.394   .     A
C1262  H1294   1.082   .     S
C1262  C1289   1.414   .     A
C1262  C1264   1.394   .     A
C1263  N1313   1.433   .     S
C1264  N1316   1.433   .     S
C1264  C622    1.407   1_556 S
C1265  H1295   1.080   .     S
C1265  C1270   1.393   .     A
C1265  C823    1.372   1_565 S
C1266  H1296   1.083   .     S
C1266  C1269   1.394   .     A
C1267  H1297   1.084   .     S
C1267  C1269   1.395   .     A
C1268  H1298   1.084   .     S
C1268  C1270   1.397   .     A
C1268  C822    1.373   1_565 S
C1271  H1299   1.082   .     S
C1271  N1302   1.364   .     A
C1271  C1125   1.422   1_655 S
C1272  H1300   1.082   .     S
C1272  N1301   1.355   .     A
C1273  N1327   1.428   .     S
C1273  N1301   1.371   .     A
C1274  N1330   1.424   .     S
C1274  N1302   1.382   .     A
C1274  C1124   1.410   1_655 S
C1275  O1309   1.292   .     A
C1275  O1307   1.300   .     A
C1275  C1277   1.470   .     S
C1276  O1310   1.292   .     A
C1276  C1278   1.469   .     S
C1276  O1308   1.300   .     A
C1277  C1283   1.404   .     A
C1277  C1281   1.417   .     A
C1278  C1284   1.404   .     A
C1278  C1282   1.415   .     A
C1279  H1291   1.082   .     S
C1279  C1287   1.409   .     A
C1279  C1281   1.399   .     A
C1280  H1292   1.082   .     S
C1280  C1282   1.406   .     A
C1280  C1288   1.409   .     A
C1281  N1324   1.434   .     S
C1282  N1321   1.439   .     S
C1283  I1320   2.163   .     S
C1283  C1285   1.391   .     A
C1284  C1286   1.391   .     A
C1284  I1319   2.163   .     S
C1285  C1287   1.415   .     A
C1285  C1289   1.413   .     A
C1286  C1288   1.414   .     A
C1286  C1290   1.413   .     A
C1287  C597    1.407   1_556 S
C1289  C624    1.406   1_556 S
N1301  Zn1311  2.013   .     S
N1302  Zn1312  2.013   .     S
O1303  Zn1311  1.985   .     S
O1304  Zn1312  1.985   .     S
O1305  Zn1312  1.996   .     S
O1306  Zn1311  1.996   .     S
O1307  Zn1311  1.975   .     S
O1308  Zn1312  1.975   .     S
O1309  Zn1312  1.941   .     S
O1310  Zn1311  1.941   .     S
N1313  H1314   1.043   .     S
N1313  H1315   1.045   .     S
N1316  H1318   1.042   .     S
N1316  H1317   1.045   .     S
N1321  H1323   1.043   .     S
N1321  H1322   1.046   .     S
N1324  H1326   1.046   .     S
N1324  H1325   1.043   .     S
N1327  H1328   1.046   .     S
N1327  H1329   1.046   .     S
N1330  H1332   1.041   .     S
N1330  H1331   1.040   .     S
