data_str_m2_o10_o18_pcu_sym.152
_audit_creation_date              2020-01-03
_audit_creation_method            'Materials Studio'
_symmetry_space_group_name_H-M    'P1'
_symmetry_Int_Tables_number       1
_symmetry_cell_setting            triclinic
loop_
_symmetry_equiv_pos_as_xyz
  x,y,z
_cell_length_a                    22.4409
_cell_length_b                    26.0617
_cell_length_c                    31.2090
_cell_angle_alpha                 94.8816
_cell_angle_beta                  75.4264
_cell_angle_gamma                 103.5127
loop_
_atom_site_label
_atom_site_type_symbol
_atom_site_fract_x
_atom_site_fract_y
_atom_site_fract_z
_atom_site_U_iso_or_equiv
_atom_site_adp_type
_atom_site_occupancy
C1     C     0.18177   0.26673   0.25136   0.00000  Uiso   1.00
C2     C     0.15155   0.06660   0.24868   0.00000  Uiso   1.00
C3     C     0.10913   0.09606   0.03212   0.00000  Uiso   1.00
C4     C     0.24855   0.17075   0.45284   0.00000  Uiso   1.00
C5     C     0.06316   0.08350   0.00699   0.00000  Uiso   1.00
C6     C     0.29096   0.18944   0.47950   0.00000  Uiso   1.00
C7     C     0.19015   0.32283   0.25198   0.00000  Uiso   1.00
C8     C     0.14314   0.01051   0.24812   0.00000  Uiso   1.00
C9     C     0.12816   0.16168   0.33325   0.00000  Uiso   1.00
C10    C     0.20514   0.17035   0.16660   0.00000  Uiso   1.00
C11    C     0.10476   0.14849   0.38024   0.00000  Uiso   1.00
C12    C     0.22919   0.17241   0.11815   0.00000  Uiso   1.00
C13    C     0.03163   0.09209   0.43781   0.00000  Uiso   1.00
C14    C     0.31599   0.19384   0.05296   0.00000  Uiso   1.00
C15    C     0.04785   0.11249   0.39506   0.00000  Uiso   1.00
C16    C     0.29364   0.18910   0.09908   0.00000  Uiso   1.00
C17    C     0.14549   0.16452   0.40820   0.00000  Uiso   1.00
C18    C     0.18730   0.15656   0.09079   0.00000  Uiso   1.00
C19    C     0.13593   0.13887   0.44797   0.00000  Uiso   1.00
C20    C     0.20873   0.15567   0.04442   0.00000  Uiso   1.00
C21    C     0.07622   0.10486   0.46465   0.00000  Uiso   1.00
C22    C     0.27244   0.18050   0.02550   0.00000  Uiso   1.00
C23    C     0.18379   0.14815   0.47204   0.00000  Uiso   1.00
C24    C     0.16673   0.13367   0.01682   0.00000  Uiso   1.00
Cu25   Cu    0.10737   0.16108   0.24517   0.00000  Uiso   1.00
Cu26   Cu    0.22596   0.17225   0.25483   0.00000  Uiso   1.00
H27    H     0.13737   0.14548   0.10603   0.00000  Uiso   1.00
H28    H     0.18592   0.19638   0.39753   0.00000  Uiso   1.00
H29    H     0.32661   0.19968   0.12014   0.00000  Uiso   1.00
H30    H     0.01658   0.09932   0.37302   0.00000  Uiso   1.00
H31    H     0.23534   0.01358   0.25558   0.00000  Uiso   1.00
H32    H     0.09795   0.31976   0.24453   0.00000  Uiso   1.00
N33    N     0.31506   0.18068   0.26212   0.00000  Uiso   1.00
N34    N     0.01827   0.15265   0.23788   0.00000  Uiso   1.00
O35    O     0.12815   0.23809   0.24686   0.00000  Uiso   1.00
O36    O     0.20518   0.09524   0.25314   0.00000  Uiso   1.00
O37    O     0.22829   0.24753   0.25503   0.00000  Uiso   1.00
O38    O     0.10504   0.08580   0.24497   0.00000  Uiso   1.00
O39    O     0.08851   0.15930   0.30855   0.00000  Uiso   1.00
O40    O     0.24482   0.17403   0.19145   0.00000  Uiso   1.00
O41    O     0.18866   0.16874   0.31671   0.00000  Uiso   1.00
O42    O     0.14468   0.16460   0.18329   0.00000  Uiso   1.00
O43    O     0.00584   0.04915   0.02278   0.00000  Uiso   1.00
H44    H     0.33296   0.04312   0.05465   0.00000  Uiso   1.00
O45    O     0.01703   0.21682   0.45908   0.00000  Uiso   1.00
H46    H     0.02602   0.25001   0.47664   0.00000  Uiso   1.00
O47    O     0.30696   0.05849   0.45291   0.00000  Uiso   1.00
H48    H     0.28170   0.05489   0.43049   0.00000  Uiso   1.00
O49    O     0.04669   0.20918   0.03444   0.00000  Uiso   1.00
H50    H     0.07003   0.21553   0.05815   0.00000  Uiso   1.00
O51    O     0.09939   0.06606   0.06870   0.00000  Uiso   1.00
H52    H     0.14071   0.06006   0.07050   0.00000  Uiso   1.00
O53    O     0.27391   0.17156   0.40774   0.00000  Uiso   1.00
H54    H     0.25232   0.13877   0.39448   0.00000  Uiso   1.00
O55    O     0.00483   0.21122   0.29350   0.00000  Uiso   1.00
H56    H     0.30393   0.22883   0.30927   0.00000  Uiso   1.00
O57    O     0.32847   0.12206   0.20654   0.00000  Uiso   1.00
H58    H     0.02935   0.10440   0.19080   0.00000  Uiso   1.00
C59    C     0.51510   0.26673   0.25136   0.00000  Uiso   1.00
C60    C     0.48488   0.06660   0.24868   0.00000  Uiso   1.00
C61    C     0.44246   0.09606   0.03212   0.00000  Uiso   1.00
C62    C     0.58188   0.17075   0.45284   0.00000  Uiso   1.00
C63    C     0.39650   0.08350   0.00699   0.00000  Uiso   1.00
C64    C     0.62430   0.18944   0.47950   0.00000  Uiso   1.00
C65    C     0.52348   0.32283   0.25198   0.00000  Uiso   1.00
C66    C     0.47647   0.01051   0.24812   0.00000  Uiso   1.00
C67    C     0.46149   0.16168   0.33325   0.00000  Uiso   1.00
C68    C     0.53848   0.17035   0.16660   0.00000  Uiso   1.00
C69    C     0.43809   0.14849   0.38024   0.00000  Uiso   1.00
C70    C     0.56252   0.17241   0.11815   0.00000  Uiso   1.00
C71    C     0.36496   0.09209   0.43781   0.00000  Uiso   1.00
C72    C     0.64932   0.19384   0.05296   0.00000  Uiso   1.00
C73    C     0.38118   0.11249   0.39506   0.00000  Uiso   1.00
C74    C     0.62697   0.18910   0.09908   0.00000  Uiso   1.00
C75    C     0.47882   0.16452   0.40820   0.00000  Uiso   1.00
C76    C     0.52063   0.15656   0.09079   0.00000  Uiso   1.00
C77    C     0.46927   0.13887   0.44797   0.00000  Uiso   1.00
C78    C     0.54206   0.15567   0.04442   0.00000  Uiso   1.00
C79    C     0.40955   0.10486   0.46465   0.00000  Uiso   1.00
C80    C     0.60578   0.18050   0.02550   0.00000  Uiso   1.00
C81    C     0.51712   0.14815   0.47204   0.00000  Uiso   1.00
C82    C     0.50006   0.13367   0.01682   0.00000  Uiso   1.00
Cu83   Cu    0.44071   0.16108   0.24517   0.00000  Uiso   1.00
Cu84   Cu    0.55929   0.17225   0.25483   0.00000  Uiso   1.00
H85    H     0.47070   0.14548   0.10603   0.00000  Uiso   1.00
H86    H     0.51926   0.19638   0.39753   0.00000  Uiso   1.00
H87    H     0.65994   0.19968   0.12014   0.00000  Uiso   1.00
H88    H     0.34992   0.09932   0.37302   0.00000  Uiso   1.00
H89    H     0.56867   0.01358   0.25558   0.00000  Uiso   1.00
H90    H     0.43128   0.31976   0.24453   0.00000  Uiso   1.00
N91    N     0.64839   0.18068   0.26212   0.00000  Uiso   1.00
N92    N     0.35161   0.15265   0.23788   0.00000  Uiso   1.00
O93    O     0.46148   0.23809   0.24686   0.00000  Uiso   1.00
O94    O     0.53852   0.09524   0.25314   0.00000  Uiso   1.00
O95    O     0.56163   0.24753   0.25503   0.00000  Uiso   1.00
O96    O     0.43837   0.08580   0.24497   0.00000  Uiso   1.00
O97    O     0.42185   0.15930   0.30855   0.00000  Uiso   1.00
O98    O     0.57815   0.17403   0.19145   0.00000  Uiso   1.00
O99    O     0.52199   0.16874   0.31671   0.00000  Uiso   1.00
O100   O     0.47801   0.16460   0.18329   0.00000  Uiso   1.00
O101   O     0.33917   0.04915   0.02278   0.00000  Uiso   1.00
H102   H     0.66629   0.04312   0.05465   0.00000  Uiso   1.00
O103   O     0.35036   0.21682   0.45908   0.00000  Uiso   1.00
H104   H     0.35935   0.25001   0.47664   0.00000  Uiso   1.00
O105   O     0.64029   0.05849   0.45291   0.00000  Uiso   1.00
H106   H     0.61503   0.05489   0.43049   0.00000  Uiso   1.00
O107   O     0.38002   0.20918   0.03444   0.00000  Uiso   1.00
H108   H     0.40337   0.21553   0.05815   0.00000  Uiso   1.00
O109   O     0.43272   0.06606   0.06870   0.00000  Uiso   1.00
H110   H     0.47405   0.06006   0.07050   0.00000  Uiso   1.00
O111   O     0.60725   0.17156   0.40774   0.00000  Uiso   1.00
H112   H     0.58565   0.13877   0.39448   0.00000  Uiso   1.00
O113   O     0.33817   0.21122   0.29350   0.00000  Uiso   1.00
H114   H     0.63726   0.22883   0.30927   0.00000  Uiso   1.00
O115   O     0.66180   0.12206   0.20654   0.00000  Uiso   1.00
H116   H     0.36268   0.10440   0.19080   0.00000  Uiso   1.00
C117   C     0.84843   0.26673   0.25136   0.00000  Uiso   1.00
C118   C     0.81822   0.06660   0.24868   0.00000  Uiso   1.00
C119   C     0.77579   0.09606   0.03212   0.00000  Uiso   1.00
C120   C     0.91521   0.17075   0.45284   0.00000  Uiso   1.00
C121   C     0.72983   0.08350   0.00699   0.00000  Uiso   1.00
C122   C     0.95763   0.18944   0.47950   0.00000  Uiso   1.00
C123   C     0.85682   0.32283   0.25198   0.00000  Uiso   1.00
C124   C     0.80980   0.01051   0.24812   0.00000  Uiso   1.00
C125   C     0.79482   0.16168   0.33325   0.00000  Uiso   1.00
C126   C     0.87181   0.17035   0.16660   0.00000  Uiso   1.00
C127   C     0.77143   0.14849   0.38024   0.00000  Uiso   1.00
C128   C     0.89585   0.17241   0.11815   0.00000  Uiso   1.00
C129   C     0.69829   0.09209   0.43781   0.00000  Uiso   1.00
C130   C     0.98265   0.19384   0.05296   0.00000  Uiso   1.00
C131   C     0.71451   0.11249   0.39506   0.00000  Uiso   1.00
C132   C     0.96031   0.18910   0.09908   0.00000  Uiso   1.00
C133   C     0.81215   0.16452   0.40820   0.00000  Uiso   1.00
C134   C     0.85396   0.15656   0.09079   0.00000  Uiso   1.00
C135   C     0.80260   0.13887   0.44797   0.00000  Uiso   1.00
C136   C     0.87539   0.15567   0.04442   0.00000  Uiso   1.00
C137   C     0.74288   0.10486   0.46465   0.00000  Uiso   1.00
C138   C     0.93911   0.18050   0.02550   0.00000  Uiso   1.00
C139   C     0.85046   0.14815   0.47204   0.00000  Uiso   1.00
C140   C     0.83339   0.13367   0.01682   0.00000  Uiso   1.00
Cu141  Cu    0.77404   0.16108   0.24517   0.00000  Uiso   1.00
Cu142  Cu    0.89263   0.17225   0.25483   0.00000  Uiso   1.00
H143   H     0.80403   0.14548   0.10603   0.00000  Uiso   1.00
H144   H     0.85259   0.19638   0.39753   0.00000  Uiso   1.00
H145   H     0.99328   0.19968   0.12014   0.00000  Uiso   1.00
H146   H     0.68325   0.09932   0.37302   0.00000  Uiso   1.00
H147   H     0.90200   0.01358   0.25558   0.00000  Uiso   1.00
H148   H     0.76461   0.31976   0.24453   0.00000  Uiso   1.00
N149   N     0.98173   0.18068   0.26212   0.00000  Uiso   1.00
N150   N     0.68494   0.15265   0.23788   0.00000  Uiso   1.00
O151   O     0.79482   0.23809   0.24686   0.00000  Uiso   1.00
O152   O     0.87185   0.09524   0.25314   0.00000  Uiso   1.00
O153   O     0.89496   0.24753   0.25503   0.00000  Uiso   1.00
O154   O     0.77171   0.08580   0.24497   0.00000  Uiso   1.00
O155   O     0.75518   0.15930   0.30855   0.00000  Uiso   1.00
O156   O     0.91149   0.17403   0.19145   0.00000  Uiso   1.00
O157   O     0.85532   0.16874   0.31671   0.00000  Uiso   1.00
O158   O     0.81134   0.16460   0.18329   0.00000  Uiso   1.00
O159   O     0.67251   0.04915   0.02278   0.00000  Uiso   1.00
H160   H     0.99962   0.04312   0.05465   0.00000  Uiso   1.00
O161   O     0.68370   0.21682   0.45908   0.00000  Uiso   1.00
H162   H     0.69268   0.25001   0.47664   0.00000  Uiso   1.00
O163   O     0.97363   0.05849   0.45291   0.00000  Uiso   1.00
H164   H     0.94837   0.05489   0.43049   0.00000  Uiso   1.00
O165   O     0.71335   0.20918   0.03444   0.00000  Uiso   1.00
H166   H     0.73670   0.21553   0.05815   0.00000  Uiso   1.00
O167   O     0.76605   0.06606   0.06870   0.00000  Uiso   1.00
H168   H     0.80738   0.06006   0.07050   0.00000  Uiso   1.00
O169   O     0.94058   0.17156   0.40774   0.00000  Uiso   1.00
H170   H     0.91899   0.13877   0.39448   0.00000  Uiso   1.00
O171   O     0.67150   0.21122   0.29350   0.00000  Uiso   1.00
H172   H     0.97059   0.22883   0.30927   0.00000  Uiso   1.00
O173   O     0.99513   0.12206   0.20654   0.00000  Uiso   1.00
H174   H     0.69602   0.10440   0.19080   0.00000  Uiso   1.00
C175   C     0.18177   0.60007   0.25136   0.00000  Uiso   1.00
C176   C     0.15155   0.39993   0.24868   0.00000  Uiso   1.00
C177   C     0.10913   0.42939   0.03212   0.00000  Uiso   1.00
C178   C     0.24855   0.50408   0.45284   0.00000  Uiso   1.00
C179   C     0.06316   0.41684   0.00699   0.00000  Uiso   1.00
C180   C     0.29096   0.52277   0.47950   0.00000  Uiso   1.00
C181   C     0.19015   0.65616   0.25198   0.00000  Uiso   1.00
C182   C     0.14314   0.34384   0.24812   0.00000  Uiso   1.00
C183   C     0.12816   0.49501   0.33325   0.00000  Uiso   1.00
C184   C     0.20514   0.50368   0.16660   0.00000  Uiso   1.00
C185   C     0.10476   0.48183   0.38024   0.00000  Uiso   1.00
C186   C     0.22919   0.50574   0.11815   0.00000  Uiso   1.00
C187   C     0.03163   0.42542   0.43781   0.00000  Uiso   1.00
C188   C     0.31599   0.52718   0.05296   0.00000  Uiso   1.00
C189   C     0.04785   0.44582   0.39506   0.00000  Uiso   1.00
C190   C     0.29364   0.52244   0.09908   0.00000  Uiso   1.00
C191   C     0.14549   0.49785   0.40820   0.00000  Uiso   1.00
C192   C     0.18730   0.48989   0.09079   0.00000  Uiso   1.00
C193   C     0.13593   0.47220   0.44797   0.00000  Uiso   1.00
C194   C     0.20873   0.48900   0.04442   0.00000  Uiso   1.00
C195   C     0.07622   0.43820   0.46465   0.00000  Uiso   1.00
C196   C     0.27244   0.51384   0.02550   0.00000  Uiso   1.00
C197   C     0.18379   0.48148   0.47204   0.00000  Uiso   1.00
C198   C     0.16673   0.46700   0.01682   0.00000  Uiso   1.00
Cu199  Cu    0.10737   0.49441   0.24517   0.00000  Uiso   1.00
Cu200  Cu    0.22596   0.50559   0.25483   0.00000  Uiso   1.00
H201   H     0.13737   0.47881   0.10603   0.00000  Uiso   1.00
H202   H     0.18592   0.52971   0.39753   0.00000  Uiso   1.00
H203   H     0.32661   0.53302   0.12014   0.00000  Uiso   1.00
H204   H     0.01658   0.43265   0.37302   0.00000  Uiso   1.00
H205   H     0.23534   0.34692   0.25558   0.00000  Uiso   1.00
H206   H     0.09795   0.65309   0.24453   0.00000  Uiso   1.00
N207   N     0.31506   0.51401   0.26212   0.00000  Uiso   1.00
N208   N     0.01827   0.48599   0.23788   0.00000  Uiso   1.00
O209   O     0.12815   0.57142   0.24686   0.00000  Uiso   1.00
O210   O     0.20518   0.42858   0.25314   0.00000  Uiso   1.00
O211   O     0.22829   0.58086   0.25503   0.00000  Uiso   1.00
O212   O     0.10504   0.41914   0.24497   0.00000  Uiso   1.00
O213   O     0.08851   0.49263   0.30855   0.00000  Uiso   1.00
O214   O     0.24482   0.50737   0.19145   0.00000  Uiso   1.00
O215   O     0.18866   0.50207   0.31671   0.00000  Uiso   1.00
O216   O     0.14468   0.49793   0.18329   0.00000  Uiso   1.00
O217   O     0.00584   0.38248   0.02278   0.00000  Uiso   1.00
H218   H     0.33296   0.37645   0.05465   0.00000  Uiso   1.00
O219   O     0.01703   0.55015   0.45908   0.00000  Uiso   1.00
H220   H     0.02602   0.58335   0.47664   0.00000  Uiso   1.00
O221   O     0.30696   0.39183   0.45291   0.00000  Uiso   1.00
H222   H     0.28170   0.38822   0.43049   0.00000  Uiso   1.00
O223   O     0.04669   0.54251   0.03444   0.00000  Uiso   1.00
H224   H     0.07003   0.54887   0.05815   0.00000  Uiso   1.00
O225   O     0.09939   0.39940   0.06870   0.00000  Uiso   1.00
H226   H     0.14071   0.39339   0.07050   0.00000  Uiso   1.00
O227   O     0.27391   0.50489   0.40774   0.00000  Uiso   1.00
H228   H     0.25232   0.47210   0.39448   0.00000  Uiso   1.00
O229   O     0.00483   0.54455   0.29350   0.00000  Uiso   1.00
H230   H     0.30393   0.56217   0.30927   0.00000  Uiso   1.00
O231   O     0.32847   0.45539   0.20654   0.00000  Uiso   1.00
H232   H     0.02935   0.43773   0.19080   0.00000  Uiso   1.00
C233   C     0.51510   0.60007   0.25136   0.00000  Uiso   1.00
C234   C     0.48488   0.39993   0.24868   0.00000  Uiso   1.00
C235   C     0.44246   0.42939   0.03212   0.00000  Uiso   1.00
C236   C     0.58188   0.50408   0.45284   0.00000  Uiso   1.00
C237   C     0.39650   0.41684   0.00699   0.00000  Uiso   1.00
C238   C     0.62430   0.52277   0.47950   0.00000  Uiso   1.00
C239   C     0.52348   0.65616   0.25198   0.00000  Uiso   1.00
C240   C     0.47647   0.34384   0.24812   0.00000  Uiso   1.00
C241   C     0.46149   0.49501   0.33325   0.00000  Uiso   1.00
C242   C     0.53848   0.50368   0.16660   0.00000  Uiso   1.00
C243   C     0.43809   0.48183   0.38024   0.00000  Uiso   1.00
C244   C     0.56252   0.50574   0.11815   0.00000  Uiso   1.00
C245   C     0.36496   0.42542   0.43781   0.00000  Uiso   1.00
C246   C     0.64932   0.52718   0.05296   0.00000  Uiso   1.00
C247   C     0.38118   0.44582   0.39506   0.00000  Uiso   1.00
C248   C     0.62697   0.52244   0.09908   0.00000  Uiso   1.00
C249   C     0.47882   0.49785   0.40820   0.00000  Uiso   1.00
C250   C     0.52063   0.48989   0.09079   0.00000  Uiso   1.00
C251   C     0.46927   0.47220   0.44797   0.00000  Uiso   1.00
C252   C     0.54206   0.48900   0.04442   0.00000  Uiso   1.00
C253   C     0.40955   0.43820   0.46465   0.00000  Uiso   1.00
C254   C     0.60578   0.51384   0.02550   0.00000  Uiso   1.00
C255   C     0.51712   0.48148   0.47204   0.00000  Uiso   1.00
C256   C     0.50006   0.46700   0.01682   0.00000  Uiso   1.00
Cu257  Cu    0.44071   0.49441   0.24517   0.00000  Uiso   1.00
Cu258  Cu    0.55929   0.50559   0.25483   0.00000  Uiso   1.00
H259   H     0.47070   0.47881   0.10603   0.00000  Uiso   1.00
H260   H     0.51926   0.52971   0.39753   0.00000  Uiso   1.00
H261   H     0.65994   0.53302   0.12014   0.00000  Uiso   1.00
H262   H     0.34992   0.43265   0.37302   0.00000  Uiso   1.00
H263   H     0.56867   0.34692   0.25558   0.00000  Uiso   1.00
H264   H     0.43128   0.65309   0.24453   0.00000  Uiso   1.00
N265   N     0.64839   0.51401   0.26212   0.00000  Uiso   1.00
N266   N     0.35161   0.48599   0.23788   0.00000  Uiso   1.00
O267   O     0.46148   0.57142   0.24686   0.00000  Uiso   1.00
O268   O     0.53852   0.42858   0.25314   0.00000  Uiso   1.00
O269   O     0.56163   0.58086   0.25503   0.00000  Uiso   1.00
O270   O     0.43837   0.41914   0.24497   0.00000  Uiso   1.00
O271   O     0.42185   0.49263   0.30855   0.00000  Uiso   1.00
O272   O     0.57815   0.50737   0.19145   0.00000  Uiso   1.00
O273   O     0.52199   0.50207   0.31671   0.00000  Uiso   1.00
O274   O     0.47801   0.49793   0.18329   0.00000  Uiso   1.00
O275   O     0.33917   0.38248   0.02278   0.00000  Uiso   1.00
H276   H     0.66629   0.37645   0.05465   0.00000  Uiso   1.00
O277   O     0.35036   0.55015   0.45908   0.00000  Uiso   1.00
H278   H     0.35935   0.58335   0.47664   0.00000  Uiso   1.00
O279   O     0.64029   0.39183   0.45291   0.00000  Uiso   1.00
H280   H     0.61503   0.38822   0.43049   0.00000  Uiso   1.00
O281   O     0.38002   0.54251   0.03444   0.00000  Uiso   1.00
H282   H     0.40337   0.54887   0.05815   0.00000  Uiso   1.00
O283   O     0.43272   0.39940   0.06870   0.00000  Uiso   1.00
H284   H     0.47405   0.39339   0.07050   0.00000  Uiso   1.00
O285   O     0.60725   0.50489   0.40774   0.00000  Uiso   1.00
H286   H     0.58565   0.47210   0.39448   0.00000  Uiso   1.00
O287   O     0.33817   0.54455   0.29350   0.00000  Uiso   1.00
H288   H     0.63726   0.56217   0.30927   0.00000  Uiso   1.00
O289   O     0.66180   0.45539   0.20654   0.00000  Uiso   1.00
H290   H     0.36268   0.43773   0.19080   0.00000  Uiso   1.00
C291   C     0.84843   0.60007   0.25136   0.00000  Uiso   1.00
C292   C     0.81822   0.39993   0.24868   0.00000  Uiso   1.00
C293   C     0.77579   0.42939   0.03212   0.00000  Uiso   1.00
C294   C     0.91521   0.50408   0.45284   0.00000  Uiso   1.00
C295   C     0.72983   0.41684   0.00699   0.00000  Uiso   1.00
C296   C     0.95763   0.52277   0.47950   0.00000  Uiso   1.00
C297   C     0.85682   0.65616   0.25198   0.00000  Uiso   1.00
C298   C     0.80980   0.34384   0.24812   0.00000  Uiso   1.00
C299   C     0.79482   0.49501   0.33325   0.00000  Uiso   1.00
C300   C     0.87181   0.50368   0.16660   0.00000  Uiso   1.00
C301   C     0.77143   0.48183   0.38024   0.00000  Uiso   1.00
C302   C     0.89585   0.50574   0.11815   0.00000  Uiso   1.00
C303   C     0.69829   0.42542   0.43781   0.00000  Uiso   1.00
C304   C     0.98265   0.52718   0.05296   0.00000  Uiso   1.00
C305   C     0.71451   0.44582   0.39506   0.00000  Uiso   1.00
C306   C     0.96031   0.52244   0.09908   0.00000  Uiso   1.00
C307   C     0.81215   0.49785   0.40820   0.00000  Uiso   1.00
C308   C     0.85396   0.48989   0.09079   0.00000  Uiso   1.00
C309   C     0.80260   0.47220   0.44797   0.00000  Uiso   1.00
C310   C     0.87539   0.48900   0.04442   0.00000  Uiso   1.00
C311   C     0.74288   0.43820   0.46465   0.00000  Uiso   1.00
C312   C     0.93911   0.51384   0.02550   0.00000  Uiso   1.00
C313   C     0.85046   0.48148   0.47204   0.00000  Uiso   1.00
C314   C     0.83339   0.46700   0.01682   0.00000  Uiso   1.00
Cu315  Cu    0.77404   0.49441   0.24517   0.00000  Uiso   1.00
Cu316  Cu    0.89263   0.50559   0.25483   0.00000  Uiso   1.00
H317   H     0.80403   0.47881   0.10603   0.00000  Uiso   1.00
H318   H     0.85259   0.52971   0.39753   0.00000  Uiso   1.00
H319   H     0.99328   0.53302   0.12014   0.00000  Uiso   1.00
H320   H     0.68325   0.43265   0.37302   0.00000  Uiso   1.00
H321   H     0.90200   0.34692   0.25558   0.00000  Uiso   1.00
H322   H     0.76461   0.65309   0.24453   0.00000  Uiso   1.00
N323   N     0.98173   0.51401   0.26212   0.00000  Uiso   1.00
N324   N     0.68494   0.48599   0.23788   0.00000  Uiso   1.00
O325   O     0.79482   0.57142   0.24686   0.00000  Uiso   1.00
O326   O     0.87185   0.42858   0.25314   0.00000  Uiso   1.00
O327   O     0.89496   0.58086   0.25503   0.00000  Uiso   1.00
O328   O     0.77171   0.41914   0.24497   0.00000  Uiso   1.00
O329   O     0.75518   0.49263   0.30855   0.00000  Uiso   1.00
O330   O     0.91149   0.50737   0.19145   0.00000  Uiso   1.00
O331   O     0.85532   0.50207   0.31671   0.00000  Uiso   1.00
O332   O     0.81134   0.49793   0.18329   0.00000  Uiso   1.00
O333   O     0.67251   0.38248   0.02278   0.00000  Uiso   1.00
H334   H     0.99962   0.37645   0.05465   0.00000  Uiso   1.00
O335   O     0.68370   0.55015   0.45908   0.00000  Uiso   1.00
H336   H     0.69268   0.58335   0.47664   0.00000  Uiso   1.00
O337   O     0.97363   0.39183   0.45291   0.00000  Uiso   1.00
H338   H     0.94837   0.38822   0.43049   0.00000  Uiso   1.00
O339   O     0.71335   0.54251   0.03444   0.00000  Uiso   1.00
H340   H     0.73670   0.54887   0.05815   0.00000  Uiso   1.00
O341   O     0.76605   0.39940   0.06870   0.00000  Uiso   1.00
H342   H     0.80738   0.39339   0.07050   0.00000  Uiso   1.00
O343   O     0.94058   0.50489   0.40774   0.00000  Uiso   1.00
H344   H     0.91899   0.47210   0.39448   0.00000  Uiso   1.00
O345   O     0.67150   0.54455   0.29350   0.00000  Uiso   1.00
H346   H     0.97059   0.56217   0.30927   0.00000  Uiso   1.00
O347   O     0.99513   0.45539   0.20654   0.00000  Uiso   1.00
H348   H     0.69602   0.43773   0.19080   0.00000  Uiso   1.00
C349   C     0.18177   0.93340   0.25136   0.00000  Uiso   1.00
C350   C     0.15155   0.73327   0.24868   0.00000  Uiso   1.00
C351   C     0.10913   0.76273   0.03212   0.00000  Uiso   1.00
C352   C     0.24855   0.83741   0.45284   0.00000  Uiso   1.00
C353   C     0.06316   0.75017   0.00699   0.00000  Uiso   1.00
C354   C     0.29096   0.85610   0.47950   0.00000  Uiso   1.00
C355   C     0.19015   0.98949   0.25198   0.00000  Uiso   1.00
C356   C     0.14314   0.67718   0.24812   0.00000  Uiso   1.00
C357   C     0.12816   0.82835   0.33325   0.00000  Uiso   1.00
C358   C     0.20514   0.83702   0.16660   0.00000  Uiso   1.00
C359   C     0.10476   0.81516   0.38024   0.00000  Uiso   1.00
C360   C     0.22919   0.83907   0.11815   0.00000  Uiso   1.00
C361   C     0.03163   0.75876   0.43781   0.00000  Uiso   1.00
C362   C     0.31599   0.86051   0.05296   0.00000  Uiso   1.00
C363   C     0.04785   0.77916   0.39506   0.00000  Uiso   1.00
C364   C     0.29364   0.85577   0.09908   0.00000  Uiso   1.00
C365   C     0.14549   0.83119   0.40820   0.00000  Uiso   1.00
C366   C     0.18730   0.82322   0.09079   0.00000  Uiso   1.00
C367   C     0.13593   0.80554   0.44797   0.00000  Uiso   1.00
C368   C     0.20873   0.82234   0.04442   0.00000  Uiso   1.00
C369   C     0.07622   0.77153   0.46465   0.00000  Uiso   1.00
C370   C     0.27244   0.84717   0.02550   0.00000  Uiso   1.00
C371   C     0.18379   0.81482   0.47204   0.00000  Uiso   1.00
C372   C     0.16673   0.80034   0.01682   0.00000  Uiso   1.00
Cu373  Cu    0.10737   0.82775   0.24517   0.00000  Uiso   1.00
Cu374  Cu    0.22596   0.83892   0.25483   0.00000  Uiso   1.00
H375   H     0.13737   0.81215   0.10603   0.00000  Uiso   1.00
H376   H     0.18592   0.86305   0.39753   0.00000  Uiso   1.00
H377   H     0.32661   0.86635   0.12014   0.00000  Uiso   1.00
H378   H     0.01658   0.76599   0.37302   0.00000  Uiso   1.00
H379   H     0.23534   0.68025   0.25558   0.00000  Uiso   1.00
H380   H     0.09795   0.98642   0.24453   0.00000  Uiso   1.00
N381   N     0.31506   0.84735   0.26212   0.00000  Uiso   1.00
N382   N     0.01827   0.81932   0.23788   0.00000  Uiso   1.00
O383   O     0.12815   0.90476   0.24686   0.00000  Uiso   1.00
O384   O     0.20518   0.76191   0.25314   0.00000  Uiso   1.00
O385   O     0.22829   0.91420   0.25503   0.00000  Uiso   1.00
O386   O     0.10504   0.75247   0.24497   0.00000  Uiso   1.00
O387   O     0.08851   0.82597   0.30855   0.00000  Uiso   1.00
O388   O     0.24482   0.84070   0.19145   0.00000  Uiso   1.00
O389   O     0.18866   0.83540   0.31671   0.00000  Uiso   1.00
O390   O     0.14468   0.83126   0.18329   0.00000  Uiso   1.00
O391   O     0.00584   0.71581   0.02278   0.00000  Uiso   1.00
H392   H     0.33296   0.70978   0.05465   0.00000  Uiso   1.00
O393   O     0.01703   0.88349   0.45908   0.00000  Uiso   1.00
H394   H     0.02602   0.91668   0.47664   0.00000  Uiso   1.00
O395   O     0.30696   0.72516   0.45291   0.00000  Uiso   1.00
H396   H     0.28170   0.72156   0.43049   0.00000  Uiso   1.00
O397   O     0.04669   0.87585   0.03444   0.00000  Uiso   1.00
H398   H     0.07003   0.88220   0.05815   0.00000  Uiso   1.00
O399   O     0.09939   0.73273   0.06870   0.00000  Uiso   1.00
H400   H     0.14071   0.72672   0.07050   0.00000  Uiso   1.00
O401   O     0.27391   0.83822   0.40774   0.00000  Uiso   1.00
H402   H     0.25232   0.80544   0.39448   0.00000  Uiso   1.00
O403   O     0.00483   0.87788   0.29350   0.00000  Uiso   1.00
H404   H     0.30393   0.89550   0.30927   0.00000  Uiso   1.00
O405   O     0.32847   0.78872   0.20654   0.00000  Uiso   1.00
H406   H     0.02935   0.77107   0.19080   0.00000  Uiso   1.00
C407   C     0.51510   0.93340   0.25136   0.00000  Uiso   1.00
C408   C     0.48488   0.73327   0.24868   0.00000  Uiso   1.00
C409   C     0.44246   0.76273   0.03212   0.00000  Uiso   1.00
C410   C     0.58188   0.83741   0.45284   0.00000  Uiso   1.00
C411   C     0.39650   0.75017   0.00699   0.00000  Uiso   1.00
C412   C     0.62430   0.85610   0.47950   0.00000  Uiso   1.00
C413   C     0.52348   0.98949   0.25198   0.00000  Uiso   1.00
C414   C     0.47647   0.67718   0.24812   0.00000  Uiso   1.00
C415   C     0.46149   0.82835   0.33325   0.00000  Uiso   1.00
C416   C     0.53848   0.83702   0.16660   0.00000  Uiso   1.00
C417   C     0.43809   0.81516   0.38024   0.00000  Uiso   1.00
C418   C     0.56252   0.83907   0.11815   0.00000  Uiso   1.00
C419   C     0.36496   0.75876   0.43781   0.00000  Uiso   1.00
C420   C     0.64932   0.86051   0.05296   0.00000  Uiso   1.00
C421   C     0.38118   0.77916   0.39506   0.00000  Uiso   1.00
C422   C     0.62697   0.85577   0.09908   0.00000  Uiso   1.00
C423   C     0.47882   0.83119   0.40820   0.00000  Uiso   1.00
C424   C     0.52063   0.82322   0.09079   0.00000  Uiso   1.00
C425   C     0.46927   0.80554   0.44797   0.00000  Uiso   1.00
C426   C     0.54206   0.82234   0.04442   0.00000  Uiso   1.00
C427   C     0.40955   0.77153   0.46465   0.00000  Uiso   1.00
C428   C     0.60578   0.84717   0.02550   0.00000  Uiso   1.00
C429   C     0.51712   0.81482   0.47204   0.00000  Uiso   1.00
C430   C     0.50006   0.80034   0.01682   0.00000  Uiso   1.00
Cu431  Cu    0.44071   0.82775   0.24517   0.00000  Uiso   1.00
Cu432  Cu    0.55929   0.83892   0.25483   0.00000  Uiso   1.00
H433   H     0.47070   0.81215   0.10603   0.00000  Uiso   1.00
H434   H     0.51926   0.86305   0.39753   0.00000  Uiso   1.00
H435   H     0.65994   0.86635   0.12014   0.00000  Uiso   1.00
H436   H     0.34992   0.76599   0.37302   0.00000  Uiso   1.00
H437   H     0.56867   0.68025   0.25558   0.00000  Uiso   1.00
H438   H     0.43128   0.98642   0.24453   0.00000  Uiso   1.00
N439   N     0.64839   0.84735   0.26212   0.00000  Uiso   1.00
N440   N     0.35161   0.81932   0.23788   0.00000  Uiso   1.00
O441   O     0.46148   0.90476   0.24686   0.00000  Uiso   1.00
O442   O     0.53852   0.76191   0.25314   0.00000  Uiso   1.00
O443   O     0.56163   0.91420   0.25503   0.00000  Uiso   1.00
O444   O     0.43837   0.75247   0.24497   0.00000  Uiso   1.00
O445   O     0.42185   0.82597   0.30855   0.00000  Uiso   1.00
O446   O     0.57815   0.84070   0.19145   0.00000  Uiso   1.00
O447   O     0.52199   0.83540   0.31671   0.00000  Uiso   1.00
O448   O     0.47801   0.83126   0.18329   0.00000  Uiso   1.00
O449   O     0.33917   0.71581   0.02278   0.00000  Uiso   1.00
H450   H     0.66629   0.70978   0.05465   0.00000  Uiso   1.00
O451   O     0.35036   0.88349   0.45908   0.00000  Uiso   1.00
H452   H     0.35935   0.91668   0.47664   0.00000  Uiso   1.00
O453   O     0.64029   0.72516   0.45291   0.00000  Uiso   1.00
H454   H     0.61503   0.72156   0.43049   0.00000  Uiso   1.00
O455   O     0.38002   0.87585   0.03444   0.00000  Uiso   1.00
H456   H     0.40337   0.88220   0.05815   0.00000  Uiso   1.00
O457   O     0.43272   0.73273   0.06870   0.00000  Uiso   1.00
H458   H     0.47405   0.72672   0.07050   0.00000  Uiso   1.00
O459   O     0.60725   0.83822   0.40774   0.00000  Uiso   1.00
H460   H     0.58565   0.80544   0.39448   0.00000  Uiso   1.00
O461   O     0.33817   0.87788   0.29350   0.00000  Uiso   1.00
H462   H     0.63726   0.89550   0.30927   0.00000  Uiso   1.00
O463   O     0.66180   0.78872   0.20654   0.00000  Uiso   1.00
H464   H     0.36268   0.77107   0.19080   0.00000  Uiso   1.00
C465   C     0.84843   0.93340   0.25136   0.00000  Uiso   1.00
C466   C     0.81822   0.73327   0.24868   0.00000  Uiso   1.00
C467   C     0.77579   0.76273   0.03212   0.00000  Uiso   1.00
C468   C     0.91521   0.83741   0.45284   0.00000  Uiso   1.00
C469   C     0.72983   0.75017   0.00699   0.00000  Uiso   1.00
C470   C     0.95763   0.85610   0.47950   0.00000  Uiso   1.00
C471   C     0.85682   0.98949   0.25198   0.00000  Uiso   1.00
C472   C     0.80980   0.67718   0.24812   0.00000  Uiso   1.00
C473   C     0.79482   0.82835   0.33325   0.00000  Uiso   1.00
C474   C     0.87181   0.83702   0.16660   0.00000  Uiso   1.00
C475   C     0.77143   0.81516   0.38024   0.00000  Uiso   1.00
C476   C     0.89585   0.83907   0.11815   0.00000  Uiso   1.00
C477   C     0.69829   0.75876   0.43781   0.00000  Uiso   1.00
C478   C     0.98265   0.86051   0.05296   0.00000  Uiso   1.00
C479   C     0.71451   0.77916   0.39506   0.00000  Uiso   1.00
C480   C     0.96031   0.85577   0.09908   0.00000  Uiso   1.00
C481   C     0.81215   0.83119   0.40820   0.00000  Uiso   1.00
C482   C     0.85396   0.82322   0.09079   0.00000  Uiso   1.00
C483   C     0.80260   0.80554   0.44797   0.00000  Uiso   1.00
C484   C     0.87539   0.82234   0.04442   0.00000  Uiso   1.00
C485   C     0.74288   0.77153   0.46465   0.00000  Uiso   1.00
C486   C     0.93911   0.84717   0.02550   0.00000  Uiso   1.00
C487   C     0.85046   0.81482   0.47204   0.00000  Uiso   1.00
C488   C     0.83339   0.80034   0.01682   0.00000  Uiso   1.00
Cu489  Cu    0.77404   0.82775   0.24517   0.00000  Uiso   1.00
Cu490  Cu    0.89263   0.83892   0.25483   0.00000  Uiso   1.00
H491   H     0.80403   0.81215   0.10603   0.00000  Uiso   1.00
H492   H     0.85259   0.86305   0.39753   0.00000  Uiso   1.00
H493   H     0.99328   0.86635   0.12014   0.00000  Uiso   1.00
H494   H     0.68325   0.76599   0.37302   0.00000  Uiso   1.00
H495   H     0.90200   0.68025   0.25558   0.00000  Uiso   1.00
H496   H     0.76461   0.98642   0.24453   0.00000  Uiso   1.00
N497   N     0.98173   0.84735   0.26212   0.00000  Uiso   1.00
N498   N     0.68494   0.81932   0.23788   0.00000  Uiso   1.00
O499   O     0.79482   0.90476   0.24686   0.00000  Uiso   1.00
O500   O     0.87185   0.76191   0.25314   0.00000  Uiso   1.00
O501   O     0.89496   0.91420   0.25503   0.00000  Uiso   1.00
O502   O     0.77171   0.75247   0.24497   0.00000  Uiso   1.00
O503   O     0.75518   0.82597   0.30855   0.00000  Uiso   1.00
O504   O     0.91149   0.84070   0.19145   0.00000  Uiso   1.00
O505   O     0.85532   0.83540   0.31671   0.00000  Uiso   1.00
O506   O     0.81134   0.83126   0.18329   0.00000  Uiso   1.00
O507   O     0.67251   0.71581   0.02278   0.00000  Uiso   1.00
H508   H     0.99962   0.70978   0.05465   0.00000  Uiso   1.00
O509   O     0.68370   0.88349   0.45908   0.00000  Uiso   1.00
H510   H     0.69268   0.91668   0.47664   0.00000  Uiso   1.00
O511   O     0.97363   0.72516   0.45291   0.00000  Uiso   1.00
H512   H     0.94837   0.72156   0.43049   0.00000  Uiso   1.00
O513   O     0.71335   0.87585   0.03444   0.00000  Uiso   1.00
H514   H     0.73670   0.88220   0.05815   0.00000  Uiso   1.00
O515   O     0.76605   0.73273   0.06870   0.00000  Uiso   1.00
H516   H     0.80738   0.72672   0.07050   0.00000  Uiso   1.00
O517   O     0.94058   0.83822   0.40774   0.00000  Uiso   1.00
H518   H     0.91899   0.80544   0.39448   0.00000  Uiso   1.00
O519   O     0.67150   0.87788   0.29350   0.00000  Uiso   1.00
H520   H     0.97059   0.89550   0.30927   0.00000  Uiso   1.00
O521   O     0.99513   0.78872   0.20654   0.00000  Uiso   1.00
H522   H     0.69602   0.77107   0.19080   0.00000  Uiso   1.00
C523   C     0.18177   0.26673   0.75136   0.00000  Uiso   1.00
C524   C     0.15155   0.06660   0.74868   0.00000  Uiso   1.00
C525   C     0.10913   0.09606   0.53212   0.00000  Uiso   1.00
C526   C     0.24855   0.17075   0.95284   0.00000  Uiso   1.00
C527   C     0.06316   0.08350   0.50699   0.00000  Uiso   1.00
C528   C     0.29096   0.18944   0.97950   0.00000  Uiso   1.00
C529   C     0.19015   0.32283   0.75198   0.00000  Uiso   1.00
C530   C     0.14314   0.01051   0.74812   0.00000  Uiso   1.00
C531   C     0.12816   0.16168   0.83325   0.00000  Uiso   1.00
C532   C     0.20514   0.17035   0.66660   0.00000  Uiso   1.00
C533   C     0.10476   0.14849   0.88024   0.00000  Uiso   1.00
C534   C     0.22919   0.17241   0.61815   0.00000  Uiso   1.00
C535   C     0.03163   0.09209   0.93781   0.00000  Uiso   1.00
C536   C     0.31599   0.19384   0.55296   0.00000  Uiso   1.00
C537   C     0.04785   0.11249   0.89506   0.00000  Uiso   1.00
C538   C     0.29364   0.18910   0.59908   0.00000  Uiso   1.00
C539   C     0.14549   0.16452   0.90820   0.00000  Uiso   1.00
C540   C     0.18730   0.15656   0.59079   0.00000  Uiso   1.00
C541   C     0.13593   0.13887   0.94797   0.00000  Uiso   1.00
C542   C     0.20873   0.15567   0.54442   0.00000  Uiso   1.00
C543   C     0.07622   0.10486   0.96465   0.00000  Uiso   1.00
C544   C     0.27244   0.18050   0.52550   0.00000  Uiso   1.00
C545   C     0.18379   0.14815   0.97204   0.00000  Uiso   1.00
C546   C     0.16673   0.13367   0.51682   0.00000  Uiso   1.00
Cu547  Cu    0.10737   0.16108   0.74517   0.00000  Uiso   1.00
Cu548  Cu    0.22596   0.17225   0.75483   0.00000  Uiso   1.00
H549   H     0.13737   0.14548   0.60603   0.00000  Uiso   1.00
H550   H     0.18592   0.19638   0.89753   0.00000  Uiso   1.00
H551   H     0.32661   0.19968   0.62014   0.00000  Uiso   1.00
H552   H     0.01658   0.09932   0.87302   0.00000  Uiso   1.00
H553   H     0.23534   0.01358   0.75558   0.00000  Uiso   1.00
H554   H     0.09795   0.31976   0.74453   0.00000  Uiso   1.00
N555   N     0.31506   0.18068   0.76212   0.00000  Uiso   1.00
N556   N     0.01827   0.15265   0.73788   0.00000  Uiso   1.00
O557   O     0.12815   0.23809   0.74686   0.00000  Uiso   1.00
O558   O     0.20518   0.09524   0.75314   0.00000  Uiso   1.00
O559   O     0.22829   0.24753   0.75503   0.00000  Uiso   1.00
O560   O     0.10504   0.08580   0.74497   0.00000  Uiso   1.00
O561   O     0.08851   0.15930   0.80855   0.00000  Uiso   1.00
O562   O     0.24482   0.17403   0.69145   0.00000  Uiso   1.00
O563   O     0.18866   0.16874   0.81671   0.00000  Uiso   1.00
O564   O     0.14468   0.16460   0.68329   0.00000  Uiso   1.00
O565   O     0.00584   0.04915   0.52278   0.00000  Uiso   1.00
H566   H     0.33296   0.04312   0.55465   0.00000  Uiso   1.00
O567   O     0.01703   0.21682   0.95908   0.00000  Uiso   1.00
H568   H     0.02602   0.25001   0.97664   0.00000  Uiso   1.00
O569   O     0.30696   0.05849   0.95291   0.00000  Uiso   1.00
H570   H     0.28170   0.05489   0.93049   0.00000  Uiso   1.00
O571   O     0.04669   0.20918   0.53444   0.00000  Uiso   1.00
H572   H     0.07003   0.21553   0.55815   0.00000  Uiso   1.00
O573   O     0.09939   0.06606   0.56870   0.00000  Uiso   1.00
H574   H     0.14071   0.06006   0.57050   0.00000  Uiso   1.00
O575   O     0.27391   0.17156   0.90774   0.00000  Uiso   1.00
H576   H     0.25232   0.13877   0.89448   0.00000  Uiso   1.00
O577   O     0.00483   0.21122   0.79350   0.00000  Uiso   1.00
H578   H     0.30393   0.22883   0.80927   0.00000  Uiso   1.00
O579   O     0.32847   0.12206   0.70654   0.00000  Uiso   1.00
H580   H     0.02935   0.10440   0.69080   0.00000  Uiso   1.00
C581   C     0.51510   0.26673   0.75136   0.00000  Uiso   1.00
C582   C     0.48488   0.06660   0.74868   0.00000  Uiso   1.00
C583   C     0.44246   0.09606   0.53212   0.00000  Uiso   1.00
C584   C     0.58188   0.17075   0.95284   0.00000  Uiso   1.00
C585   C     0.39650   0.08350   0.50699   0.00000  Uiso   1.00
C586   C     0.62430   0.18944   0.97950   0.00000  Uiso   1.00
C587   C     0.52348   0.32283   0.75198   0.00000  Uiso   1.00
C588   C     0.47647   0.01051   0.74812   0.00000  Uiso   1.00
C589   C     0.46149   0.16168   0.83325   0.00000  Uiso   1.00
C590   C     0.53848   0.17035   0.66660   0.00000  Uiso   1.00
C591   C     0.43809   0.14849   0.88024   0.00000  Uiso   1.00
C592   C     0.56252   0.17241   0.61815   0.00000  Uiso   1.00
C593   C     0.36496   0.09209   0.93781   0.00000  Uiso   1.00
C594   C     0.64932   0.19384   0.55296   0.00000  Uiso   1.00
C595   C     0.38118   0.11249   0.89506   0.00000  Uiso   1.00
C596   C     0.62697   0.18910   0.59908   0.00000  Uiso   1.00
C597   C     0.47882   0.16452   0.90820   0.00000  Uiso   1.00
C598   C     0.52063   0.15656   0.59079   0.00000  Uiso   1.00
C599   C     0.46927   0.13887   0.94797   0.00000  Uiso   1.00
C600   C     0.54206   0.15567   0.54442   0.00000  Uiso   1.00
C601   C     0.40955   0.10486   0.96465   0.00000  Uiso   1.00
C602   C     0.60578   0.18050   0.52550   0.00000  Uiso   1.00
C603   C     0.51712   0.14815   0.97204   0.00000  Uiso   1.00
C604   C     0.50006   0.13367   0.51682   0.00000  Uiso   1.00
Cu605  Cu    0.44071   0.16108   0.74517   0.00000  Uiso   1.00
Cu606  Cu    0.55929   0.17225   0.75483   0.00000  Uiso   1.00
H607   H     0.47070   0.14548   0.60603   0.00000  Uiso   1.00
H608   H     0.51926   0.19638   0.89753   0.00000  Uiso   1.00
H609   H     0.65994   0.19968   0.62014   0.00000  Uiso   1.00
H610   H     0.34992   0.09932   0.87302   0.00000  Uiso   1.00
H611   H     0.56867   0.01358   0.75558   0.00000  Uiso   1.00
H612   H     0.43128   0.31976   0.74453   0.00000  Uiso   1.00
N613   N     0.64839   0.18068   0.76212   0.00000  Uiso   1.00
N614   N     0.35161   0.15265   0.73788   0.00000  Uiso   1.00
O615   O     0.46148   0.23809   0.74686   0.00000  Uiso   1.00
O616   O     0.53852   0.09524   0.75314   0.00000  Uiso   1.00
O617   O     0.56163   0.24753   0.75503   0.00000  Uiso   1.00
O618   O     0.43837   0.08580   0.74497   0.00000  Uiso   1.00
O619   O     0.42185   0.15930   0.80855   0.00000  Uiso   1.00
O620   O     0.57815   0.17403   0.69145   0.00000  Uiso   1.00
O621   O     0.52199   0.16874   0.81671   0.00000  Uiso   1.00
O622   O     0.47801   0.16460   0.68329   0.00000  Uiso   1.00
O623   O     0.33917   0.04915   0.52278   0.00000  Uiso   1.00
H624   H     0.66629   0.04312   0.55465   0.00000  Uiso   1.00
O625   O     0.35036   0.21682   0.95908   0.00000  Uiso   1.00
H626   H     0.35935   0.25001   0.97664   0.00000  Uiso   1.00
O627   O     0.64029   0.05849   0.95291   0.00000  Uiso   1.00
H628   H     0.61503   0.05489   0.93049   0.00000  Uiso   1.00
O629   O     0.38002   0.20918   0.53444   0.00000  Uiso   1.00
H630   H     0.40337   0.21553   0.55815   0.00000  Uiso   1.00
O631   O     0.43272   0.06606   0.56870   0.00000  Uiso   1.00
H632   H     0.47405   0.06006   0.57050   0.00000  Uiso   1.00
O633   O     0.60725   0.17156   0.90774   0.00000  Uiso   1.00
H634   H     0.58565   0.13877   0.89448   0.00000  Uiso   1.00
O635   O     0.33817   0.21122   0.79350   0.00000  Uiso   1.00
H636   H     0.63726   0.22883   0.80927   0.00000  Uiso   1.00
O637   O     0.66180   0.12206   0.70654   0.00000  Uiso   1.00
H638   H     0.36268   0.10440   0.69080   0.00000  Uiso   1.00
C639   C     0.84843   0.26673   0.75136   0.00000  Uiso   1.00
C640   C     0.81822   0.06660   0.74868   0.00000  Uiso   1.00
C641   C     0.77579   0.09606   0.53212   0.00000  Uiso   1.00
C642   C     0.91521   0.17075   0.95284   0.00000  Uiso   1.00
C643   C     0.72983   0.08350   0.50699   0.00000  Uiso   1.00
C644   C     0.95763   0.18944   0.97950   0.00000  Uiso   1.00
C645   C     0.85682   0.32283   0.75198   0.00000  Uiso   1.00
C646   C     0.80980   0.01051   0.74812   0.00000  Uiso   1.00
C647   C     0.79482   0.16168   0.83325   0.00000  Uiso   1.00
C648   C     0.87181   0.17035   0.66660   0.00000  Uiso   1.00
C649   C     0.77143   0.14849   0.88024   0.00000  Uiso   1.00
C650   C     0.89585   0.17241   0.61815   0.00000  Uiso   1.00
C651   C     0.69829   0.09209   0.93781   0.00000  Uiso   1.00
C652   C     0.98265   0.19384   0.55296   0.00000  Uiso   1.00
C653   C     0.71451   0.11249   0.89506   0.00000  Uiso   1.00
C654   C     0.96031   0.18910   0.59908   0.00000  Uiso   1.00
C655   C     0.81215   0.16452   0.90820   0.00000  Uiso   1.00
C656   C     0.85396   0.15656   0.59079   0.00000  Uiso   1.00
C657   C     0.80260   0.13887   0.94797   0.00000  Uiso   1.00
C658   C     0.87539   0.15567   0.54442   0.00000  Uiso   1.00
C659   C     0.74288   0.10486   0.96465   0.00000  Uiso   1.00
C660   C     0.93911   0.18050   0.52550   0.00000  Uiso   1.00
C661   C     0.85046   0.14815   0.97204   0.00000  Uiso   1.00
C662   C     0.83339   0.13367   0.51682   0.00000  Uiso   1.00
Cu663  Cu    0.77404   0.16108   0.74517   0.00000  Uiso   1.00
Cu664  Cu    0.89263   0.17225   0.75483   0.00000  Uiso   1.00
H665   H     0.80403   0.14548   0.60603   0.00000  Uiso   1.00
H666   H     0.85259   0.19638   0.89753   0.00000  Uiso   1.00
H667   H     0.99328   0.19968   0.62014   0.00000  Uiso   1.00
H668   H     0.68325   0.09932   0.87302   0.00000  Uiso   1.00
H669   H     0.90200   0.01358   0.75558   0.00000  Uiso   1.00
H670   H     0.76461   0.31976   0.74453   0.00000  Uiso   1.00
N671   N     0.98173   0.18068   0.76212   0.00000  Uiso   1.00
N672   N     0.68494   0.15265   0.73788   0.00000  Uiso   1.00
O673   O     0.79482   0.23809   0.74686   0.00000  Uiso   1.00
O674   O     0.87185   0.09524   0.75314   0.00000  Uiso   1.00
O675   O     0.89496   0.24753   0.75503   0.00000  Uiso   1.00
O676   O     0.77171   0.08580   0.74497   0.00000  Uiso   1.00
O677   O     0.75518   0.15930   0.80855   0.00000  Uiso   1.00
O678   O     0.91149   0.17403   0.69145   0.00000  Uiso   1.00
O679   O     0.85532   0.16874   0.81671   0.00000  Uiso   1.00
O680   O     0.81134   0.16460   0.68329   0.00000  Uiso   1.00
O681   O     0.67251   0.04915   0.52278   0.00000  Uiso   1.00
H682   H     0.99962   0.04312   0.55465   0.00000  Uiso   1.00
O683   O     0.68370   0.21682   0.95908   0.00000  Uiso   1.00
H684   H     0.69268   0.25001   0.97664   0.00000  Uiso   1.00
O685   O     0.97363   0.05849   0.95291   0.00000  Uiso   1.00
H686   H     0.94837   0.05489   0.93049   0.00000  Uiso   1.00
O687   O     0.71335   0.20918   0.53444   0.00000  Uiso   1.00
H688   H     0.73670   0.21553   0.55815   0.00000  Uiso   1.00
O689   O     0.76605   0.06606   0.56870   0.00000  Uiso   1.00
H690   H     0.80738   0.06006   0.57050   0.00000  Uiso   1.00
O691   O     0.94058   0.17156   0.90774   0.00000  Uiso   1.00
H692   H     0.91899   0.13877   0.89448   0.00000  Uiso   1.00
O693   O     0.67150   0.21122   0.79350   0.00000  Uiso   1.00
H694   H     0.97059   0.22883   0.80927   0.00000  Uiso   1.00
O695   O     0.99513   0.12206   0.70654   0.00000  Uiso   1.00
H696   H     0.69602   0.10440   0.69080   0.00000  Uiso   1.00
C697   C     0.18177   0.60007   0.75136   0.00000  Uiso   1.00
C698   C     0.15155   0.39993   0.74868   0.00000  Uiso   1.00
C699   C     0.10913   0.42939   0.53212   0.00000  Uiso   1.00
C700   C     0.24855   0.50408   0.95284   0.00000  Uiso   1.00
C701   C     0.06316   0.41684   0.50699   0.00000  Uiso   1.00
C702   C     0.29096   0.52277   0.97950   0.00000  Uiso   1.00
C703   C     0.19015   0.65616   0.75198   0.00000  Uiso   1.00
C704   C     0.14314   0.34384   0.74812   0.00000  Uiso   1.00
C705   C     0.12816   0.49501   0.83325   0.00000  Uiso   1.00
C706   C     0.20514   0.50368   0.66660   0.00000  Uiso   1.00
C707   C     0.10476   0.48183   0.88024   0.00000  Uiso   1.00
C708   C     0.22919   0.50574   0.61815   0.00000  Uiso   1.00
C709   C     0.03163   0.42542   0.93781   0.00000  Uiso   1.00
C710   C     0.31599   0.52718   0.55296   0.00000  Uiso   1.00
C711   C     0.04785   0.44582   0.89506   0.00000  Uiso   1.00
C712   C     0.29364   0.52244   0.59908   0.00000  Uiso   1.00
C713   C     0.14549   0.49785   0.90820   0.00000  Uiso   1.00
C714   C     0.18730   0.48989   0.59079   0.00000  Uiso   1.00
C715   C     0.13593   0.47220   0.94797   0.00000  Uiso   1.00
C716   C     0.20873   0.48900   0.54442   0.00000  Uiso   1.00
C717   C     0.07622   0.43820   0.96465   0.00000  Uiso   1.00
C718   C     0.27244   0.51384   0.52550   0.00000  Uiso   1.00
C719   C     0.18379   0.48148   0.97204   0.00000  Uiso   1.00
C720   C     0.16673   0.46700   0.51682   0.00000  Uiso   1.00
Cu721  Cu    0.10737   0.49441   0.74517   0.00000  Uiso   1.00
Cu722  Cu    0.22596   0.50559   0.75483   0.00000  Uiso   1.00
H723   H     0.13737   0.47881   0.60603   0.00000  Uiso   1.00
H724   H     0.18592   0.52971   0.89753   0.00000  Uiso   1.00
H725   H     0.32661   0.53302   0.62014   0.00000  Uiso   1.00
H726   H     0.01658   0.43265   0.87302   0.00000  Uiso   1.00
H727   H     0.23534   0.34692   0.75558   0.00000  Uiso   1.00
H728   H     0.09795   0.65309   0.74453   0.00000  Uiso   1.00
N729   N     0.31506   0.51401   0.76212   0.00000  Uiso   1.00
N730   N     0.01827   0.48599   0.73788   0.00000  Uiso   1.00
O731   O     0.12815   0.57142   0.74686   0.00000  Uiso   1.00
O732   O     0.20518   0.42858   0.75314   0.00000  Uiso   1.00
O733   O     0.22829   0.58086   0.75503   0.00000  Uiso   1.00
O734   O     0.10504   0.41914   0.74497   0.00000  Uiso   1.00
O735   O     0.08851   0.49263   0.80855   0.00000  Uiso   1.00
O736   O     0.24482   0.50737   0.69145   0.00000  Uiso   1.00
O737   O     0.18866   0.50207   0.81671   0.00000  Uiso   1.00
O738   O     0.14468   0.49793   0.68329   0.00000  Uiso   1.00
O739   O     0.00584   0.38248   0.52278   0.00000  Uiso   1.00
H740   H     0.33296   0.37645   0.55465   0.00000  Uiso   1.00
O741   O     0.01703   0.55015   0.95908   0.00000  Uiso   1.00
H742   H     0.02602   0.58335   0.97664   0.00000  Uiso   1.00
O743   O     0.30696   0.39183   0.95291   0.00000  Uiso   1.00
H744   H     0.28170   0.38822   0.93049   0.00000  Uiso   1.00
O745   O     0.04669   0.54251   0.53444   0.00000  Uiso   1.00
H746   H     0.07003   0.54887   0.55815   0.00000  Uiso   1.00
O747   O     0.09939   0.39940   0.56870   0.00000  Uiso   1.00
H748   H     0.14071   0.39339   0.57050   0.00000  Uiso   1.00
O749   O     0.27391   0.50489   0.90774   0.00000  Uiso   1.00
H750   H     0.25232   0.47210   0.89448   0.00000  Uiso   1.00
O751   O     0.00483   0.54455   0.79350   0.00000  Uiso   1.00
H752   H     0.30393   0.56217   0.80927   0.00000  Uiso   1.00
O753   O     0.32847   0.45539   0.70654   0.00000  Uiso   1.00
H754   H     0.02935   0.43773   0.69080   0.00000  Uiso   1.00
C755   C     0.51510   0.60007   0.75136   0.00000  Uiso   1.00
C756   C     0.48488   0.39993   0.74868   0.00000  Uiso   1.00
C757   C     0.44246   0.42939   0.53212   0.00000  Uiso   1.00
C758   C     0.58188   0.50408   0.95284   0.00000  Uiso   1.00
C759   C     0.39650   0.41684   0.50699   0.00000  Uiso   1.00
C760   C     0.62430   0.52277   0.97950   0.00000  Uiso   1.00
C761   C     0.52348   0.65616   0.75198   0.00000  Uiso   1.00
C762   C     0.47647   0.34384   0.74812   0.00000  Uiso   1.00
C763   C     0.46149   0.49501   0.83325   0.00000  Uiso   1.00
C764   C     0.53848   0.50368   0.66660   0.00000  Uiso   1.00
C765   C     0.43809   0.48183   0.88024   0.00000  Uiso   1.00
C766   C     0.56252   0.50574   0.61815   0.00000  Uiso   1.00
C767   C     0.36496   0.42542   0.93781   0.00000  Uiso   1.00
C768   C     0.64932   0.52718   0.55296   0.00000  Uiso   1.00
C769   C     0.38118   0.44582   0.89506   0.00000  Uiso   1.00
C770   C     0.62697   0.52244   0.59908   0.00000  Uiso   1.00
C771   C     0.47882   0.49785   0.90820   0.00000  Uiso   1.00
C772   C     0.52063   0.48989   0.59079   0.00000  Uiso   1.00
C773   C     0.46927   0.47220   0.94797   0.00000  Uiso   1.00
C774   C     0.54206   0.48900   0.54442   0.00000  Uiso   1.00
C775   C     0.40955   0.43820   0.96465   0.00000  Uiso   1.00
C776   C     0.60578   0.51384   0.52550   0.00000  Uiso   1.00
C777   C     0.51712   0.48148   0.97204   0.00000  Uiso   1.00
C778   C     0.50006   0.46700   0.51682   0.00000  Uiso   1.00
Cu779  Cu    0.44071   0.49441   0.74517   0.00000  Uiso   1.00
Cu780  Cu    0.55929   0.50559   0.75483   0.00000  Uiso   1.00
H781   H     0.47070   0.47881   0.60603   0.00000  Uiso   1.00
H782   H     0.51926   0.52971   0.89753   0.00000  Uiso   1.00
H783   H     0.65994   0.53302   0.62014   0.00000  Uiso   1.00
H784   H     0.34992   0.43265   0.87302   0.00000  Uiso   1.00
H785   H     0.56867   0.34692   0.75558   0.00000  Uiso   1.00
H786   H     0.43128   0.65309   0.74453   0.00000  Uiso   1.00
N787   N     0.64839   0.51401   0.76212   0.00000  Uiso   1.00
N788   N     0.35161   0.48599   0.73788   0.00000  Uiso   1.00
O789   O     0.46148   0.57142   0.74686   0.00000  Uiso   1.00
O790   O     0.53852   0.42858   0.75314   0.00000  Uiso   1.00
O791   O     0.56163   0.58086   0.75503   0.00000  Uiso   1.00
O792   O     0.43837   0.41914   0.74497   0.00000  Uiso   1.00
O793   O     0.42185   0.49263   0.80855   0.00000  Uiso   1.00
O794   O     0.57815   0.50737   0.69145   0.00000  Uiso   1.00
O795   O     0.52199   0.50207   0.81671   0.00000  Uiso   1.00
O796   O     0.47801   0.49793   0.68329   0.00000  Uiso   1.00
O797   O     0.33917   0.38248   0.52278   0.00000  Uiso   1.00
H798   H     0.66629   0.37645   0.55465   0.00000  Uiso   1.00
O799   O     0.35036   0.55015   0.95908   0.00000  Uiso   1.00
H800   H     0.35935   0.58335   0.97664   0.00000  Uiso   1.00
O801   O     0.64029   0.39183   0.95291   0.00000  Uiso   1.00
H802   H     0.61503   0.38822   0.93049   0.00000  Uiso   1.00
O803   O     0.38002   0.54251   0.53444   0.00000  Uiso   1.00
H804   H     0.40337   0.54887   0.55815   0.00000  Uiso   1.00
O805   O     0.43272   0.39940   0.56870   0.00000  Uiso   1.00
H806   H     0.47405   0.39339   0.57050   0.00000  Uiso   1.00
O807   O     0.60725   0.50489   0.90774   0.00000  Uiso   1.00
H808   H     0.58565   0.47210   0.89448   0.00000  Uiso   1.00
O809   O     0.33817   0.54455   0.79350   0.00000  Uiso   1.00
H810   H     0.63726   0.56217   0.80927   0.00000  Uiso   1.00
O811   O     0.66180   0.45539   0.70654   0.00000  Uiso   1.00
H812   H     0.36268   0.43773   0.69080   0.00000  Uiso   1.00
C813   C     0.84843   0.60007   0.75136   0.00000  Uiso   1.00
C814   C     0.81822   0.39993   0.74868   0.00000  Uiso   1.00
C815   C     0.77579   0.42939   0.53212   0.00000  Uiso   1.00
C816   C     0.91521   0.50408   0.95284   0.00000  Uiso   1.00
C817   C     0.72983   0.41684   0.50699   0.00000  Uiso   1.00
C818   C     0.95763   0.52277   0.97950   0.00000  Uiso   1.00
C819   C     0.85682   0.65616   0.75198   0.00000  Uiso   1.00
C820   C     0.80980   0.34384   0.74812   0.00000  Uiso   1.00
C821   C     0.79482   0.49501   0.83325   0.00000  Uiso   1.00
C822   C     0.87181   0.50368   0.66660   0.00000  Uiso   1.00
C823   C     0.77143   0.48183   0.88024   0.00000  Uiso   1.00
C824   C     0.89585   0.50574   0.61815   0.00000  Uiso   1.00
C825   C     0.69829   0.42542   0.93781   0.00000  Uiso   1.00
C826   C     0.98265   0.52718   0.55296   0.00000  Uiso   1.00
C827   C     0.71451   0.44582   0.89506   0.00000  Uiso   1.00
C828   C     0.96031   0.52244   0.59908   0.00000  Uiso   1.00
C829   C     0.81215   0.49785   0.90820   0.00000  Uiso   1.00
C830   C     0.85396   0.48989   0.59079   0.00000  Uiso   1.00
C831   C     0.80260   0.47220   0.94797   0.00000  Uiso   1.00
C832   C     0.87539   0.48900   0.54442   0.00000  Uiso   1.00
C833   C     0.74288   0.43820   0.96465   0.00000  Uiso   1.00
C834   C     0.93911   0.51384   0.52550   0.00000  Uiso   1.00
C835   C     0.85046   0.48148   0.97204   0.00000  Uiso   1.00
C836   C     0.83339   0.46700   0.51682   0.00000  Uiso   1.00
Cu837  Cu    0.77404   0.49441   0.74517   0.00000  Uiso   1.00
Cu838  Cu    0.89263   0.50559   0.75483   0.00000  Uiso   1.00
H839   H     0.80403   0.47881   0.60603   0.00000  Uiso   1.00
H840   H     0.85259   0.52971   0.89753   0.00000  Uiso   1.00
H841   H     0.99328   0.53302   0.62014   0.00000  Uiso   1.00
H842   H     0.68325   0.43265   0.87302   0.00000  Uiso   1.00
H843   H     0.90200   0.34692   0.75558   0.00000  Uiso   1.00
H844   H     0.76461   0.65309   0.74453   0.00000  Uiso   1.00
N845   N     0.98173   0.51401   0.76212   0.00000  Uiso   1.00
N846   N     0.68494   0.48599   0.73788   0.00000  Uiso   1.00
O847   O     0.79482   0.57142   0.74686   0.00000  Uiso   1.00
O848   O     0.87185   0.42858   0.75314   0.00000  Uiso   1.00
O849   O     0.89496   0.58086   0.75503   0.00000  Uiso   1.00
O850   O     0.77171   0.41914   0.74497   0.00000  Uiso   1.00
O851   O     0.75518   0.49263   0.80855   0.00000  Uiso   1.00
O852   O     0.91149   0.50737   0.69145   0.00000  Uiso   1.00
O853   O     0.85532   0.50207   0.81671   0.00000  Uiso   1.00
O854   O     0.81134   0.49793   0.68329   0.00000  Uiso   1.00
O855   O     0.67251   0.38248   0.52278   0.00000  Uiso   1.00
H856   H     0.99962   0.37645   0.55465   0.00000  Uiso   1.00
O857   O     0.68370   0.55015   0.95908   0.00000  Uiso   1.00
H858   H     0.69268   0.58335   0.97664   0.00000  Uiso   1.00
O859   O     0.97363   0.39183   0.95291   0.00000  Uiso   1.00
H860   H     0.94837   0.38822   0.93049   0.00000  Uiso   1.00
O861   O     0.71335   0.54251   0.53444   0.00000  Uiso   1.00
H862   H     0.73670   0.54887   0.55815   0.00000  Uiso   1.00
O863   O     0.76605   0.39940   0.56870   0.00000  Uiso   1.00
H864   H     0.80738   0.39339   0.57050   0.00000  Uiso   1.00
O865   O     0.94058   0.50489   0.90774   0.00000  Uiso   1.00
H866   H     0.91899   0.47210   0.89448   0.00000  Uiso   1.00
O867   O     0.67150   0.54455   0.79350   0.00000  Uiso   1.00
H868   H     0.97059   0.56217   0.80927   0.00000  Uiso   1.00
O869   O     0.99513   0.45539   0.70654   0.00000  Uiso   1.00
H870   H     0.69602   0.43773   0.69080   0.00000  Uiso   1.00
C871   C     0.18177   0.93340   0.75136   0.00000  Uiso   1.00
C872   C     0.15155   0.73327   0.74868   0.00000  Uiso   1.00
C873   C     0.10913   0.76273   0.53212   0.00000  Uiso   1.00
C874   C     0.24855   0.83741   0.95284   0.00000  Uiso   1.00
C875   C     0.06316   0.75017   0.50699   0.00000  Uiso   1.00
C876   C     0.29096   0.85610   0.97950   0.00000  Uiso   1.00
C877   C     0.19015   0.98949   0.75198   0.00000  Uiso   1.00
C878   C     0.14314   0.67718   0.74812   0.00000  Uiso   1.00
C879   C     0.12816   0.82835   0.83325   0.00000  Uiso   1.00
C880   C     0.20514   0.83702   0.66660   0.00000  Uiso   1.00
C881   C     0.10476   0.81516   0.88024   0.00000  Uiso   1.00
C882   C     0.22919   0.83907   0.61815   0.00000  Uiso   1.00
C883   C     0.03163   0.75876   0.93781   0.00000  Uiso   1.00
C884   C     0.31599   0.86051   0.55296   0.00000  Uiso   1.00
C885   C     0.04785   0.77916   0.89506   0.00000  Uiso   1.00
C886   C     0.29364   0.85577   0.59908   0.00000  Uiso   1.00
C887   C     0.14549   0.83119   0.90820   0.00000  Uiso   1.00
C888   C     0.18730   0.82322   0.59079   0.00000  Uiso   1.00
C889   C     0.13593   0.80554   0.94797   0.00000  Uiso   1.00
C890   C     0.20873   0.82234   0.54442   0.00000  Uiso   1.00
C891   C     0.07622   0.77153   0.96465   0.00000  Uiso   1.00
C892   C     0.27244   0.84717   0.52550   0.00000  Uiso   1.00
C893   C     0.18379   0.81482   0.97204   0.00000  Uiso   1.00
C894   C     0.16673   0.80034   0.51682   0.00000  Uiso   1.00
Cu895  Cu    0.10737   0.82775   0.74517   0.00000  Uiso   1.00
Cu896  Cu    0.22596   0.83892   0.75483   0.00000  Uiso   1.00
H897   H     0.13737   0.81215   0.60603   0.00000  Uiso   1.00
H898   H     0.18592   0.86305   0.89753   0.00000  Uiso   1.00
H899   H     0.32661   0.86635   0.62014   0.00000  Uiso   1.00
H900   H     0.01658   0.76599   0.87302   0.00000  Uiso   1.00
H901   H     0.23534   0.68025   0.75558   0.00000  Uiso   1.00
H902   H     0.09795   0.98642   0.74453   0.00000  Uiso   1.00
N903   N     0.31506   0.84735   0.76212   0.00000  Uiso   1.00
N904   N     0.01827   0.81932   0.73788   0.00000  Uiso   1.00
O905   O     0.12815   0.90476   0.74686   0.00000  Uiso   1.00
O906   O     0.20518   0.76191   0.75314   0.00000  Uiso   1.00
O907   O     0.22829   0.91420   0.75503   0.00000  Uiso   1.00
O908   O     0.10504   0.75247   0.74497   0.00000  Uiso   1.00
O909   O     0.08851   0.82597   0.80855   0.00000  Uiso   1.00
O910   O     0.24482   0.84070   0.69145   0.00000  Uiso   1.00
O911   O     0.18866   0.83540   0.81671   0.00000  Uiso   1.00
O912   O     0.14468   0.83126   0.68329   0.00000  Uiso   1.00
O913   O     0.00584   0.71581   0.52278   0.00000  Uiso   1.00
H914   H     0.33296   0.70978   0.55465   0.00000  Uiso   1.00
O915   O     0.01703   0.88349   0.95908   0.00000  Uiso   1.00
H916   H     0.02602   0.91668   0.97664   0.00000  Uiso   1.00
O917   O     0.30696   0.72516   0.95291   0.00000  Uiso   1.00
H918   H     0.28170   0.72156   0.93049   0.00000  Uiso   1.00
O919   O     0.04669   0.87585   0.53444   0.00000  Uiso   1.00
H920   H     0.07003   0.88220   0.55815   0.00000  Uiso   1.00
O921   O     0.09939   0.73273   0.56870   0.00000  Uiso   1.00
H922   H     0.14071   0.72672   0.57050   0.00000  Uiso   1.00
O923   O     0.27391   0.83822   0.90774   0.00000  Uiso   1.00
H924   H     0.25232   0.80544   0.89448   0.00000  Uiso   1.00
O925   O     0.00483   0.87788   0.79350   0.00000  Uiso   1.00
H926   H     0.30393   0.89550   0.80927   0.00000  Uiso   1.00
O927   O     0.32847   0.78872   0.70654   0.00000  Uiso   1.00
H928   H     0.02935   0.77107   0.69080   0.00000  Uiso   1.00
C929   C     0.51510   0.93340   0.75136   0.00000  Uiso   1.00
C930   C     0.48488   0.73327   0.74868   0.00000  Uiso   1.00
C931   C     0.44246   0.76273   0.53212   0.00000  Uiso   1.00
C932   C     0.58188   0.83741   0.95284   0.00000  Uiso   1.00
C933   C     0.39650   0.75017   0.50699   0.00000  Uiso   1.00
C934   C     0.62430   0.85610   0.97950   0.00000  Uiso   1.00
C935   C     0.52348   0.98949   0.75198   0.00000  Uiso   1.00
C936   C     0.47647   0.67718   0.74812   0.00000  Uiso   1.00
C937   C     0.46149   0.82835   0.83325   0.00000  Uiso   1.00
C938   C     0.53848   0.83702   0.66660   0.00000  Uiso   1.00
C939   C     0.43809   0.81516   0.88024   0.00000  Uiso   1.00
C940   C     0.56252   0.83907   0.61815   0.00000  Uiso   1.00
C941   C     0.36496   0.75876   0.93781   0.00000  Uiso   1.00
C942   C     0.64932   0.86051   0.55296   0.00000  Uiso   1.00
C943   C     0.38118   0.77916   0.89506   0.00000  Uiso   1.00
C944   C     0.62697   0.85577   0.59908   0.00000  Uiso   1.00
C945   C     0.47882   0.83119   0.90820   0.00000  Uiso   1.00
C946   C     0.52063   0.82322   0.59079   0.00000  Uiso   1.00
C947   C     0.46927   0.80554   0.94797   0.00000  Uiso   1.00
C948   C     0.54206   0.82234   0.54442   0.00000  Uiso   1.00
C949   C     0.40955   0.77153   0.96465   0.00000  Uiso   1.00
C950   C     0.60578   0.84717   0.52550   0.00000  Uiso   1.00
C951   C     0.51712   0.81482   0.97204   0.00000  Uiso   1.00
C952   C     0.50006   0.80034   0.51682   0.00000  Uiso   1.00
Cu953  Cu    0.44071   0.82775   0.74517   0.00000  Uiso   1.00
Cu954  Cu    0.55929   0.83892   0.75483   0.00000  Uiso   1.00
H955   H     0.47070   0.81215   0.60603   0.00000  Uiso   1.00
H956   H     0.51926   0.86305   0.89753   0.00000  Uiso   1.00
H957   H     0.65994   0.86635   0.62014   0.00000  Uiso   1.00
H958   H     0.34992   0.76599   0.87302   0.00000  Uiso   1.00
H959   H     0.56867   0.68025   0.75558   0.00000  Uiso   1.00
H960   H     0.43128   0.98642   0.74453   0.00000  Uiso   1.00
N961   N     0.64839   0.84735   0.76212   0.00000  Uiso   1.00
N962   N     0.35161   0.81932   0.73788   0.00000  Uiso   1.00
O963   O     0.46148   0.90476   0.74686   0.00000  Uiso   1.00
O964   O     0.53852   0.76191   0.75314   0.00000  Uiso   1.00
O965   O     0.56163   0.91420   0.75503   0.00000  Uiso   1.00
O966   O     0.43837   0.75247   0.74497   0.00000  Uiso   1.00
O967   O     0.42185   0.82597   0.80855   0.00000  Uiso   1.00
O968   O     0.57815   0.84070   0.69145   0.00000  Uiso   1.00
O969   O     0.52199   0.83540   0.81671   0.00000  Uiso   1.00
O970   O     0.47801   0.83126   0.68329   0.00000  Uiso   1.00
O971   O     0.33917   0.71581   0.52278   0.00000  Uiso   1.00
H972   H     0.66629   0.70978   0.55465   0.00000  Uiso   1.00
O973   O     0.35036   0.88349   0.95908   0.00000  Uiso   1.00
H974   H     0.35935   0.91668   0.97664   0.00000  Uiso   1.00
O975   O     0.64029   0.72516   0.95291   0.00000  Uiso   1.00
H976   H     0.61503   0.72156   0.93049   0.00000  Uiso   1.00
O977   O     0.38002   0.87585   0.53444   0.00000  Uiso   1.00
H978   H     0.40337   0.88220   0.55815   0.00000  Uiso   1.00
O979   O     0.43272   0.73273   0.56870   0.00000  Uiso   1.00
H980   H     0.47405   0.72672   0.57050   0.00000  Uiso   1.00
O981   O     0.60725   0.83822   0.90774   0.00000  Uiso   1.00
H982   H     0.58565   0.80544   0.89448   0.00000  Uiso   1.00
O983   O     0.33817   0.87788   0.79350   0.00000  Uiso   1.00
H984   H     0.63726   0.89550   0.80927   0.00000  Uiso   1.00
O985   O     0.66180   0.78872   0.70654   0.00000  Uiso   1.00
H986   H     0.36268   0.77107   0.69080   0.00000  Uiso   1.00
C987   C     0.84843   0.93340   0.75136   0.00000  Uiso   1.00
C988   C     0.81822   0.73327   0.74868   0.00000  Uiso   1.00
C989   C     0.77579   0.76273   0.53212   0.00000  Uiso   1.00
C990   C     0.91521   0.83741   0.95284   0.00000  Uiso   1.00
C991   C     0.72983   0.75017   0.50699   0.00000  Uiso   1.00
C992   C     0.95763   0.85610   0.97950   0.00000  Uiso   1.00
C993   C     0.85682   0.98949   0.75198   0.00000  Uiso   1.00
C994   C     0.80980   0.67718   0.74812   0.00000  Uiso   1.00
C995   C     0.79482   0.82835   0.83325   0.00000  Uiso   1.00
C996   C     0.87181   0.83702   0.66660   0.00000  Uiso   1.00
C997   C     0.77143   0.81516   0.88024   0.00000  Uiso   1.00
C998   C     0.89585   0.83907   0.61815   0.00000  Uiso   1.00
C999   C     0.69829   0.75876   0.93781   0.00000  Uiso   1.00
C1000  C     0.98265   0.86051   0.55296   0.00000  Uiso   1.00
C1001  C     0.71451   0.77916   0.89506   0.00000  Uiso   1.00
C1002  C     0.96031   0.85577   0.59908   0.00000  Uiso   1.00
C1003  C     0.81215   0.83119   0.90820   0.00000  Uiso   1.00
C1004  C     0.85396   0.82322   0.59079   0.00000  Uiso   1.00
C1005  C     0.80260   0.80554   0.94797   0.00000  Uiso   1.00
C1006  C     0.87539   0.82234   0.54442   0.00000  Uiso   1.00
C1007  C     0.74288   0.77153   0.96465   0.00000  Uiso   1.00
C1008  C     0.93911   0.84717   0.52550   0.00000  Uiso   1.00
C1009  C     0.85046   0.81482   0.97204   0.00000  Uiso   1.00
C1010  C     0.83339   0.80034   0.51682   0.00000  Uiso   1.00
Cu1011 Cu    0.77404   0.82775   0.74517   0.00000  Uiso   1.00
Cu1012 Cu    0.89263   0.83892   0.75483   0.00000  Uiso   1.00
H1013  H     0.80403   0.81215   0.60603   0.00000  Uiso   1.00
H1014  H     0.85259   0.86305   0.89753   0.00000  Uiso   1.00
H1015  H     0.99328   0.86635   0.62014   0.00000  Uiso   1.00
H1016  H     0.68325   0.76599   0.87302   0.00000  Uiso   1.00
H1017  H     0.90200   0.68025   0.75558   0.00000  Uiso   1.00
H1018  H     0.76461   0.98642   0.74453   0.00000  Uiso   1.00
N1019  N     0.98173   0.84735   0.76212   0.00000  Uiso   1.00
N1020  N     0.68494   0.81932   0.73788   0.00000  Uiso   1.00
O1021  O     0.79482   0.90476   0.74686   0.00000  Uiso   1.00
O1022  O     0.87185   0.76191   0.75314   0.00000  Uiso   1.00
O1023  O     0.89496   0.91420   0.75503   0.00000  Uiso   1.00
O1024  O     0.77171   0.75247   0.74497   0.00000  Uiso   1.00
O1025  O     0.75518   0.82597   0.80855   0.00000  Uiso   1.00
O1026  O     0.91149   0.84070   0.69145   0.00000  Uiso   1.00
O1027  O     0.85532   0.83540   0.81671   0.00000  Uiso   1.00
O1028  O     0.81134   0.83126   0.68329   0.00000  Uiso   1.00
O1029  O     0.67251   0.71581   0.52278   0.00000  Uiso   1.00
H1030  H     0.99962   0.70978   0.55465   0.00000  Uiso   1.00
O1031  O     0.68370   0.88349   0.95908   0.00000  Uiso   1.00
H1032  H     0.69268   0.91668   0.97664   0.00000  Uiso   1.00
O1033  O     0.97363   0.72516   0.95291   0.00000  Uiso   1.00
H1034  H     0.94837   0.72156   0.93049   0.00000  Uiso   1.00
O1035  O     0.71335   0.87585   0.53444   0.00000  Uiso   1.00
H1036  H     0.73670   0.88220   0.55815   0.00000  Uiso   1.00
O1037  O     0.76605   0.73273   0.56870   0.00000  Uiso   1.00
H1038  H     0.80738   0.72672   0.57050   0.00000  Uiso   1.00
O1039  O     0.94058   0.83822   0.90774   0.00000  Uiso   1.00
H1040  H     0.91899   0.80544   0.89448   0.00000  Uiso   1.00
O1041  O     0.67150   0.87788   0.79350   0.00000  Uiso   1.00
H1042  H     0.97059   0.89550   0.80927   0.00000  Uiso   1.00
O1043  O     0.99513   0.78872   0.70654   0.00000  Uiso   1.00
H1044  H     0.69602   0.77107   0.69080   0.00000  Uiso   1.00
loop_
_geom_bond_atom_site_label_1
_geom_bond_atom_site_label_2
_geom_bond_distance
_geom_bond_site_symmetry_2
_ccdc_geom_bond_type
C1     O37     1.291   .     A
C1     C7      1.429   .     S
C1     O35     1.293   .     A
C2     O38     1.291   .     A
C2     O36     1.293   .     A
C2     C8      1.429   .     S
C3     O51     1.382   .     S
C3     C24     1.427   .     A
C3     C5      1.411   .     A
C4     O53     1.379   .     S
C4     C6      1.396   .     A
C4     C23     1.428   .     A
C5     O43     1.385   .     S
C5     C543    1.413   1_554 S
C6     C544    1.414   .     S
C6     O103    1.378   .     S
C7     C182    1.331   .     S
C7     H205    1.088   .     S
C8     C355    1.331   1_545 S
C8     H380    1.088   1_545 S
C9     O41     1.300   .     A
C9     C11     1.469   .     S
C9     O39     1.304   .     A
C10    O42     1.303   .     A
C10    C12     1.473   .     S
C10    O40     1.303   .     A
C11    C17     1.390   .     A
C11    C15     1.394   .     A
C12    C18     1.395   .     A
C12    C16     1.397   .     A
C13    C21     1.426   .     A
C13    C15     1.407   .     A
C13    O163    1.383   1_455 S
C14    C22     1.422   .     A
C14    C16     1.406   .     A
C14    O107    1.383   .     S
C15    H30     1.083   .     S
C16    H29     1.083   .     S
C17    C19     1.405   .     A
C17    H28     1.080   .     S
C18    C20     1.406   .     A
C18    H27     1.081   .     S
C19    C23     1.425   .     A
C19    C21     1.423   .     A
C20    C22     1.421   .     A
C20    C24     1.425   .     A
C21    C527    1.413   .     S
C22    C528    1.414   1_554 S
C23    C546    1.412   .     S
C24    C545    1.412   1_554 S
Cu25   O42     1.902   .     S
Cu25   O38     1.950   .     S
Cu25   N34     2.028   .     S
Cu25   Cu26    2.699   .     S
Cu25   O39     1.918   .     S
Cu25   O35     1.951   .     S
Cu26   O37     1.950   .     S
Cu26   N33     2.028   .     S
Cu26   O40     1.918   .     S
Cu26   O36     1.951   .     S
Cu26   O41     1.902   .     S
H31    C355    1.088   1_545 S
H32    C182    1.088   .     S
N33    N92     1.285   .     S
N33    O113    1.338   .     S
N34    N149    1.285   1_455 S
N34    O173    1.338   1_455 S
O43    H160    0.990   1_455 S
H44    O101    0.990   .     S
O45    H46     0.991   .     S
O45    C122    1.378   1_455 S
O47    H48     0.992   .     S
O47    C71     1.383   .     S
O49    H50     0.992   .     S
O49    C130    1.383   1_455 S
O51    H52     0.992   .     S
O53    H54     0.992   .     S
O55    N149    1.338   1_455 S
O55    H172    0.990   1_455 S
H56    O113    0.990   .     S
O57    N92     1.338   .     S
O57    H116    0.990   .     S
H58    O173    0.990   1_455 S
C59    O95     1.291   .     A
C59    C65     1.429   .     S
C59    O93     1.293   .     A
C60    O96     1.291   .     A
C60    O94     1.293   .     A
C60    C66     1.429   .     S
C61    O109    1.382   .     S
C61    C82     1.427   .     A
C61    C63     1.411   .     A
C62    O111    1.379   .     S
C62    C64     1.396   .     A
C62    C81     1.428   .     A
C63    O101    1.385   .     S
C63    C601    1.413   1_554 S
C64    C602    1.414   .     S
C64    O161    1.378   .     S
C65    C240    1.331   .     S
C65    H263    1.088   .     S
C66    C413    1.331   1_545 S
C66    H438    1.088   1_545 S
C67    O99     1.300   .     A
C67    C69     1.469   .     S
C67    O97     1.304   .     A
C68    O100    1.303   .     A
C68    C70     1.473   .     S
C68    O98     1.303   .     A
C69    C75     1.390   .     A
C69    C73     1.394   .     A
C70    C76     1.395   .     A
C70    C74     1.397   .     A
C71    C79     1.426   .     A
C71    C73     1.407   .     A
C72    C80     1.422   .     A
C72    C74     1.406   .     A
C72    O165    1.383   .     S
C73    H88     1.083   .     S
C74    H87     1.083   .     S
C75    C77     1.405   .     A
C75    H86     1.080   .     S
C76    C78     1.406   .     A
C76    H85     1.081   .     S
C77    C81     1.425   .     A
C77    C79     1.423   .     A
C78    C80     1.421   .     A
C78    C82     1.425   .     A
C79    C585    1.413   .     S
C80    C586    1.414   1_554 S
C81    C604    1.412   .     S
C82    C603    1.412   1_554 S
Cu83   O100    1.902   .     S
Cu83   O96     1.950   .     S
Cu83   N92     2.028   .     S
Cu83   Cu84    2.699   .     S
Cu83   O97     1.918   .     S
Cu83   O93     1.951   .     S
Cu84   O95     1.950   .     S
Cu84   N91     2.028   .     S
Cu84   O98     1.918   .     S
Cu84   O94     1.951   .     S
Cu84   O99     1.902   .     S
H89    C413    1.088   1_545 S
H90    C240    1.088   .     S
N91    N150    1.285   .     S
N91    O171    1.338   .     S
H102   O159    0.990   .     S
O103   H104    0.991   .     S
O105   H106    0.992   .     S
O105   C129    1.383   .     S
O107   H108    0.992   .     S
O109   H110    0.992   .     S
O111   H112    0.992   .     S
H114   O171    0.990   .     S
O115   N150    1.338   .     S
O115   H174    0.990   .     S
C117   O153    1.291   .     A
C117   C123    1.429   .     S
C117   O151    1.293   .     A
C118   O154    1.291   .     A
C118   O152    1.293   .     A
C118   C124    1.429   .     S
C119   O167    1.382   .     S
C119   C140    1.427   .     A
C119   C121    1.411   .     A
C120   O169    1.379   .     S
C120   C122    1.396   .     A
C120   C139    1.428   .     A
C121   O159    1.385   .     S
C121   C659    1.413   1_554 S
C122   C660    1.414   .     S
C122   O45     1.378   1_655 S
C123   C298    1.331   .     S
C123   H321    1.088   .     S
C124   C471    1.331   1_545 S
C124   H496    1.088   1_545 S
C125   O157    1.300   .     A
C125   C127    1.469   .     S
C125   O155    1.304   .     A
C126   O158    1.303   .     A
C126   C128    1.473   .     S
C126   O156    1.303   .     A
C127   C133    1.390   .     A
C127   C131    1.394   .     A
C128   C134    1.395   .     A
C128   C132    1.397   .     A
C129   C137    1.426   .     A
C129   C131    1.407   .     A
C130   C138    1.422   .     A
C130   C132    1.406   .     A
C130   O49     1.383   1_655 S
C131   H146    1.083   .     S
C132   H145    1.083   .     S
C133   C135    1.405   .     A
C133   H144    1.080   .     S
C134   C136    1.406   .     A
C134   H143    1.081   .     S
C135   C139    1.425   .     A
C135   C137    1.423   .     A
C136   C138    1.421   .     A
C136   C140    1.425   .     A
C137   C643    1.413   .     S
C138   C644    1.414   1_554 S
C139   C662    1.412   .     S
C140   C661    1.412   1_554 S
Cu141  O158    1.902   .     S
Cu141  O154    1.950   .     S
Cu141  N150    2.028   .     S
Cu141  Cu142   2.699   .     S
Cu141  O155    1.918   .     S
Cu141  O151    1.951   .     S
Cu142  O153    1.950   .     S
Cu142  N149    2.028   .     S
Cu142  O156    1.918   .     S
Cu142  O152    1.951   .     S
Cu142  O157    1.902   .     S
H147   C471    1.088   1_545 S
H148   C298    1.088   .     S
N149   N34     1.285   1_655 S
N149   O55     1.338   1_655 S
H160   O43     0.990   1_655 S
O161   H162    0.991   .     S
O163   H164    0.992   .     S
O163   C13     1.383   1_655 S
O165   H166    0.992   .     S
O167   H168    0.992   .     S
O169   H170    0.992   .     S
H172   O55     0.990   1_655 S
O173   N34     1.338   1_655 S
O173   H58     0.990   1_655 S
C175   O211    1.291   .     A
C175   C181    1.429   .     S
C175   O209    1.293   .     A
C176   O212    1.291   .     A
C176   O210    1.293   .     A
C176   C182    1.429   .     S
C177   O225    1.382   .     S
C177   C198    1.427   .     A
C177   C179    1.411   .     A
C178   O227    1.379   .     S
C178   C180    1.396   .     A
C178   C197    1.428   .     A
C179   O217    1.385   .     S
C179   C717    1.413   1_554 S
C180   C718    1.414   .     S
C180   O277    1.378   .     S
C181   C356    1.331   .     S
C181   H379    1.088   .     S
C183   O215    1.300   .     A
C183   C185    1.469   .     S
C183   O213    1.304   .     A
C184   O216    1.303   .     A
C184   C186    1.473   .     S
C184   O214    1.303   .     A
C185   C191    1.390   .     A
C185   C189    1.394   .     A
C186   C192    1.395   .     A
C186   C190    1.397   .     A
C187   C195    1.426   .     A
C187   C189    1.407   .     A
C187   O337    1.383   1_455 S
C188   C196    1.422   .     A
C188   C190    1.406   .     A
C188   O281    1.383   .     S
C189   H204    1.083   .     S
C190   H203    1.083   .     S
C191   C193    1.405   .     A
C191   H202    1.080   .     S
C192   C194    1.406   .     A
C192   H201    1.081   .     S
C193   C197    1.425   .     A
C193   C195    1.423   .     A
C194   C196    1.421   .     A
C194   C198    1.425   .     A
C195   C701    1.413   .     S
C196   C702    1.414   1_554 S
C197   C720    1.412   .     S
C198   C719    1.412   1_554 S
Cu199  O216    1.902   .     S
Cu199  O212    1.950   .     S
Cu199  N208    2.028   .     S
Cu199  Cu200   2.699   .     S
Cu199  O213    1.918   .     S
Cu199  O209    1.951   .     S
Cu200  O211    1.950   .     S
Cu200  N207    2.028   .     S
Cu200  O214    1.918   .     S
Cu200  O210    1.951   .     S
Cu200  O215    1.902   .     S
H206   C356    1.088   .     S
N207   N266    1.285   .     S
N207   O287    1.338   .     S
N208   N323    1.285   1_455 S
N208   O347    1.338   1_455 S
O217   H334    0.990   1_455 S
H218   O275    0.990   .     S
O219   H220    0.991   .     S
O219   C296    1.378   1_455 S
O221   H222    0.992   .     S
O221   C245    1.383   .     S
O223   H224    0.992   .     S
O223   C304    1.383   1_455 S
O225   H226    0.992   .     S
O227   H228    0.992   .     S
O229   N323    1.338   1_455 S
O229   H346    0.990   1_455 S
H230   O287    0.990   .     S
O231   N266    1.338   .     S
O231   H290    0.990   .     S
H232   O347    0.990   1_455 S
C233   O269    1.291   .     A
C233   C239    1.429   .     S
C233   O267    1.293   .     A
C234   O270    1.291   .     A
C234   O268    1.293   .     A
C234   C240    1.429   .     S
C235   O283    1.382   .     S
C235   C256    1.427   .     A
C235   C237    1.411   .     A
C236   O285    1.379   .     S
C236   C238    1.396   .     A
C236   C255    1.428   .     A
C237   O275    1.385   .     S
C237   C775    1.413   1_554 S
C238   C776    1.414   .     S
C238   O335    1.378   .     S
C239   C414    1.331   .     S
C239   H437    1.088   .     S
C241   O273    1.300   .     A
C241   C243    1.469   .     S
C241   O271    1.304   .     A
C242   O274    1.303   .     A
C242   C244    1.473   .     S
C242   O272    1.303   .     A
C243   C249    1.390   .     A
C243   C247    1.394   .     A
C244   C250    1.395   .     A
C244   C248    1.397   .     A
C245   C253    1.426   .     A
C245   C247    1.407   .     A
C246   C254    1.422   .     A
C246   C248    1.406   .     A
C246   O339    1.383   .     S
C247   H262    1.083   .     S
C248   H261    1.083   .     S
C249   C251    1.405   .     A
C249   H260    1.080   .     S
C250   C252    1.406   .     A
C250   H259    1.081   .     S
C251   C255    1.425   .     A
C251   C253    1.423   .     A
C252   C254    1.421   .     A
C252   C256    1.425   .     A
C253   C759    1.413   .     S
C254   C760    1.414   1_554 S
C255   C778    1.412   .     S
C256   C777    1.412   1_554 S
Cu257  O274    1.902   .     S
Cu257  O270    1.950   .     S
Cu257  N266    2.028   .     S
Cu257  Cu258   2.699   .     S
Cu257  O271    1.918   .     S
Cu257  O267    1.951   .     S
Cu258  O269    1.950   .     S
Cu258  N265    2.028   .     S
Cu258  O272    1.918   .     S
Cu258  O268    1.951   .     S
Cu258  O273    1.902   .     S
H264   C414    1.088   .     S
N265   N324    1.285   .     S
N265   O345    1.338   .     S
H276   O333    0.990   .     S
O277   H278    0.991   .     S
O279   H280    0.992   .     S
O279   C303    1.383   .     S
O281   H282    0.992   .     S
O283   H284    0.992   .     S
O285   H286    0.992   .     S
H288   O345    0.990   .     S
O289   N324    1.338   .     S
O289   H348    0.990   .     S
C291   O327    1.291   .     A
C291   C297    1.429   .     S
C291   O325    1.293   .     A
C292   O328    1.291   .     A
C292   O326    1.293   .     A
C292   C298    1.429   .     S
C293   O341    1.382   .     S
C293   C314    1.427   .     A
C293   C295    1.411   .     A
C294   O343    1.379   .     S
C294   C296    1.396   .     A
C294   C313    1.428   .     A
C295   O333    1.385   .     S
C295   C833    1.413   1_554 S
C296   C834    1.414   .     S
C296   O219    1.378   1_655 S
C297   C472    1.331   .     S
C297   H495    1.088   .     S
C299   O331    1.300   .     A
C299   C301    1.469   .     S
C299   O329    1.304   .     A
C300   O332    1.303   .     A
C300   C302    1.473   .     S
C300   O330    1.303   .     A
C301   C307    1.390   .     A
C301   C305    1.394   .     A
C302   C308    1.395   .     A
C302   C306    1.397   .     A
C303   C311    1.426   .     A
C303   C305    1.407   .     A
C304   C312    1.422   .     A
C304   C306    1.406   .     A
C304   O223    1.383   1_655 S
C305   H320    1.083   .     S
C306   H319    1.083   .     S
C307   C309    1.405   .     A
C307   H318    1.080   .     S
C308   C310    1.406   .     A
C308   H317    1.081   .     S
C309   C313    1.425   .     A
C309   C311    1.423   .     A
C310   C312    1.421   .     A
C310   C314    1.425   .     A
C311   C817    1.413   .     S
C312   C818    1.414   1_554 S
C313   C836    1.412   .     S
C314   C835    1.412   1_554 S
Cu315  O332    1.902   .     S
Cu315  O328    1.950   .     S
Cu315  N324    2.028   .     S
Cu315  Cu316   2.699   .     S
Cu315  O329    1.918   .     S
Cu315  O325    1.951   .     S
Cu316  O327    1.950   .     S
Cu316  N323    2.028   .     S
Cu316  O330    1.918   .     S
Cu316  O326    1.951   .     S
Cu316  O331    1.902   .     S
H322   C472    1.088   .     S
N323   N208    1.285   1_655 S
N323   O229    1.338   1_655 S
H334   O217    0.990   1_655 S
O335   H336    0.991   .     S
O337   H338    0.992   .     S
O337   C187    1.383   1_655 S
O339   H340    0.992   .     S
O341   H342    0.992   .     S
O343   H344    0.992   .     S
H346   O229    0.990   1_655 S
O347   N208    1.338   1_655 S
O347   H232    0.990   1_655 S
C349   O385    1.291   .     A
C349   C355    1.429   .     S
C349   O383    1.293   .     A
C350   O386    1.291   .     A
C350   O384    1.293   .     A
C350   C356    1.429   .     S
C351   O399    1.382   .     S
C351   C372    1.427   .     A
C351   C353    1.411   .     A
C352   O401    1.379   .     S
C352   C354    1.396   .     A
C352   C371    1.428   .     A
C353   O391    1.385   .     S
C353   C891    1.413   1_554 S
C354   C892    1.414   .     S
C354   O451    1.378   .     S
C355   C8      1.331   1_565 S
C355   H31     1.088   1_565 S
C357   O389    1.300   .     A
C357   C359    1.469   .     S
C357   O387    1.304   .     A
C358   O390    1.303   .     A
C358   C360    1.473   .     S
C358   O388    1.303   .     A
C359   C365    1.390   .     A
C359   C363    1.394   .     A
C360   C366    1.395   .     A
C360   C364    1.397   .     A
C361   C369    1.426   .     A
C361   C363    1.407   .     A
C361   O511    1.383   1_455 S
C362   C370    1.422   .     A
C362   C364    1.406   .     A
C362   O455    1.383   .     S
C363   H378    1.083   .     S
C364   H377    1.083   .     S
C365   C367    1.405   .     A
C365   H376    1.080   .     S
C366   C368    1.406   .     A
C366   H375    1.081   .     S
C367   C371    1.425   .     A
C367   C369    1.423   .     A
C368   C370    1.421   .     A
C368   C372    1.425   .     A
C369   C875    1.413   .     S
C370   C876    1.414   1_554 S
C371   C894    1.412   .     S
C372   C893    1.412   1_554 S
Cu373  O390    1.902   .     S
Cu373  O386    1.950   .     S
Cu373  N382    2.028   .     S
Cu373  Cu374   2.699   .     S
Cu373  O387    1.918   .     S
Cu373  O383    1.951   .     S
Cu374  O385    1.950   .     S
Cu374  N381    2.028   .     S
Cu374  O388    1.918   .     S
Cu374  O384    1.951   .     S
Cu374  O389    1.902   .     S
H380   C8      1.088   1_565 S
N381   N440    1.285   .     S
N381   O461    1.338   .     S
N382   N497    1.285   1_455 S
N382   O521    1.338   1_455 S
O391   H508    0.990   1_455 S
H392   O449    0.990   .     S
O393   H394    0.991   .     S
O393   C470    1.378   1_455 S
O395   H396    0.992   .     S
O395   C419    1.383   .     S
O397   H398    0.992   .     S
O397   C478    1.383   1_455 S
O399   H400    0.992   .     S
O401   H402    0.992   .     S
O403   N497    1.338   1_455 S
O403   H520    0.990   1_455 S
H404   O461    0.990   .     S
O405   N440    1.338   .     S
O405   H464    0.990   .     S
H406   O521    0.990   1_455 S
C407   O443    1.291   .     A
C407   C413    1.429   .     S
C407   O441    1.293   .     A
C408   O444    1.291   .     A
C408   O442    1.293   .     A
C408   C414    1.429   .     S
C409   O457    1.382   .     S
C409   C430    1.427   .     A
C409   C411    1.411   .     A
C410   O459    1.379   .     S
C410   C412    1.396   .     A
C410   C429    1.428   .     A
C411   O449    1.385   .     S
C411   C949    1.413   1_554 S
C412   C950    1.414   .     S
C412   O509    1.378   .     S
C413   C66     1.331   1_565 S
C413   H89     1.088   1_565 S
C415   O447    1.300   .     A
C415   C417    1.469   .     S
C415   O445    1.304   .     A
C416   O448    1.303   .     A
C416   C418    1.473   .     S
C416   O446    1.303   .     A
C417   C423    1.390   .     A
C417   C421    1.394   .     A
C418   C424    1.395   .     A
C418   C422    1.397   .     A
C419   C427    1.426   .     A
C419   C421    1.407   .     A
C420   C428    1.422   .     A
C420   C422    1.406   .     A
C420   O513    1.383   .     S
C421   H436    1.083   .     S
C422   H435    1.083   .     S
C423   C425    1.405   .     A
C423   H434    1.080   .     S
C424   C426    1.406   .     A
C424   H433    1.081   .     S
C425   C429    1.425   .     A
C425   C427    1.423   .     A
C426   C428    1.421   .     A
C426   C430    1.425   .     A
C427   C933    1.413   .     S
C428   C934    1.414   1_554 S
C429   C952    1.412   .     S
C430   C951    1.412   1_554 S
Cu431  O448    1.902   .     S
Cu431  O444    1.950   .     S
Cu431  N440    2.028   .     S
Cu431  Cu432   2.699   .     S
Cu431  O445    1.918   .     S
Cu431  O441    1.951   .     S
Cu432  O443    1.950   .     S
Cu432  N439    2.028   .     S
Cu432  O446    1.918   .     S
Cu432  O442    1.951   .     S
Cu432  O447    1.902   .     S
H438   C66     1.088   1_565 S
N439   N498    1.285   .     S
N439   O519    1.338   .     S
H450   O507    0.990   .     S
O451   H452    0.991   .     S
O453   H454    0.992   .     S
O453   C477    1.383   .     S
O455   H456    0.992   .     S
O457   H458    0.992   .     S
O459   H460    0.992   .     S
H462   O519    0.990   .     S
O463   N498    1.338   .     S
O463   H522    0.990   .     S
C465   O501    1.291   .     A
C465   C471    1.429   .     S
C465   O499    1.293   .     A
C466   O502    1.291   .     A
C466   O500    1.293   .     A
C466   C472    1.429   .     S
C467   O515    1.382   .     S
C467   C488    1.427   .     A
C467   C469    1.411   .     A
C468   O517    1.379   .     S
C468   C470    1.396   .     A
C468   C487    1.428   .     A
C469   O507    1.385   .     S
C469   C1007   1.413   1_554 S
C470   C1008   1.414   .     S
C470   O393    1.378   1_655 S
C471   C124    1.331   1_565 S
C471   H147    1.088   1_565 S
C473   O505    1.300   .     A
C473   C475    1.469   .     S
C473   O503    1.304   .     A
C474   O506    1.303   .     A
C474   C476    1.473   .     S
C474   O504    1.303   .     A
C475   C481    1.390   .     A
C475   C479    1.394   .     A
C476   C482    1.395   .     A
C476   C480    1.397   .     A
C477   C485    1.426   .     A
C477   C479    1.407   .     A
C478   C486    1.422   .     A
C478   C480    1.406   .     A
C478   O397    1.383   1_655 S
C479   H494    1.083   .     S
C480   H493    1.083   .     S
C481   C483    1.405   .     A
C481   H492    1.080   .     S
C482   C484    1.406   .     A
C482   H491    1.081   .     S
C483   C487    1.425   .     A
C483   C485    1.423   .     A
C484   C486    1.421   .     A
C484   C488    1.425   .     A
C485   C991    1.413   .     S
C486   C992    1.414   1_554 S
C487   C1010   1.412   .     S
C488   C1009   1.412   1_554 S
Cu489  O506    1.902   .     S
Cu489  O502    1.950   .     S
Cu489  N498    2.028   .     S
Cu489  Cu490   2.699   .     S
Cu489  O503    1.918   .     S
Cu489  O499    1.951   .     S
Cu490  O501    1.950   .     S
Cu490  N497    2.028   .     S
Cu490  O504    1.918   .     S
Cu490  O500    1.951   .     S
Cu490  O505    1.902   .     S
H496   C124    1.088   1_565 S
N497   N382    1.285   1_655 S
N497   O403    1.338   1_655 S
H508   O391    0.990   1_655 S
O509   H510    0.991   .     S
O511   H512    0.992   .     S
O511   C361    1.383   1_655 S
O513   H514    0.992   .     S
O515   H516    0.992   .     S
O517   H518    0.992   .     S
H520   O403    0.990   1_655 S
O521   N382    1.338   1_655 S
O521   H406    0.990   1_655 S
C523   O559    1.291   .     A
C523   C529    1.429   .     S
C523   O557    1.293   .     A
C524   O560    1.291   .     A
C524   O558    1.293   .     A
C524   C530    1.429   .     S
C525   O573    1.382   .     S
C525   C546    1.427   .     A
C525   C527    1.411   .     A
C526   O575    1.379   .     S
C526   C528    1.396   .     A
C526   C545    1.428   .     A
C527   O565    1.385   .     S
C528   C22     1.414   1_556 S
C528   O625    1.378   .     S
C529   C704    1.331   .     S
C529   H727    1.088   .     S
C530   C877    1.331   1_545 S
C530   H902    1.088   1_545 S
C531   O563    1.300   .     A
C531   C533    1.469   .     S
C531   O561    1.304   .     A
C532   O564    1.303   .     A
C532   C534    1.473   .     S
C532   O562    1.303   .     A
C533   C539    1.390   .     A
C533   C537    1.394   .     A
C534   C540    1.395   .     A
C534   C538    1.397   .     A
C535   C543    1.426   .     A
C535   C537    1.407   .     A
C535   O685    1.383   1_455 S
C536   C544    1.422   .     A
C536   C538    1.406   .     A
C536   O629    1.383   .     S
C537   H552    1.083   .     S
C538   H551    1.083   .     S
C539   C541    1.405   .     A
C539   H550    1.080   .     S
C540   C542    1.406   .     A
C540   H549    1.081   .     S
C541   C545    1.425   .     A
C541   C543    1.423   .     A
C542   C544    1.421   .     A
C542   C546    1.425   .     A
C543   C5      1.413   1_556 S
C545   C24     1.412   1_556 S
Cu547  O564    1.902   .     S
Cu547  O560    1.950   .     S
Cu547  N556    2.028   .     S
Cu547  Cu548   2.699   .     S
Cu547  O561    1.918   .     S
Cu547  O557    1.951   .     S
Cu548  O559    1.950   .     S
Cu548  N555    2.028   .     S
Cu548  O562    1.918   .     S
Cu548  O558    1.951   .     S
Cu548  O563    1.902   .     S
H553   C877    1.088   1_545 S
H554   C704    1.088   .     S
N555   N614    1.285   .     S
N555   O635    1.338   .     S
N556   N671    1.285   1_455 S
N556   O695    1.338   1_455 S
O565   H682    0.990   1_455 S
H566   O623    0.990   .     S
O567   H568    0.991   .     S
O567   C644    1.378   1_455 S
O569   H570    0.992   .     S
O569   C593    1.383   .     S
O571   H572    0.992   .     S
O571   C652    1.383   1_455 S
O573   H574    0.992   .     S
O575   H576    0.992   .     S
O577   N671    1.338   1_455 S
O577   H694    0.990   1_455 S
H578   O635    0.990   .     S
O579   N614    1.338   .     S
O579   H638    0.990   .     S
H580   O695    0.990   1_455 S
C581   O617    1.291   .     A
C581   C587    1.429   .     S
C581   O615    1.293   .     A
C582   O618    1.291   .     A
C582   O616    1.293   .     A
C582   C588    1.429   .     S
C583   O631    1.382   .     S
C583   C604    1.427   .     A
C583   C585    1.411   .     A
C584   O633    1.379   .     S
C584   C586    1.396   .     A
C584   C603    1.428   .     A
C585   O623    1.385   .     S
C586   C80     1.414   1_556 S
C586   O683    1.378   .     S
C587   C762    1.331   .     S
C587   H785    1.088   .     S
C588   C935    1.331   1_545 S
C588   H960    1.088   1_545 S
C589   O621    1.300   .     A
C589   C591    1.469   .     S
C589   O619    1.304   .     A
C590   O622    1.303   .     A
C590   C592    1.473   .     S
C590   O620    1.303   .     A
C591   C597    1.390   .     A
C591   C595    1.394   .     A
C592   C598    1.395   .     A
C592   C596    1.397   .     A
C593   C601    1.426   .     A
C593   C595    1.407   .     A
C594   C602    1.422   .     A
C594   C596    1.406   .     A
C594   O687    1.383   .     S
C595   H610    1.083   .     S
C596   H609    1.083   .     S
C597   C599    1.405   .     A
C597   H608    1.080   .     S
C598   C600    1.406   .     A
C598   H607    1.081   .     S
C599   C603    1.425   .     A
C599   C601    1.423   .     A
C600   C602    1.421   .     A
C600   C604    1.425   .     A
C601   C63     1.413   1_556 S
C603   C82     1.412   1_556 S
Cu605  O622    1.902   .     S
Cu605  O618    1.950   .     S
Cu605  N614    2.028   .     S
Cu605  Cu606   2.699   .     S
Cu605  O619    1.918   .     S
Cu605  O615    1.951   .     S
Cu606  O617    1.950   .     S
Cu606  N613    2.028   .     S
Cu606  O620    1.918   .     S
Cu606  O616    1.951   .     S
Cu606  O621    1.902   .     S
H611   C935    1.088   1_545 S
H612   C762    1.088   .     S
N613   N672    1.285   .     S
N613   O693    1.338   .     S
H624   O681    0.990   .     S
O625   H626    0.991   .     S
O627   H628    0.992   .     S
O627   C651    1.383   .     S
O629   H630    0.992   .     S
O631   H632    0.992   .     S
O633   H634    0.992   .     S
H636   O693    0.990   .     S
O637   N672    1.338   .     S
O637   H696    0.990   .     S
C639   O675    1.291   .     A
C639   C645    1.429   .     S
C639   O673    1.293   .     A
C640   O676    1.291   .     A
C640   O674    1.293   .     A
C640   C646    1.429   .     S
C641   O689    1.382   .     S
C641   C662    1.427   .     A
C641   C643    1.411   .     A
C642   O691    1.379   .     S
C642   C644    1.396   .     A
C642   C661    1.428   .     A
C643   O681    1.385   .     S
C644   C138    1.414   1_556 S
C644   O567    1.378   1_655 S
C645   C820    1.331   .     S
C645   H843    1.088   .     S
C646   C993    1.331   1_545 S
C646   H1018   1.088   1_545 S
C647   O679    1.300   .     A
C647   C649    1.469   .     S
C647   O677    1.304   .     A
C648   O680    1.303   .     A
C648   C650    1.473   .     S
C648   O678    1.303   .     A
C649   C655    1.390   .     A
C649   C653    1.394   .     A
C650   C656    1.395   .     A
C650   C654    1.397   .     A
C651   C659    1.426   .     A
C651   C653    1.407   .     A
C652   C660    1.422   .     A
C652   C654    1.406   .     A
C652   O571    1.383   1_655 S
C653   H668    1.083   .     S
C654   H667    1.083   .     S
C655   C657    1.405   .     A
C655   H666    1.080   .     S
C656   C658    1.406   .     A
C656   H665    1.081   .     S
C657   C661    1.425   .     A
C657   C659    1.423   .     A
C658   C660    1.421   .     A
C658   C662    1.425   .     A
C659   C121    1.413   1_556 S
C661   C140    1.412   1_556 S
Cu663  O680    1.902   .     S
Cu663  O676    1.950   .     S
Cu663  N672    2.028   .     S
Cu663  Cu664   2.699   .     S
Cu663  O677    1.918   .     S
Cu663  O673    1.951   .     S
Cu664  O675    1.950   .     S
Cu664  N671    2.028   .     S
Cu664  O678    1.918   .     S
Cu664  O674    1.951   .     S
Cu664  O679    1.902   .     S
H669   C993    1.088   1_545 S
H670   C820    1.088   .     S
N671   N556    1.285   1_655 S
N671   O577    1.338   1_655 S
H682   O565    0.990   1_655 S
O683   H684    0.991   .     S
O685   H686    0.992   .     S
O685   C535    1.383   1_655 S
O687   H688    0.992   .     S
O689   H690    0.992   .     S
O691   H692    0.992   .     S
H694   O577    0.990   1_655 S
O695   N556    1.338   1_655 S
O695   H580    0.990   1_655 S
C697   O733    1.291   .     A
C697   C703    1.429   .     S
C697   O731    1.293   .     A
C698   O734    1.291   .     A
C698   O732    1.293   .     A
C698   C704    1.429   .     S
C699   O747    1.382   .     S
C699   C720    1.427   .     A
C699   C701    1.411   .     A
C700   O749    1.379   .     S
C700   C702    1.396   .     A
C700   C719    1.428   .     A
C701   O739    1.385   .     S
C702   C196    1.414   1_556 S
C702   O799    1.378   .     S
C703   C878    1.331   .     S
C703   H901    1.088   .     S
C705   O737    1.300   .     A
C705   C707    1.469   .     S
C705   O735    1.304   .     A
C706   O738    1.303   .     A
C706   C708    1.473   .     S
C706   O736    1.303   .     A
C707   C713    1.390   .     A
C707   C711    1.394   .     A
C708   C714    1.395   .     A
C708   C712    1.397   .     A
C709   C717    1.426   .     A
C709   C711    1.407   .     A
C709   O859    1.383   1_455 S
C710   C718    1.422   .     A
C710   C712    1.406   .     A
C710   O803    1.383   .     S
C711   H726    1.083   .     S
C712   H725    1.083   .     S
C713   C715    1.405   .     A
C713   H724    1.080   .     S
C714   C716    1.406   .     A
C714   H723    1.081   .     S
C715   C719    1.425   .     A
C715   C717    1.423   .     A
C716   C718    1.421   .     A
C716   C720    1.425   .     A
C717   C179    1.413   1_556 S
C719   C198    1.412   1_556 S
Cu721  O738    1.902   .     S
Cu721  O734    1.950   .     S
Cu721  N730    2.028   .     S
Cu721  Cu722   2.699   .     S
Cu721  O735    1.918   .     S
Cu721  O731    1.951   .     S
Cu722  O733    1.950   .     S
Cu722  N729    2.028   .     S
Cu722  O736    1.918   .     S
Cu722  O732    1.951   .     S
Cu722  O737    1.902   .     S
H728   C878    1.088   .     S
N729   N788    1.285   .     S
N729   O809    1.338   .     S
N730   N845    1.285   1_455 S
N730   O869    1.338   1_455 S
O739   H856    0.990   1_455 S
H740   O797    0.990   .     S
O741   H742    0.991   .     S
O741   C818    1.378   1_455 S
O743   H744    0.992   .     S
O743   C767    1.383   .     S
O745   H746    0.992   .     S
O745   C826    1.383   1_455 S
O747   H748    0.992   .     S
O749   H750    0.992   .     S
O751   N845    1.338   1_455 S
O751   H868    0.990   1_455 S
H752   O809    0.990   .     S
O753   N788    1.338   .     S
O753   H812    0.990   .     S
H754   O869    0.990   1_455 S
C755   O791    1.291   .     A
C755   C761    1.429   .     S
C755   O789    1.293   .     A
C756   O792    1.291   .     A
C756   O790    1.293   .     A
C756   C762    1.429   .     S
C757   O805    1.382   .     S
C757   C778    1.427   .     A
C757   C759    1.411   .     A
C758   O807    1.379   .     S
C758   C760    1.396   .     A
C758   C777    1.428   .     A
C759   O797    1.385   .     S
C760   C254    1.414   1_556 S
C760   O857    1.378   .     S
C761   C936    1.331   .     S
C761   H959    1.088   .     S
C763   O795    1.300   .     A
C763   C765    1.469   .     S
C763   O793    1.304   .     A
C764   O796    1.303   .     A
C764   C766    1.473   .     S
C764   O794    1.303   .     A
C765   C771    1.390   .     A
C765   C769    1.394   .     A
C766   C772    1.395   .     A
C766   C770    1.397   .     A
C767   C775    1.426   .     A
C767   C769    1.407   .     A
C768   C776    1.422   .     A
C768   C770    1.406   .     A
C768   O861    1.383   .     S
C769   H784    1.083   .     S
C770   H783    1.083   .     S
C771   C773    1.405   .     A
C771   H782    1.080   .     S
C772   C774    1.406   .     A
C772   H781    1.081   .     S
C773   C777    1.425   .     A
C773   C775    1.423   .     A
C774   C776    1.421   .     A
C774   C778    1.425   .     A
C775   C237    1.413   1_556 S
C777   C256    1.412   1_556 S
Cu779  O796    1.902   .     S
Cu779  O792    1.950   .     S
Cu779  N788    2.028   .     S
Cu779  Cu780   2.699   .     S
Cu779  O793    1.918   .     S
Cu779  O789    1.951   .     S
Cu780  O791    1.950   .     S
Cu780  N787    2.028   .     S
Cu780  O794    1.918   .     S
Cu780  O790    1.951   .     S
Cu780  O795    1.902   .     S
H786   C936    1.088   .     S
N787   N846    1.285   .     S
N787   O867    1.338   .     S
H798   O855    0.990   .     S
O799   H800    0.991   .     S
O801   H802    0.992   .     S
O801   C825    1.383   .     S
O803   H804    0.992   .     S
O805   H806    0.992   .     S
O807   H808    0.992   .     S
H810   O867    0.990   .     S
O811   N846    1.338   .     S
O811   H870    0.990   .     S
C813   O849    1.291   .     A
C813   C819    1.429   .     S
C813   O847    1.293   .     A
C814   O850    1.291   .     A
C814   O848    1.293   .     A
C814   C820    1.429   .     S
C815   O863    1.382   .     S
C815   C836    1.427   .     A
C815   C817    1.411   .     A
C816   O865    1.379   .     S
C816   C818    1.396   .     A
C816   C835    1.428   .     A
C817   O855    1.385   .     S
C818   C312    1.414   1_556 S
C818   O741    1.378   1_655 S
C819   C994    1.331   .     S
C819   H1017   1.088   .     S
C821   O853    1.300   .     A
C821   C823    1.469   .     S
C821   O851    1.304   .     A
C822   O854    1.303   .     A
C822   C824    1.473   .     S
C822   O852    1.303   .     A
C823   C829    1.390   .     A
C823   C827    1.394   .     A
C824   C830    1.395   .     A
C824   C828    1.397   .     A
C825   C833    1.426   .     A
C825   C827    1.407   .     A
C826   C834    1.422   .     A
C826   C828    1.406   .     A
C826   O745    1.383   1_655 S
C827   H842    1.083   .     S
C828   H841    1.083   .     S
C829   C831    1.405   .     A
C829   H840    1.080   .     S
C830   C832    1.406   .     A
C830   H839    1.081   .     S
C831   C835    1.425   .     A
C831   C833    1.423   .     A
C832   C834    1.421   .     A
C832   C836    1.425   .     A
C833   C295    1.413   1_556 S
C835   C314    1.412   1_556 S
Cu837  O854    1.902   .     S
Cu837  O850    1.950   .     S
Cu837  N846    2.028   .     S
Cu837  Cu838   2.699   .     S
Cu837  O851    1.918   .     S
Cu837  O847    1.951   .     S
Cu838  O849    1.950   .     S
Cu838  N845    2.028   .     S
Cu838  O852    1.918   .     S
Cu838  O848    1.951   .     S
Cu838  O853    1.902   .     S
H844   C994    1.088   .     S
N845   N730    1.285   1_655 S
N845   O751    1.338   1_655 S
H856   O739    0.990   1_655 S
O857   H858    0.991   .     S
O859   H860    0.992   .     S
O859   C709    1.383   1_655 S
O861   H862    0.992   .     S
O863   H864    0.992   .     S
O865   H866    0.992   .     S
H868   O751    0.990   1_655 S
O869   N730    1.338   1_655 S
O869   H754    0.990   1_655 S
C871   O907    1.291   .     A
C871   C877    1.429   .     S
C871   O905    1.293   .     A
C872   O908    1.291   .     A
C872   O906    1.293   .     A
C872   C878    1.429   .     S
C873   O921    1.382   .     S
C873   C894    1.427   .     A
C873   C875    1.411   .     A
C874   O923    1.379   .     S
C874   C876    1.396   .     A
C874   C893    1.428   .     A
C875   O913    1.385   .     S
C876   C370    1.414   1_556 S
C876   O973    1.378   .     S
C877   C530    1.331   1_565 S
C877   H553    1.088   1_565 S
C879   O911    1.300   .     A
C879   C881    1.469   .     S
C879   O909    1.304   .     A
C880   O912    1.303   .     A
C880   C882    1.473   .     S
C880   O910    1.303   .     A
C881   C887    1.390   .     A
C881   C885    1.394   .     A
C882   C888    1.395   .     A
C882   C886    1.397   .     A
C883   C891    1.426   .     A
C883   C885    1.407   .     A
C883   O1033   1.383   1_455 S
C884   C892    1.422   .     A
C884   C886    1.406   .     A
C884   O977    1.383   .     S
C885   H900    1.083   .     S
C886   H899    1.083   .     S
C887   C889    1.405   .     A
C887   H898    1.080   .     S
C888   C890    1.406   .     A
C888   H897    1.081   .     S
C889   C893    1.425   .     A
C889   C891    1.423   .     A
C890   C892    1.421   .     A
C890   C894    1.425   .     A
C891   C353    1.413   1_556 S
C893   C372    1.412   1_556 S
Cu895  O912    1.902   .     S
Cu895  O908    1.950   .     S
Cu895  N904    2.028   .     S
Cu895  Cu896   2.699   .     S
Cu895  O909    1.918   .     S
Cu895  O905    1.951   .     S
Cu896  O907    1.950   .     S
Cu896  N903    2.028   .     S
Cu896  O910    1.918   .     S
Cu896  O906    1.951   .     S
Cu896  O911    1.902   .     S
H902   C530    1.088   1_565 S
N903   N962    1.285   .     S
N903   O983    1.338   .     S
N904   N1019   1.285   1_455 S
N904   O1043   1.338   1_455 S
O913   H1030   0.990   1_455 S
H914   O971    0.990   .     S
O915   H916    0.991   .     S
O915   C992    1.378   1_455 S
O917   H918    0.992   .     S
O917   C941    1.383   .     S
O919   H920    0.992   .     S
O919   C1000   1.383   1_455 S
O921   H922    0.992   .     S
O923   H924    0.992   .     S
O925   N1019   1.338   1_455 S
O925   H1042   0.990   1_455 S
H926   O983    0.990   .     S
O927   N962    1.338   .     S
O927   H986    0.990   .     S
H928   O1043   0.990   1_455 S
C929   O965    1.291   .     A
C929   C935    1.429   .     S
C929   O963    1.293   .     A
C930   O966    1.291   .     A
C930   O964    1.293   .     A
C930   C936    1.429   .     S
C931   O979    1.382   .     S
C931   C952    1.427   .     A
C931   C933    1.411   .     A
C932   O981    1.379   .     S
C932   C934    1.396   .     A
C932   C951    1.428   .     A
C933   O971    1.385   .     S
C934   C428    1.414   1_556 S
C934   O1031   1.378   .     S
C935   C588    1.331   1_565 S
C935   H611    1.088   1_565 S
C937   O969    1.300   .     A
C937   C939    1.469   .     S
C937   O967    1.304   .     A
C938   O970    1.303   .     A
C938   C940    1.473   .     S
C938   O968    1.303   .     A
C939   C945    1.390   .     A
C939   C943    1.394   .     A
C940   C946    1.395   .     A
C940   C944    1.397   .     A
C941   C949    1.426   .     A
C941   C943    1.407   .     A
C942   C950    1.422   .     A
C942   C944    1.406   .     A
C942   O1035   1.383   .     S
C943   H958    1.083   .     S
C944   H957    1.083   .     S
C945   C947    1.405   .     A
C945   H956    1.080   .     S
C946   C948    1.406   .     A
C946   H955    1.081   .     S
C947   C951    1.425   .     A
C947   C949    1.423   .     A
C948   C950    1.421   .     A
C948   C952    1.425   .     A
C949   C411    1.413   1_556 S
C951   C430    1.412   1_556 S
Cu953  O970    1.902   .     S
Cu953  O966    1.950   .     S
Cu953  N962    2.028   .     S
Cu953  Cu954   2.699   .     S
Cu953  O967    1.918   .     S
Cu953  O963    1.951   .     S
Cu954  O965    1.950   .     S
Cu954  N961    2.028   .     S
Cu954  O968    1.918   .     S
Cu954  O964    1.951   .     S
Cu954  O969    1.902   .     S
H960   C588    1.088   1_565 S
N961   N1020   1.285   .     S
N961   O1041   1.338   .     S
H972   O1029   0.990   .     S
O973   H974    0.991   .     S
O975   H976    0.992   .     S
O975   C999    1.383   .     S
O977   H978    0.992   .     S
O979   H980    0.992   .     S
O981   H982    0.992   .     S
H984   O1041   0.990   .     S
O985   N1020   1.338   .     S
O985   H1044   0.990   .     S
C987   O1023   1.291   .     A
C987   C993    1.429   .     S
C987   O1021   1.293   .     A
C988   O1024   1.291   .     A
C988   O1022   1.293   .     A
C988   C994    1.429   .     S
C989   O1037   1.382   .     S
C989   C1010   1.427   .     A
C989   C991    1.411   .     A
C990   O1039   1.379   .     S
C990   C992    1.396   .     A
C990   C1009   1.428   .     A
C991   O1029   1.385   .     S
C992   C486    1.414   1_556 S
C992   O915    1.378   1_655 S
C993   C646    1.331   1_565 S
C993   H669    1.088   1_565 S
C995   O1027   1.300   .     A
C995   C997    1.469   .     S
C995   O1025   1.304   .     A
C996   O1028   1.303   .     A
C996   C998    1.473   .     S
C996   O1026   1.303   .     A
C997   C1003   1.390   .     A
C997   C1001   1.394   .     A
C998   C1004   1.395   .     A
C998   C1002   1.397   .     A
C999   C1007   1.426   .     A
C999   C1001   1.407   .     A
C1000  C1008   1.422   .     A
C1000  C1002   1.406   .     A
C1000  O919    1.383   1_655 S
C1001  H1016   1.083   .     S
C1002  H1015   1.083   .     S
C1003  C1005   1.405   .     A
C1003  H1014   1.080   .     S
C1004  C1006   1.406   .     A
C1004  H1013   1.081   .     S
C1005  C1009   1.425   .     A
C1005  C1007   1.423   .     A
C1006  C1008   1.421   .     A
C1006  C1010   1.425   .     A
C1007  C469    1.413   1_556 S
C1009  C488    1.412   1_556 S
Cu1011 O1028   1.902   .     S
Cu1011 O1024   1.950   .     S
Cu1011 N1020   2.028   .     S
Cu1011 Cu1012  2.699   .     S
Cu1011 O1025   1.918   .     S
Cu1011 O1021   1.951   .     S
Cu1012 O1023   1.950   .     S
Cu1012 N1019   2.028   .     S
Cu1012 O1026   1.918   .     S
Cu1012 O1022   1.951   .     S
Cu1012 O1027   1.902   .     S
H1018  C646    1.088   1_565 S
N1019  N904    1.285   1_655 S
N1019  O925    1.338   1_655 S
H1030  O913    0.990   1_655 S
O1031  H1032   0.991   .     S
O1033  H1034   0.992   .     S
O1033  C883    1.383   1_655 S
O1035  H1036   0.992   .     S
O1037  H1038   0.992   .     S
O1039  H1040   0.992   .     S
H1042  O925    0.990   1_655 S
O1043  N904    1.338   1_655 S
O1043  H928    0.990   1_655 S
