data_str_m3_o10_o16_pcu_sym.67
_audit_creation_date              2020-01-03
_audit_creation_method            'Materials Studio'
_symmetry_space_group_name_H-M    'P1'
_symmetry_Int_Tables_number       1
_symmetry_cell_setting            triclinic
loop_
_symmetry_equiv_pos_as_xyz
  x,y,z
_cell_length_a                    23.4719
_cell_length_b                    25.7201
_cell_length_c                    25.1144
_cell_angle_alpha                 92.2498
_cell_angle_beta                  103.7029
_cell_angle_gamma                 93.7735
loop_
_atom_site_label
_atom_site_type_symbol
_atom_site_fract_x
_atom_site_fract_y
_atom_site_fract_z
_atom_site_U_iso_or_equiv
_atom_site_adp_type
_atom_site_occupancy
C1     C     0.01468   0.26482   0.24847   0.00000  Uiso   1.00
C2     C     0.06549   0.20476   0.40831   0.00000  Uiso   1.00
C3     C     0.02233   0.31933   0.24765   0.00000  Uiso   1.00
C4     C     0.03878   0.17979   0.35291   0.00000  Uiso   1.00
C5     C     0.31079   0.01397   0.25190   0.00000  Uiso   1.00
C6     C     0.31857   0.06851   0.25133   0.00000  Uiso   1.00
C7     C     0.29623   0.16303   0.14571   0.00000  Uiso   1.00
C8     C     0.29040   0.15099   0.49629   0.00000  Uiso   1.00
C9     C     0.27581   0.16450   0.08711   0.00000  Uiso   1.00
C10    C     0.03152   0.22990   0.43869   0.00000  Uiso   1.00
C11    C     0.05650   0.24936   0.49244   0.00000  Uiso   1.00
C12    C     0.14837   0.21254   0.48804   0.00000  Uiso   1.00
C13    C     0.11487   0.23983   0.01871   0.00000  Uiso   1.00
C14    C     0.11118   0.26569   0.10773   0.00000  Uiso   1.00
C15    C     0.15255   0.28158   0.16325   0.00000  Uiso   1.00
C16    C     0.12655   0.20537   0.43108   0.00000  Uiso   1.00
C17    C     0.20341   0.19247   0.01063   0.00000  Uiso   1.00
C18    C     0.23809   0.17416   0.47543   0.00000  Uiso   1.00
C19    C     0.22046   0.18033   0.41975   0.00000  Uiso   1.00
C20    C     0.16725   0.19989   0.39882   0.00000  Uiso   1.00
C21    C     0.22212   0.18508   0.06624   0.00000  Uiso   1.00
C22    C     0.31002   0.14730   0.05230   0.00000  Uiso   1.00
H23    H     0.01813   0.13066   0.06829   0.00000  Uiso   1.00
H24    H     0.15847   0.21152   0.35760   0.00000  Uiso   1.00
H25    H     0.06471   0.00296   0.24373   0.00000  Uiso   1.00
H26    H     0.09017   0.22590   0.10979   0.00000  Uiso   1.00
H27    H     0.07720   0.29438   0.09963   0.00000  Uiso   1.00
H28    H     0.12751   0.28348   0.19537   0.00000  Uiso   1.00
H29    H     0.18605   0.25281   0.17413   0.00000  Uiso   1.00
H30    H     0.17518   0.32066   0.16195   0.00000  Uiso   1.00
H31    H     0.26839   0.33037   0.25588   0.00000  Uiso   1.00
H32    H     0.15702   0.12101   0.21484   0.00000  Uiso   1.00
H33    H     0.17645   0.21518   0.27987   0.00000  Uiso   1.00
H34    H     0.24721   0.16960   0.39231   0.00000  Uiso   1.00
H35    H     0.31644   0.13649   0.46940   0.00000  Uiso   1.00
H36    H     0.19455   0.19370   0.09365   0.00000  Uiso   1.00
H37    H     0.31995   0.23708   0.42000   0.00000  Uiso   1.00
H38    H     0.03012   0.27227   0.01285   0.00000  Uiso   1.00
N39    N     0.14493   0.15223   0.23542   0.00000  Uiso   1.00
N40    N     0.18840   0.18110   0.26457   0.00000  Uiso   1.00
O41    O     0.29769   0.24629   0.25357   0.00000  Uiso   1.00
O42    O     0.05742   0.23704   0.24423   0.00000  Uiso   1.00
O43    O     0.31490   0.17358   0.33380   0.00000  Uiso   1.00
O44    O     0.07463   0.16433   0.32446   0.00000  Uiso   1.00
O45    O     0.27592   0.09629   0.25576   0.00000  Uiso   1.00
O46    O     0.03565   0.08704   0.24642   0.00000  Uiso   1.00
O47    O     0.25870   0.16901   0.17554   0.00000  Uiso   1.00
O48    O     0.01843   0.15976   0.16620   0.00000  Uiso   1.00
O49    O     0.14423   0.26698   0.06752   0.00000  Uiso   1.00
Zn50   Zn    0.27119   0.17284   0.25623   0.00000  Uiso   1.00
Zn51   Zn    0.06214   0.16049   0.24376   0.00000  Uiso   1.00
C52    C     0.34801   0.26482   0.24847   0.00000  Uiso   1.00
C53    C     0.39882   0.20476   0.40831   0.00000  Uiso   1.00
C54    C     0.35566   0.31933   0.24765   0.00000  Uiso   1.00
C55    C     0.37211   0.17979   0.35291   0.00000  Uiso   1.00
C56    C     0.64412   0.01397   0.25190   0.00000  Uiso   1.00
C57    C     0.65191   0.06851   0.25133   0.00000  Uiso   1.00
C58    C     0.62956   0.16303   0.14571   0.00000  Uiso   1.00
C59    C     0.62373   0.15099   0.49629   0.00000  Uiso   1.00
C60    C     0.60914   0.16450   0.08711   0.00000  Uiso   1.00
C61    C     0.36485   0.22990   0.43869   0.00000  Uiso   1.00
C62    C     0.38984   0.24936   0.49244   0.00000  Uiso   1.00
C63    C     0.48171   0.21254   0.48804   0.00000  Uiso   1.00
C64    C     0.44820   0.23983   0.01871   0.00000  Uiso   1.00
C65    C     0.44451   0.26569   0.10773   0.00000  Uiso   1.00
C66    C     0.48589   0.28158   0.16325   0.00000  Uiso   1.00
C67    C     0.45988   0.20537   0.43108   0.00000  Uiso   1.00
C68    C     0.53674   0.19247   0.01063   0.00000  Uiso   1.00
C69    C     0.57142   0.17416   0.47543   0.00000  Uiso   1.00
C70    C     0.55379   0.18033   0.41975   0.00000  Uiso   1.00
C71    C     0.50058   0.19989   0.39882   0.00000  Uiso   1.00
C72    C     0.55546   0.18508   0.06624   0.00000  Uiso   1.00
C73    C     0.64336   0.14730   0.05230   0.00000  Uiso   1.00
H74    H     0.35146   0.13066   0.06829   0.00000  Uiso   1.00
H75    H     0.49180   0.21152   0.35760   0.00000  Uiso   1.00
H76    H     0.39804   0.00296   0.24373   0.00000  Uiso   1.00
H77    H     0.42350   0.22590   0.10979   0.00000  Uiso   1.00
H78    H     0.41053   0.29438   0.09963   0.00000  Uiso   1.00
H79    H     0.46084   0.28348   0.19537   0.00000  Uiso   1.00
H80    H     0.51939   0.25281   0.17413   0.00000  Uiso   1.00
H81    H     0.50852   0.32066   0.16195   0.00000  Uiso   1.00
H82    H     0.60173   0.33037   0.25588   0.00000  Uiso   1.00
H83    H     0.49036   0.12101   0.21484   0.00000  Uiso   1.00
H84    H     0.50978   0.21518   0.27987   0.00000  Uiso   1.00
H85    H     0.58054   0.16960   0.39231   0.00000  Uiso   1.00
H86    H     0.64977   0.13649   0.46940   0.00000  Uiso   1.00
H87    H     0.52788   0.19370   0.09365   0.00000  Uiso   1.00
H88    H     0.65328   0.23708   0.42000   0.00000  Uiso   1.00
H89    H     0.36346   0.27227   0.01285   0.00000  Uiso   1.00
N90    N     0.47827   0.15223   0.23542   0.00000  Uiso   1.00
N91    N     0.52173   0.18110   0.26457   0.00000  Uiso   1.00
O92    O     0.63102   0.24629   0.25357   0.00000  Uiso   1.00
O93    O     0.39075   0.23704   0.24423   0.00000  Uiso   1.00
O94    O     0.64823   0.17358   0.33380   0.00000  Uiso   1.00
O95    O     0.40796   0.16433   0.32446   0.00000  Uiso   1.00
O96    O     0.60925   0.09629   0.25576   0.00000  Uiso   1.00
O97    O     0.36898   0.08704   0.24642   0.00000  Uiso   1.00
O98    O     0.59204   0.16901   0.17554   0.00000  Uiso   1.00
O99    O     0.35177   0.15976   0.16620   0.00000  Uiso   1.00
O100   O     0.47756   0.26698   0.06752   0.00000  Uiso   1.00
Zn101  Zn    0.60453   0.17284   0.25623   0.00000  Uiso   1.00
Zn102  Zn    0.39547   0.16049   0.24376   0.00000  Uiso   1.00
C103   C     0.68134   0.26482   0.24847   0.00000  Uiso   1.00
C104   C     0.73216   0.20476   0.40831   0.00000  Uiso   1.00
C105   C     0.68899   0.31933   0.24765   0.00000  Uiso   1.00
C106   C     0.70545   0.17979   0.35291   0.00000  Uiso   1.00
C107   C     0.97745   0.01397   0.25190   0.00000  Uiso   1.00
C108   C     0.98524   0.06851   0.25133   0.00000  Uiso   1.00
C109   C     0.96289   0.16303   0.14571   0.00000  Uiso   1.00
C110   C     0.95706   0.15099   0.49629   0.00000  Uiso   1.00
C111   C     0.94248   0.16450   0.08711   0.00000  Uiso   1.00
C112   C     0.69818   0.22990   0.43869   0.00000  Uiso   1.00
C113   C     0.72317   0.24936   0.49244   0.00000  Uiso   1.00
C114   C     0.81504   0.21254   0.48804   0.00000  Uiso   1.00
C115   C     0.78153   0.23983   0.01871   0.00000  Uiso   1.00
C116   C     0.77785   0.26569   0.10773   0.00000  Uiso   1.00
C117   C     0.81922   0.28158   0.16325   0.00000  Uiso   1.00
C118   C     0.79322   0.20537   0.43108   0.00000  Uiso   1.00
C119   C     0.87007   0.19247   0.01063   0.00000  Uiso   1.00
C120   C     0.90476   0.17416   0.47543   0.00000  Uiso   1.00
C121   C     0.88713   0.18033   0.41975   0.00000  Uiso   1.00
C122   C     0.83391   0.19989   0.39882   0.00000  Uiso   1.00
C123   C     0.88879   0.18508   0.06624   0.00000  Uiso   1.00
C124   C     0.97669   0.14730   0.05230   0.00000  Uiso   1.00
H125   H     0.68479   0.13066   0.06829   0.00000  Uiso   1.00
H126   H     0.82513   0.21152   0.35760   0.00000  Uiso   1.00
H127   H     0.73138   0.00296   0.24373   0.00000  Uiso   1.00
H128   H     0.75683   0.22590   0.10979   0.00000  Uiso   1.00
H129   H     0.74386   0.29438   0.09963   0.00000  Uiso   1.00
H130   H     0.79417   0.28348   0.19537   0.00000  Uiso   1.00
H131   H     0.85272   0.25281   0.17413   0.00000  Uiso   1.00
H132   H     0.84185   0.32066   0.16195   0.00000  Uiso   1.00
H133   H     0.93506   0.33037   0.25588   0.00000  Uiso   1.00
H134   H     0.82369   0.12101   0.21484   0.00000  Uiso   1.00
H135   H     0.84312   0.21518   0.27987   0.00000  Uiso   1.00
H136   H     0.91387   0.16960   0.39231   0.00000  Uiso   1.00
H137   H     0.98311   0.13649   0.46940   0.00000  Uiso   1.00
H138   H     0.86122   0.19370   0.09365   0.00000  Uiso   1.00
H139   H     0.98662   0.23708   0.42000   0.00000  Uiso   1.00
H140   H     0.69679   0.27227   0.01285   0.00000  Uiso   1.00
N141   N     0.81160   0.15223   0.23542   0.00000  Uiso   1.00
N142   N     0.85507   0.18110   0.26457   0.00000  Uiso   1.00
O143   O     0.96435   0.24629   0.25357   0.00000  Uiso   1.00
O144   O     0.72408   0.23704   0.24423   0.00000  Uiso   1.00
O145   O     0.98157   0.17358   0.33380   0.00000  Uiso   1.00
O146   O     0.74130   0.16433   0.32446   0.00000  Uiso   1.00
O147   O     0.94258   0.09629   0.25576   0.00000  Uiso   1.00
O148   O     0.70231   0.08704   0.24642   0.00000  Uiso   1.00
O149   O     0.92537   0.16901   0.17554   0.00000  Uiso   1.00
O150   O     0.68510   0.15976   0.16620   0.00000  Uiso   1.00
O151   O     0.81090   0.26698   0.06752   0.00000  Uiso   1.00
Zn152  Zn    0.93786   0.17284   0.25623   0.00000  Uiso   1.00
Zn153  Zn    0.72881   0.16049   0.24376   0.00000  Uiso   1.00
C154   C     0.01468   0.59815   0.24847   0.00000  Uiso   1.00
C155   C     0.06549   0.53810   0.40831   0.00000  Uiso   1.00
C156   C     0.02233   0.65266   0.24765   0.00000  Uiso   1.00
C157   C     0.03878   0.51313   0.35291   0.00000  Uiso   1.00
C158   C     0.31079   0.34730   0.25190   0.00000  Uiso   1.00
C159   C     0.31857   0.40184   0.25133   0.00000  Uiso   1.00
C160   C     0.29623   0.49636   0.14571   0.00000  Uiso   1.00
C161   C     0.29040   0.48432   0.49629   0.00000  Uiso   1.00
C162   C     0.27581   0.49783   0.08711   0.00000  Uiso   1.00
C163   C     0.03152   0.56323   0.43869   0.00000  Uiso   1.00
C164   C     0.05650   0.58269   0.49244   0.00000  Uiso   1.00
C165   C     0.14837   0.54588   0.48804   0.00000  Uiso   1.00
C166   C     0.11487   0.57316   0.01871   0.00000  Uiso   1.00
C167   C     0.11118   0.59903   0.10773   0.00000  Uiso   1.00
C168   C     0.15255   0.61491   0.16325   0.00000  Uiso   1.00
C169   C     0.12655   0.53871   0.43108   0.00000  Uiso   1.00
C170   C     0.20341   0.52580   0.01063   0.00000  Uiso   1.00
C171   C     0.23809   0.50749   0.47543   0.00000  Uiso   1.00
C172   C     0.22046   0.51367   0.41975   0.00000  Uiso   1.00
C173   C     0.16725   0.53322   0.39882   0.00000  Uiso   1.00
C174   C     0.22212   0.51841   0.06624   0.00000  Uiso   1.00
C175   C     0.31002   0.48063   0.05230   0.00000  Uiso   1.00
H176   H     0.01813   0.46399   0.06829   0.00000  Uiso   1.00
H177   H     0.15847   0.54485   0.35760   0.00000  Uiso   1.00
H178   H     0.06471   0.33630   0.24373   0.00000  Uiso   1.00
H179   H     0.09017   0.55923   0.10979   0.00000  Uiso   1.00
H180   H     0.07720   0.62771   0.09963   0.00000  Uiso   1.00
H181   H     0.12751   0.61681   0.19537   0.00000  Uiso   1.00
H182   H     0.18605   0.58614   0.17413   0.00000  Uiso   1.00
H183   H     0.17518   0.65399   0.16195   0.00000  Uiso   1.00
H184   H     0.26839   0.66370   0.25588   0.00000  Uiso   1.00
H185   H     0.15702   0.45434   0.21484   0.00000  Uiso   1.00
H186   H     0.17645   0.54852   0.27987   0.00000  Uiso   1.00
H187   H     0.24721   0.50293   0.39231   0.00000  Uiso   1.00
H188   H     0.31644   0.46983   0.46940   0.00000  Uiso   1.00
H189   H     0.19455   0.52703   0.09365   0.00000  Uiso   1.00
H190   H     0.31995   0.57041   0.42000   0.00000  Uiso   1.00
H191   H     0.03012   0.60560   0.01285   0.00000  Uiso   1.00
N192   N     0.14493   0.48556   0.23542   0.00000  Uiso   1.00
N193   N     0.18840   0.51444   0.26457   0.00000  Uiso   1.00
O194   O     0.29769   0.57963   0.25357   0.00000  Uiso   1.00
O195   O     0.05742   0.57038   0.24423   0.00000  Uiso   1.00
O196   O     0.31490   0.50691   0.33380   0.00000  Uiso   1.00
O197   O     0.07463   0.49766   0.32446   0.00000  Uiso   1.00
O198   O     0.27592   0.42962   0.25576   0.00000  Uiso   1.00
O199   O     0.03565   0.42037   0.24642   0.00000  Uiso   1.00
O200   O     0.25870   0.50234   0.17554   0.00000  Uiso   1.00
O201   O     0.01843   0.49309   0.16620   0.00000  Uiso   1.00
O202   O     0.14423   0.60031   0.06752   0.00000  Uiso   1.00
Zn203  Zn    0.27119   0.50618   0.25623   0.00000  Uiso   1.00
Zn204  Zn    0.06214   0.49382   0.24376   0.00000  Uiso   1.00
C205   C     0.34801   0.59815   0.24847   0.00000  Uiso   1.00
C206   C     0.39882   0.53810   0.40831   0.00000  Uiso   1.00
C207   C     0.35566   0.65266   0.24765   0.00000  Uiso   1.00
C208   C     0.37211   0.51313   0.35291   0.00000  Uiso   1.00
C209   C     0.64412   0.34730   0.25190   0.00000  Uiso   1.00
C210   C     0.65191   0.40184   0.25133   0.00000  Uiso   1.00
C211   C     0.62956   0.49636   0.14571   0.00000  Uiso   1.00
C212   C     0.62373   0.48432   0.49629   0.00000  Uiso   1.00
C213   C     0.60914   0.49783   0.08711   0.00000  Uiso   1.00
C214   C     0.36485   0.56323   0.43869   0.00000  Uiso   1.00
C215   C     0.38984   0.58269   0.49244   0.00000  Uiso   1.00
C216   C     0.48171   0.54588   0.48804   0.00000  Uiso   1.00
C217   C     0.44820   0.57316   0.01871   0.00000  Uiso   1.00
C218   C     0.44451   0.59903   0.10773   0.00000  Uiso   1.00
C219   C     0.48589   0.61491   0.16325   0.00000  Uiso   1.00
C220   C     0.45988   0.53871   0.43108   0.00000  Uiso   1.00
C221   C     0.53674   0.52580   0.01063   0.00000  Uiso   1.00
C222   C     0.57142   0.50749   0.47543   0.00000  Uiso   1.00
C223   C     0.55379   0.51367   0.41975   0.00000  Uiso   1.00
C224   C     0.50058   0.53322   0.39882   0.00000  Uiso   1.00
C225   C     0.55546   0.51841   0.06624   0.00000  Uiso   1.00
C226   C     0.64336   0.48063   0.05230   0.00000  Uiso   1.00
H227   H     0.35146   0.46399   0.06829   0.00000  Uiso   1.00
H228   H     0.49180   0.54485   0.35760   0.00000  Uiso   1.00
H229   H     0.39804   0.33630   0.24373   0.00000  Uiso   1.00
H230   H     0.42350   0.55923   0.10979   0.00000  Uiso   1.00
H231   H     0.41053   0.62771   0.09963   0.00000  Uiso   1.00
H232   H     0.46084   0.61681   0.19537   0.00000  Uiso   1.00
H233   H     0.51939   0.58614   0.17413   0.00000  Uiso   1.00
H234   H     0.50852   0.65399   0.16195   0.00000  Uiso   1.00
H235   H     0.60173   0.66370   0.25588   0.00000  Uiso   1.00
H236   H     0.49036   0.45434   0.21484   0.00000  Uiso   1.00
H237   H     0.50978   0.54852   0.27987   0.00000  Uiso   1.00
H238   H     0.58054   0.50293   0.39231   0.00000  Uiso   1.00
H239   H     0.64977   0.46983   0.46940   0.00000  Uiso   1.00
H240   H     0.52788   0.52703   0.09365   0.00000  Uiso   1.00
H241   H     0.65328   0.57041   0.42000   0.00000  Uiso   1.00
H242   H     0.36346   0.60560   0.01285   0.00000  Uiso   1.00
N243   N     0.47827   0.48556   0.23542   0.00000  Uiso   1.00
N244   N     0.52173   0.51444   0.26457   0.00000  Uiso   1.00
O245   O     0.63102   0.57963   0.25357   0.00000  Uiso   1.00
O246   O     0.39075   0.57038   0.24423   0.00000  Uiso   1.00
O247   O     0.64823   0.50691   0.33380   0.00000  Uiso   1.00
O248   O     0.40796   0.49766   0.32446   0.00000  Uiso   1.00
O249   O     0.60925   0.42962   0.25576   0.00000  Uiso   1.00
O250   O     0.36898   0.42037   0.24642   0.00000  Uiso   1.00
O251   O     0.59204   0.50234   0.17554   0.00000  Uiso   1.00
O252   O     0.35177   0.49309   0.16620   0.00000  Uiso   1.00
O253   O     0.47756   0.60031   0.06752   0.00000  Uiso   1.00
Zn254  Zn    0.60453   0.50618   0.25623   0.00000  Uiso   1.00
Zn255  Zn    0.39547   0.49382   0.24376   0.00000  Uiso   1.00
C256   C     0.68134   0.59815   0.24847   0.00000  Uiso   1.00
C257   C     0.73216   0.53810   0.40831   0.00000  Uiso   1.00
C258   C     0.68899   0.65266   0.24765   0.00000  Uiso   1.00
C259   C     0.70545   0.51313   0.35291   0.00000  Uiso   1.00
C260   C     0.97745   0.34730   0.25190   0.00000  Uiso   1.00
C261   C     0.98524   0.40184   0.25133   0.00000  Uiso   1.00
C262   C     0.96289   0.49636   0.14571   0.00000  Uiso   1.00
C263   C     0.95706   0.48432   0.49629   0.00000  Uiso   1.00
C264   C     0.94248   0.49783   0.08711   0.00000  Uiso   1.00
C265   C     0.69818   0.56323   0.43869   0.00000  Uiso   1.00
C266   C     0.72317   0.58269   0.49244   0.00000  Uiso   1.00
C267   C     0.81504   0.54588   0.48804   0.00000  Uiso   1.00
C268   C     0.78153   0.57316   0.01871   0.00000  Uiso   1.00
C269   C     0.77785   0.59903   0.10773   0.00000  Uiso   1.00
C270   C     0.81922   0.61491   0.16325   0.00000  Uiso   1.00
C271   C     0.79322   0.53871   0.43108   0.00000  Uiso   1.00
C272   C     0.87007   0.52580   0.01063   0.00000  Uiso   1.00
C273   C     0.90476   0.50749   0.47543   0.00000  Uiso   1.00
C274   C     0.88713   0.51367   0.41975   0.00000  Uiso   1.00
C275   C     0.83391   0.53322   0.39882   0.00000  Uiso   1.00
C276   C     0.88879   0.51841   0.06624   0.00000  Uiso   1.00
C277   C     0.97669   0.48063   0.05230   0.00000  Uiso   1.00
H278   H     0.68479   0.46399   0.06829   0.00000  Uiso   1.00
H279   H     0.82513   0.54485   0.35760   0.00000  Uiso   1.00
H280   H     0.73138   0.33630   0.24373   0.00000  Uiso   1.00
H281   H     0.75683   0.55923   0.10979   0.00000  Uiso   1.00
H282   H     0.74386   0.62771   0.09963   0.00000  Uiso   1.00
H283   H     0.79417   0.61681   0.19537   0.00000  Uiso   1.00
H284   H     0.85272   0.58614   0.17413   0.00000  Uiso   1.00
H285   H     0.84185   0.65399   0.16195   0.00000  Uiso   1.00
H286   H     0.93506   0.66370   0.25588   0.00000  Uiso   1.00
H287   H     0.82369   0.45434   0.21484   0.00000  Uiso   1.00
H288   H     0.84312   0.54852   0.27987   0.00000  Uiso   1.00
H289   H     0.91387   0.50293   0.39231   0.00000  Uiso   1.00
H290   H     0.98311   0.46983   0.46940   0.00000  Uiso   1.00
H291   H     0.86122   0.52703   0.09365   0.00000  Uiso   1.00
H292   H     0.98662   0.57041   0.42000   0.00000  Uiso   1.00
H293   H     0.69679   0.60560   0.01285   0.00000  Uiso   1.00
N294   N     0.81160   0.48556   0.23542   0.00000  Uiso   1.00
N295   N     0.85507   0.51444   0.26457   0.00000  Uiso   1.00
O296   O     0.96435   0.57963   0.25357   0.00000  Uiso   1.00
O297   O     0.72408   0.57038   0.24423   0.00000  Uiso   1.00
O298   O     0.98157   0.50691   0.33380   0.00000  Uiso   1.00
O299   O     0.74130   0.49766   0.32446   0.00000  Uiso   1.00
O300   O     0.94258   0.42962   0.25576   0.00000  Uiso   1.00
O301   O     0.70231   0.42037   0.24642   0.00000  Uiso   1.00
O302   O     0.92537   0.50234   0.17554   0.00000  Uiso   1.00
O303   O     0.68510   0.49309   0.16620   0.00000  Uiso   1.00
O304   O     0.81090   0.60031   0.06752   0.00000  Uiso   1.00
Zn305  Zn    0.93786   0.50618   0.25623   0.00000  Uiso   1.00
Zn306  Zn    0.72881   0.49382   0.24376   0.00000  Uiso   1.00
C307   C     0.01468   0.93148   0.24847   0.00000  Uiso   1.00
C308   C     0.06549   0.87143   0.40831   0.00000  Uiso   1.00
C309   C     0.02233   0.98599   0.24765   0.00000  Uiso   1.00
C310   C     0.03878   0.84646   0.35291   0.00000  Uiso   1.00
C311   C     0.31079   0.68064   0.25190   0.00000  Uiso   1.00
C312   C     0.31857   0.73518   0.25133   0.00000  Uiso   1.00
C313   C     0.29623   0.82970   0.14571   0.00000  Uiso   1.00
C314   C     0.29040   0.81766   0.49629   0.00000  Uiso   1.00
C315   C     0.27581   0.83116   0.08711   0.00000  Uiso   1.00
C316   C     0.03152   0.89656   0.43869   0.00000  Uiso   1.00
C317   C     0.05650   0.91603   0.49244   0.00000  Uiso   1.00
C318   C     0.14837   0.87921   0.48804   0.00000  Uiso   1.00
C319   C     0.11487   0.90650   0.01871   0.00000  Uiso   1.00
C320   C     0.11118   0.93236   0.10773   0.00000  Uiso   1.00
C321   C     0.15255   0.94825   0.16325   0.00000  Uiso   1.00
C322   C     0.12655   0.87204   0.43108   0.00000  Uiso   1.00
C323   C     0.20341   0.85914   0.01063   0.00000  Uiso   1.00
C324   C     0.23809   0.84083   0.47543   0.00000  Uiso   1.00
C325   C     0.22046   0.84700   0.41975   0.00000  Uiso   1.00
C326   C     0.16725   0.86655   0.39882   0.00000  Uiso   1.00
C327   C     0.22212   0.85174   0.06624   0.00000  Uiso   1.00
C328   C     0.31002   0.81397   0.05230   0.00000  Uiso   1.00
H329   H     0.01813   0.79732   0.06829   0.00000  Uiso   1.00
H330   H     0.15847   0.87818   0.35760   0.00000  Uiso   1.00
H331   H     0.06471   0.66963   0.24373   0.00000  Uiso   1.00
H332   H     0.09017   0.89257   0.10979   0.00000  Uiso   1.00
H333   H     0.07720   0.96104   0.09963   0.00000  Uiso   1.00
H334   H     0.12751   0.95015   0.19537   0.00000  Uiso   1.00
H335   H     0.18605   0.91947   0.17413   0.00000  Uiso   1.00
H336   H     0.17518   0.98732   0.16195   0.00000  Uiso   1.00
H337   H     0.26839   0.99703   0.25588   0.00000  Uiso   1.00
H338   H     0.15702   0.78768   0.21484   0.00000  Uiso   1.00
H339   H     0.17645   0.88185   0.27987   0.00000  Uiso   1.00
H340   H     0.24721   0.83627   0.39231   0.00000  Uiso   1.00
H341   H     0.31644   0.80316   0.46940   0.00000  Uiso   1.00
H342   H     0.19455   0.86036   0.09365   0.00000  Uiso   1.00
H343   H     0.31995   0.90375   0.42000   0.00000  Uiso   1.00
H344   H     0.03012   0.93893   0.01285   0.00000  Uiso   1.00
N345   N     0.14493   0.81890   0.23542   0.00000  Uiso   1.00
N346   N     0.18840   0.84777   0.26457   0.00000  Uiso   1.00
O347   O     0.29769   0.91296   0.25357   0.00000  Uiso   1.00
O348   O     0.05742   0.90371   0.24423   0.00000  Uiso   1.00
O349   O     0.31490   0.84024   0.33380   0.00000  Uiso   1.00
O350   O     0.07463   0.83099   0.32446   0.00000  Uiso   1.00
O351   O     0.27592   0.76296   0.25576   0.00000  Uiso   1.00
O352   O     0.03565   0.75371   0.24642   0.00000  Uiso   1.00
O353   O     0.25870   0.83567   0.17554   0.00000  Uiso   1.00
O354   O     0.01843   0.82642   0.16620   0.00000  Uiso   1.00
O355   O     0.14423   0.93365   0.06752   0.00000  Uiso   1.00
Zn356  Zn    0.27119   0.83951   0.25623   0.00000  Uiso   1.00
Zn357  Zn    0.06214   0.82716   0.24376   0.00000  Uiso   1.00
C358   C     0.34801   0.93148   0.24847   0.00000  Uiso   1.00
C359   C     0.39882   0.87143   0.40831   0.00000  Uiso   1.00
C360   C     0.35566   0.98599   0.24765   0.00000  Uiso   1.00
C361   C     0.37211   0.84646   0.35291   0.00000  Uiso   1.00
C362   C     0.64412   0.68064   0.25190   0.00000  Uiso   1.00
C363   C     0.65191   0.73518   0.25133   0.00000  Uiso   1.00
C364   C     0.62956   0.82970   0.14571   0.00000  Uiso   1.00
C365   C     0.62373   0.81766   0.49629   0.00000  Uiso   1.00
C366   C     0.60914   0.83116   0.08711   0.00000  Uiso   1.00
C367   C     0.36485   0.89656   0.43869   0.00000  Uiso   1.00
C368   C     0.38984   0.91603   0.49244   0.00000  Uiso   1.00
C369   C     0.48171   0.87921   0.48804   0.00000  Uiso   1.00
C370   C     0.44820   0.90650   0.01871   0.00000  Uiso   1.00
C371   C     0.44451   0.93236   0.10773   0.00000  Uiso   1.00
C372   C     0.48589   0.94825   0.16325   0.00000  Uiso   1.00
C373   C     0.45988   0.87204   0.43108   0.00000  Uiso   1.00
C374   C     0.53674   0.85914   0.01063   0.00000  Uiso   1.00
C375   C     0.57142   0.84083   0.47543   0.00000  Uiso   1.00
C376   C     0.55379   0.84700   0.41975   0.00000  Uiso   1.00
C377   C     0.50058   0.86655   0.39882   0.00000  Uiso   1.00
C378   C     0.55546   0.85174   0.06624   0.00000  Uiso   1.00
C379   C     0.64336   0.81397   0.05230   0.00000  Uiso   1.00
H380   H     0.35146   0.79732   0.06829   0.00000  Uiso   1.00
H381   H     0.49180   0.87818   0.35760   0.00000  Uiso   1.00
H382   H     0.39804   0.66963   0.24373   0.00000  Uiso   1.00
H383   H     0.42350   0.89257   0.10979   0.00000  Uiso   1.00
H384   H     0.41053   0.96104   0.09963   0.00000  Uiso   1.00
H385   H     0.46084   0.95015   0.19537   0.00000  Uiso   1.00
H386   H     0.51939   0.91947   0.17413   0.00000  Uiso   1.00
H387   H     0.50852   0.98732   0.16195   0.00000  Uiso   1.00
H388   H     0.60173   0.99703   0.25588   0.00000  Uiso   1.00
H389   H     0.49036   0.78768   0.21484   0.00000  Uiso   1.00
H390   H     0.50978   0.88185   0.27987   0.00000  Uiso   1.00
H391   H     0.58054   0.83627   0.39231   0.00000  Uiso   1.00
H392   H     0.64977   0.80316   0.46940   0.00000  Uiso   1.00
H393   H     0.52788   0.86036   0.09365   0.00000  Uiso   1.00
H394   H     0.65328   0.90375   0.42000   0.00000  Uiso   1.00
H395   H     0.36346   0.93893   0.01285   0.00000  Uiso   1.00
N396   N     0.47827   0.81890   0.23542   0.00000  Uiso   1.00
N397   N     0.52173   0.84777   0.26457   0.00000  Uiso   1.00
O398   O     0.63102   0.91296   0.25357   0.00000  Uiso   1.00
O399   O     0.39075   0.90371   0.24423   0.00000  Uiso   1.00
O400   O     0.64823   0.84024   0.33380   0.00000  Uiso   1.00
O401   O     0.40796   0.83099   0.32446   0.00000  Uiso   1.00
O402   O     0.60925   0.76296   0.25576   0.00000  Uiso   1.00
O403   O     0.36898   0.75371   0.24642   0.00000  Uiso   1.00
O404   O     0.59204   0.83567   0.17554   0.00000  Uiso   1.00
O405   O     0.35177   0.82642   0.16620   0.00000  Uiso   1.00
O406   O     0.47756   0.93365   0.06752   0.00000  Uiso   1.00
Zn407  Zn    0.60453   0.83951   0.25623   0.00000  Uiso   1.00
Zn408  Zn    0.39547   0.82716   0.24376   0.00000  Uiso   1.00
C409   C     0.68134   0.93148   0.24847   0.00000  Uiso   1.00
C410   C     0.73216   0.87143   0.40831   0.00000  Uiso   1.00
C411   C     0.68899   0.98599   0.24765   0.00000  Uiso   1.00
C412   C     0.70545   0.84646   0.35291   0.00000  Uiso   1.00
C413   C     0.97745   0.68064   0.25190   0.00000  Uiso   1.00
C414   C     0.98524   0.73518   0.25133   0.00000  Uiso   1.00
C415   C     0.96289   0.82970   0.14571   0.00000  Uiso   1.00
C416   C     0.95706   0.81766   0.49629   0.00000  Uiso   1.00
C417   C     0.94248   0.83116   0.08711   0.00000  Uiso   1.00
C418   C     0.69818   0.89656   0.43869   0.00000  Uiso   1.00
C419   C     0.72317   0.91603   0.49244   0.00000  Uiso   1.00
C420   C     0.81504   0.87921   0.48804   0.00000  Uiso   1.00
C421   C     0.78153   0.90650   0.01871   0.00000  Uiso   1.00
C422   C     0.77785   0.93236   0.10773   0.00000  Uiso   1.00
C423   C     0.81922   0.94825   0.16325   0.00000  Uiso   1.00
C424   C     0.79322   0.87204   0.43108   0.00000  Uiso   1.00
C425   C     0.87007   0.85914   0.01063   0.00000  Uiso   1.00
C426   C     0.90476   0.84083   0.47543   0.00000  Uiso   1.00
C427   C     0.88713   0.84700   0.41975   0.00000  Uiso   1.00
C428   C     0.83391   0.86655   0.39882   0.00000  Uiso   1.00
C429   C     0.88879   0.85174   0.06624   0.00000  Uiso   1.00
C430   C     0.97669   0.81397   0.05230   0.00000  Uiso   1.00
H431   H     0.68479   0.79732   0.06829   0.00000  Uiso   1.00
H432   H     0.82513   0.87818   0.35760   0.00000  Uiso   1.00
H433   H     0.73138   0.66963   0.24373   0.00000  Uiso   1.00
H434   H     0.75683   0.89257   0.10979   0.00000  Uiso   1.00
H435   H     0.74386   0.96104   0.09963   0.00000  Uiso   1.00
H436   H     0.79417   0.95015   0.19537   0.00000  Uiso   1.00
H437   H     0.85272   0.91947   0.17413   0.00000  Uiso   1.00
H438   H     0.84185   0.98732   0.16195   0.00000  Uiso   1.00
H439   H     0.93506   0.99703   0.25588   0.00000  Uiso   1.00
H440   H     0.82369   0.78768   0.21484   0.00000  Uiso   1.00
H441   H     0.84312   0.88185   0.27987   0.00000  Uiso   1.00
H442   H     0.91387   0.83627   0.39231   0.00000  Uiso   1.00
H443   H     0.98311   0.80316   0.46940   0.00000  Uiso   1.00
H444   H     0.86122   0.86036   0.09365   0.00000  Uiso   1.00
H445   H     0.98662   0.90375   0.42000   0.00000  Uiso   1.00
H446   H     0.69679   0.93893   0.01285   0.00000  Uiso   1.00
N447   N     0.81160   0.81890   0.23542   0.00000  Uiso   1.00
N448   N     0.85507   0.84777   0.26457   0.00000  Uiso   1.00
O449   O     0.96435   0.91296   0.25357   0.00000  Uiso   1.00
O450   O     0.72408   0.90371   0.24423   0.00000  Uiso   1.00
O451   O     0.98157   0.84024   0.33380   0.00000  Uiso   1.00
O452   O     0.74130   0.83099   0.32446   0.00000  Uiso   1.00
O453   O     0.94258   0.76296   0.25576   0.00000  Uiso   1.00
O454   O     0.70231   0.75371   0.24642   0.00000  Uiso   1.00
O455   O     0.92537   0.83567   0.17554   0.00000  Uiso   1.00
O456   O     0.68510   0.82642   0.16620   0.00000  Uiso   1.00
O457   O     0.81090   0.93365   0.06752   0.00000  Uiso   1.00
Zn458  Zn    0.93786   0.83951   0.25623   0.00000  Uiso   1.00
Zn459  Zn    0.72881   0.82716   0.24376   0.00000  Uiso   1.00
C460   C     0.01468   0.26482   0.74847   0.00000  Uiso   1.00
C461   C     0.06549   0.20476   0.90831   0.00000  Uiso   1.00
C462   C     0.02233   0.31933   0.74765   0.00000  Uiso   1.00
C463   C     0.03878   0.17979   0.85291   0.00000  Uiso   1.00
C464   C     0.31079   0.01397   0.75190   0.00000  Uiso   1.00
C465   C     0.31857   0.06851   0.75133   0.00000  Uiso   1.00
C466   C     0.29623   0.16303   0.64571   0.00000  Uiso   1.00
C467   C     0.29040   0.15099   0.99629   0.00000  Uiso   1.00
C468   C     0.27581   0.16450   0.58711   0.00000  Uiso   1.00
C469   C     0.03152   0.22990   0.93869   0.00000  Uiso   1.00
C470   C     0.05650   0.24936   0.99244   0.00000  Uiso   1.00
C471   C     0.14837   0.21254   0.98804   0.00000  Uiso   1.00
C472   C     0.11487   0.23983   0.51871   0.00000  Uiso   1.00
C473   C     0.11118   0.26569   0.60773   0.00000  Uiso   1.00
C474   C     0.15255   0.28158   0.66325   0.00000  Uiso   1.00
C475   C     0.12655   0.20537   0.93108   0.00000  Uiso   1.00
C476   C     0.20341   0.19247   0.51063   0.00000  Uiso   1.00
C477   C     0.23809   0.17416   0.97543   0.00000  Uiso   1.00
C478   C     0.22046   0.18033   0.91975   0.00000  Uiso   1.00
C479   C     0.16725   0.19989   0.89882   0.00000  Uiso   1.00
C480   C     0.22212   0.18508   0.56624   0.00000  Uiso   1.00
C481   C     0.31002   0.14730   0.55230   0.00000  Uiso   1.00
H482   H     0.01813   0.13066   0.56829   0.00000  Uiso   1.00
H483   H     0.15847   0.21152   0.85760   0.00000  Uiso   1.00
H484   H     0.06471   0.00296   0.74373   0.00000  Uiso   1.00
H485   H     0.09017   0.22590   0.60979   0.00000  Uiso   1.00
H486   H     0.07720   0.29438   0.59963   0.00000  Uiso   1.00
H487   H     0.12751   0.28348   0.69537   0.00000  Uiso   1.00
H488   H     0.18605   0.25281   0.67413   0.00000  Uiso   1.00
H489   H     0.17518   0.32066   0.66195   0.00000  Uiso   1.00
H490   H     0.26839   0.33037   0.75588   0.00000  Uiso   1.00
H491   H     0.15702   0.12101   0.71484   0.00000  Uiso   1.00
H492   H     0.17645   0.21518   0.77987   0.00000  Uiso   1.00
H493   H     0.24721   0.16960   0.89231   0.00000  Uiso   1.00
H494   H     0.31644   0.13649   0.96940   0.00000  Uiso   1.00
H495   H     0.19455   0.19370   0.59365   0.00000  Uiso   1.00
H496   H     0.31995   0.23708   0.92000   0.00000  Uiso   1.00
H497   H     0.03012   0.27227   0.51285   0.00000  Uiso   1.00
N498   N     0.14493   0.15223   0.73542   0.00000  Uiso   1.00
N499   N     0.18840   0.18110   0.76457   0.00000  Uiso   1.00
O500   O     0.29769   0.24629   0.75357   0.00000  Uiso   1.00
O501   O     0.05742   0.23704   0.74423   0.00000  Uiso   1.00
O502   O     0.31490   0.17358   0.83380   0.00000  Uiso   1.00
O503   O     0.07463   0.16433   0.82446   0.00000  Uiso   1.00
O504   O     0.27592   0.09629   0.75576   0.00000  Uiso   1.00
O505   O     0.03565   0.08704   0.74642   0.00000  Uiso   1.00
O506   O     0.25870   0.16901   0.67554   0.00000  Uiso   1.00
O507   O     0.01843   0.15976   0.66620   0.00000  Uiso   1.00
O508   O     0.14423   0.26698   0.56752   0.00000  Uiso   1.00
Zn509  Zn    0.27119   0.17284   0.75623   0.00000  Uiso   1.00
Zn510  Zn    0.06214   0.16049   0.74376   0.00000  Uiso   1.00
C511   C     0.34801   0.26482   0.74847   0.00000  Uiso   1.00
C512   C     0.39882   0.20476   0.90831   0.00000  Uiso   1.00
C513   C     0.35566   0.31933   0.74765   0.00000  Uiso   1.00
C514   C     0.37211   0.17979   0.85291   0.00000  Uiso   1.00
C515   C     0.64412   0.01397   0.75190   0.00000  Uiso   1.00
C516   C     0.65191   0.06851   0.75133   0.00000  Uiso   1.00
C517   C     0.62956   0.16303   0.64571   0.00000  Uiso   1.00
C518   C     0.62373   0.15099   0.99629   0.00000  Uiso   1.00
C519   C     0.60914   0.16450   0.58711   0.00000  Uiso   1.00
C520   C     0.36485   0.22990   0.93869   0.00000  Uiso   1.00
C521   C     0.38984   0.24936   0.99244   0.00000  Uiso   1.00
C522   C     0.48171   0.21254   0.98804   0.00000  Uiso   1.00
C523   C     0.44820   0.23983   0.51871   0.00000  Uiso   1.00
C524   C     0.44451   0.26569   0.60773   0.00000  Uiso   1.00
C525   C     0.48589   0.28158   0.66325   0.00000  Uiso   1.00
C526   C     0.45988   0.20537   0.93108   0.00000  Uiso   1.00
C527   C     0.53674   0.19247   0.51063   0.00000  Uiso   1.00
C528   C     0.57142   0.17416   0.97543   0.00000  Uiso   1.00
C529   C     0.55379   0.18033   0.91975   0.00000  Uiso   1.00
C530   C     0.50058   0.19989   0.89882   0.00000  Uiso   1.00
C531   C     0.55546   0.18508   0.56624   0.00000  Uiso   1.00
C532   C     0.64336   0.14730   0.55230   0.00000  Uiso   1.00
H533   H     0.35146   0.13066   0.56829   0.00000  Uiso   1.00
H534   H     0.49180   0.21152   0.85760   0.00000  Uiso   1.00
H535   H     0.39804   0.00296   0.74373   0.00000  Uiso   1.00
H536   H     0.42350   0.22590   0.60979   0.00000  Uiso   1.00
H537   H     0.41053   0.29438   0.59963   0.00000  Uiso   1.00
H538   H     0.46084   0.28348   0.69537   0.00000  Uiso   1.00
H539   H     0.51939   0.25281   0.67413   0.00000  Uiso   1.00
H540   H     0.50852   0.32066   0.66195   0.00000  Uiso   1.00
H541   H     0.60173   0.33037   0.75588   0.00000  Uiso   1.00
H542   H     0.49036   0.12101   0.71484   0.00000  Uiso   1.00
H543   H     0.50978   0.21518   0.77987   0.00000  Uiso   1.00
H544   H     0.58054   0.16960   0.89231   0.00000  Uiso   1.00
H545   H     0.64977   0.13649   0.96940   0.00000  Uiso   1.00
H546   H     0.52788   0.19370   0.59365   0.00000  Uiso   1.00
H547   H     0.65328   0.23708   0.92000   0.00000  Uiso   1.00
H548   H     0.36346   0.27227   0.51285   0.00000  Uiso   1.00
N549   N     0.47827   0.15223   0.73542   0.00000  Uiso   1.00
N550   N     0.52173   0.18110   0.76457   0.00000  Uiso   1.00
O551   O     0.63102   0.24629   0.75357   0.00000  Uiso   1.00
O552   O     0.39075   0.23704   0.74423   0.00000  Uiso   1.00
O553   O     0.64823   0.17358   0.83380   0.00000  Uiso   1.00
O554   O     0.40796   0.16433   0.82446   0.00000  Uiso   1.00
O555   O     0.60925   0.09629   0.75576   0.00000  Uiso   1.00
O556   O     0.36898   0.08704   0.74642   0.00000  Uiso   1.00
O557   O     0.59204   0.16901   0.67554   0.00000  Uiso   1.00
O558   O     0.35177   0.15976   0.66620   0.00000  Uiso   1.00
O559   O     0.47756   0.26698   0.56752   0.00000  Uiso   1.00
Zn560  Zn    0.60453   0.17284   0.75623   0.00000  Uiso   1.00
Zn561  Zn    0.39547   0.16049   0.74376   0.00000  Uiso   1.00
C562   C     0.68134   0.26482   0.74847   0.00000  Uiso   1.00
C563   C     0.73216   0.20476   0.90831   0.00000  Uiso   1.00
C564   C     0.68899   0.31933   0.74765   0.00000  Uiso   1.00
C565   C     0.70545   0.17979   0.85291   0.00000  Uiso   1.00
C566   C     0.97745   0.01397   0.75190   0.00000  Uiso   1.00
C567   C     0.98524   0.06851   0.75133   0.00000  Uiso   1.00
C568   C     0.96289   0.16303   0.64571   0.00000  Uiso   1.00
C569   C     0.95706   0.15099   0.99629   0.00000  Uiso   1.00
C570   C     0.94248   0.16450   0.58711   0.00000  Uiso   1.00
C571   C     0.69818   0.22990   0.93869   0.00000  Uiso   1.00
C572   C     0.72317   0.24936   0.99244   0.00000  Uiso   1.00
C573   C     0.81504   0.21254   0.98804   0.00000  Uiso   1.00
C574   C     0.78153   0.23983   0.51871   0.00000  Uiso   1.00
C575   C     0.77785   0.26569   0.60773   0.00000  Uiso   1.00
C576   C     0.81922   0.28158   0.66325   0.00000  Uiso   1.00
C577   C     0.79322   0.20537   0.93108   0.00000  Uiso   1.00
C578   C     0.87007   0.19247   0.51063   0.00000  Uiso   1.00
C579   C     0.90476   0.17416   0.97543   0.00000  Uiso   1.00
C580   C     0.88713   0.18033   0.91975   0.00000  Uiso   1.00
C581   C     0.83391   0.19989   0.89882   0.00000  Uiso   1.00
C582   C     0.88879   0.18508   0.56624   0.00000  Uiso   1.00
C583   C     0.97669   0.14730   0.55230   0.00000  Uiso   1.00
H584   H     0.68479   0.13066   0.56829   0.00000  Uiso   1.00
H585   H     0.82513   0.21152   0.85760   0.00000  Uiso   1.00
H586   H     0.73138   0.00296   0.74373   0.00000  Uiso   1.00
H587   H     0.75683   0.22590   0.60979   0.00000  Uiso   1.00
H588   H     0.74386   0.29438   0.59963   0.00000  Uiso   1.00
H589   H     0.79417   0.28348   0.69537   0.00000  Uiso   1.00
H590   H     0.85272   0.25281   0.67413   0.00000  Uiso   1.00
H591   H     0.84185   0.32066   0.66195   0.00000  Uiso   1.00
H592   H     0.93506   0.33037   0.75588   0.00000  Uiso   1.00
H593   H     0.82369   0.12101   0.71484   0.00000  Uiso   1.00
H594   H     0.84312   0.21518   0.77987   0.00000  Uiso   1.00
H595   H     0.91387   0.16960   0.89231   0.00000  Uiso   1.00
H596   H     0.98311   0.13649   0.96940   0.00000  Uiso   1.00
H597   H     0.86122   0.19370   0.59365   0.00000  Uiso   1.00
H598   H     0.98662   0.23708   0.92000   0.00000  Uiso   1.00
H599   H     0.69679   0.27227   0.51285   0.00000  Uiso   1.00
N600   N     0.81160   0.15223   0.73542   0.00000  Uiso   1.00
N601   N     0.85507   0.18110   0.76457   0.00000  Uiso   1.00
O602   O     0.96435   0.24629   0.75357   0.00000  Uiso   1.00
O603   O     0.72408   0.23704   0.74423   0.00000  Uiso   1.00
O604   O     0.98157   0.17358   0.83380   0.00000  Uiso   1.00
O605   O     0.74130   0.16433   0.82446   0.00000  Uiso   1.00
O606   O     0.94258   0.09629   0.75576   0.00000  Uiso   1.00
O607   O     0.70231   0.08704   0.74642   0.00000  Uiso   1.00
O608   O     0.92537   0.16901   0.67554   0.00000  Uiso   1.00
O609   O     0.68510   0.15976   0.66620   0.00000  Uiso   1.00
O610   O     0.81090   0.26698   0.56752   0.00000  Uiso   1.00
Zn611  Zn    0.93786   0.17284   0.75623   0.00000  Uiso   1.00
Zn612  Zn    0.72881   0.16049   0.74376   0.00000  Uiso   1.00
C613   C     0.01468   0.59815   0.74847   0.00000  Uiso   1.00
C614   C     0.06549   0.53810   0.90831   0.00000  Uiso   1.00
C615   C     0.02233   0.65266   0.74765   0.00000  Uiso   1.00
C616   C     0.03878   0.51313   0.85291   0.00000  Uiso   1.00
C617   C     0.31079   0.34730   0.75190   0.00000  Uiso   1.00
C618   C     0.31857   0.40184   0.75133   0.00000  Uiso   1.00
C619   C     0.29623   0.49636   0.64571   0.00000  Uiso   1.00
C620   C     0.29040   0.48432   0.99629   0.00000  Uiso   1.00
C621   C     0.27581   0.49783   0.58711   0.00000  Uiso   1.00
C622   C     0.03152   0.56323   0.93869   0.00000  Uiso   1.00
C623   C     0.05650   0.58269   0.99244   0.00000  Uiso   1.00
C624   C     0.14837   0.54588   0.98804   0.00000  Uiso   1.00
C625   C     0.11487   0.57316   0.51871   0.00000  Uiso   1.00
C626   C     0.11118   0.59903   0.60773   0.00000  Uiso   1.00
C627   C     0.15255   0.61491   0.66325   0.00000  Uiso   1.00
C628   C     0.12655   0.53871   0.93108   0.00000  Uiso   1.00
C629   C     0.20341   0.52580   0.51063   0.00000  Uiso   1.00
C630   C     0.23809   0.50749   0.97543   0.00000  Uiso   1.00
C631   C     0.22046   0.51367   0.91975   0.00000  Uiso   1.00
C632   C     0.16725   0.53322   0.89882   0.00000  Uiso   1.00
C633   C     0.22212   0.51841   0.56624   0.00000  Uiso   1.00
C634   C     0.31002   0.48063   0.55230   0.00000  Uiso   1.00
H635   H     0.01813   0.46399   0.56829   0.00000  Uiso   1.00
H636   H     0.15847   0.54485   0.85760   0.00000  Uiso   1.00
H637   H     0.06471   0.33630   0.74373   0.00000  Uiso   1.00
H638   H     0.09017   0.55923   0.60979   0.00000  Uiso   1.00
H639   H     0.07720   0.62771   0.59963   0.00000  Uiso   1.00
H640   H     0.12751   0.61681   0.69537   0.00000  Uiso   1.00
H641   H     0.18605   0.58614   0.67413   0.00000  Uiso   1.00
H642   H     0.17518   0.65399   0.66195   0.00000  Uiso   1.00
H643   H     0.26839   0.66370   0.75588   0.00000  Uiso   1.00
H644   H     0.15702   0.45434   0.71484   0.00000  Uiso   1.00
H645   H     0.17645   0.54852   0.77987   0.00000  Uiso   1.00
H646   H     0.24721   0.50293   0.89231   0.00000  Uiso   1.00
H647   H     0.31644   0.46983   0.96940   0.00000  Uiso   1.00
H648   H     0.19455   0.52703   0.59365   0.00000  Uiso   1.00
H649   H     0.31995   0.57041   0.92000   0.00000  Uiso   1.00
H650   H     0.03012   0.60560   0.51285   0.00000  Uiso   1.00
N651   N     0.14493   0.48556   0.73542   0.00000  Uiso   1.00
N652   N     0.18840   0.51444   0.76457   0.00000  Uiso   1.00
O653   O     0.29769   0.57963   0.75357   0.00000  Uiso   1.00
O654   O     0.05742   0.57038   0.74423   0.00000  Uiso   1.00
O655   O     0.31490   0.50691   0.83380   0.00000  Uiso   1.00
O656   O     0.07463   0.49766   0.82446   0.00000  Uiso   1.00
O657   O     0.27592   0.42962   0.75576   0.00000  Uiso   1.00
O658   O     0.03565   0.42037   0.74642   0.00000  Uiso   1.00
O659   O     0.25870   0.50234   0.67554   0.00000  Uiso   1.00
O660   O     0.01843   0.49309   0.66620   0.00000  Uiso   1.00
O661   O     0.14423   0.60031   0.56752   0.00000  Uiso   1.00
Zn662  Zn    0.27119   0.50618   0.75623   0.00000  Uiso   1.00
Zn663  Zn    0.06214   0.49382   0.74376   0.00000  Uiso   1.00
C664   C     0.34801   0.59815   0.74847   0.00000  Uiso   1.00
C665   C     0.39882   0.53810   0.90831   0.00000  Uiso   1.00
C666   C     0.35566   0.65266   0.74765   0.00000  Uiso   1.00
C667   C     0.37211   0.51313   0.85291   0.00000  Uiso   1.00
C668   C     0.64412   0.34730   0.75190   0.00000  Uiso   1.00
C669   C     0.65191   0.40184   0.75133   0.00000  Uiso   1.00
C670   C     0.62956   0.49636   0.64571   0.00000  Uiso   1.00
C671   C     0.62373   0.48432   0.99629   0.00000  Uiso   1.00
C672   C     0.60914   0.49783   0.58711   0.00000  Uiso   1.00
C673   C     0.36485   0.56323   0.93869   0.00000  Uiso   1.00
C674   C     0.38984   0.58269   0.99244   0.00000  Uiso   1.00
C675   C     0.48171   0.54588   0.98804   0.00000  Uiso   1.00
C676   C     0.44820   0.57316   0.51871   0.00000  Uiso   1.00
C677   C     0.44451   0.59903   0.60773   0.00000  Uiso   1.00
C678   C     0.48589   0.61491   0.66325   0.00000  Uiso   1.00
C679   C     0.45988   0.53871   0.93108   0.00000  Uiso   1.00
C680   C     0.53674   0.52580   0.51063   0.00000  Uiso   1.00
C681   C     0.57142   0.50749   0.97543   0.00000  Uiso   1.00
C682   C     0.55379   0.51367   0.91975   0.00000  Uiso   1.00
C683   C     0.50058   0.53322   0.89882   0.00000  Uiso   1.00
C684   C     0.55546   0.51841   0.56624   0.00000  Uiso   1.00
C685   C     0.64336   0.48063   0.55230   0.00000  Uiso   1.00
H686   H     0.35146   0.46399   0.56829   0.00000  Uiso   1.00
H687   H     0.49180   0.54485   0.85760   0.00000  Uiso   1.00
H688   H     0.39804   0.33630   0.74373   0.00000  Uiso   1.00
H689   H     0.42350   0.55923   0.60979   0.00000  Uiso   1.00
H690   H     0.41053   0.62771   0.59963   0.00000  Uiso   1.00
H691   H     0.46084   0.61681   0.69537   0.00000  Uiso   1.00
H692   H     0.51939   0.58614   0.67413   0.00000  Uiso   1.00
H693   H     0.50852   0.65399   0.66195   0.00000  Uiso   1.00
H694   H     0.60173   0.66370   0.75588   0.00000  Uiso   1.00
H695   H     0.49036   0.45434   0.71484   0.00000  Uiso   1.00
H696   H     0.50978   0.54852   0.77987   0.00000  Uiso   1.00
H697   H     0.58054   0.50293   0.89231   0.00000  Uiso   1.00
H698   H     0.64977   0.46983   0.96940   0.00000  Uiso   1.00
H699   H     0.52788   0.52703   0.59365   0.00000  Uiso   1.00
H700   H     0.65328   0.57041   0.92000   0.00000  Uiso   1.00
H701   H     0.36346   0.60560   0.51285   0.00000  Uiso   1.00
N702   N     0.47827   0.48556   0.73542   0.00000  Uiso   1.00
N703   N     0.52173   0.51444   0.76457   0.00000  Uiso   1.00
O704   O     0.63102   0.57963   0.75357   0.00000  Uiso   1.00
O705   O     0.39075   0.57038   0.74423   0.00000  Uiso   1.00
O706   O     0.64823   0.50691   0.83380   0.00000  Uiso   1.00
O707   O     0.40796   0.49766   0.82446   0.00000  Uiso   1.00
O708   O     0.60925   0.42962   0.75576   0.00000  Uiso   1.00
O709   O     0.36898   0.42037   0.74642   0.00000  Uiso   1.00
O710   O     0.59204   0.50234   0.67554   0.00000  Uiso   1.00
O711   O     0.35177   0.49309   0.66620   0.00000  Uiso   1.00
O712   O     0.47756   0.60031   0.56752   0.00000  Uiso   1.00
Zn713  Zn    0.60453   0.50618   0.75623   0.00000  Uiso   1.00
Zn714  Zn    0.39547   0.49382   0.74376   0.00000  Uiso   1.00
C715   C     0.68134   0.59815   0.74847   0.00000  Uiso   1.00
C716   C     0.73216   0.53810   0.90831   0.00000  Uiso   1.00
C717   C     0.68899   0.65266   0.74765   0.00000  Uiso   1.00
C718   C     0.70545   0.51313   0.85291   0.00000  Uiso   1.00
C719   C     0.97745   0.34730   0.75190   0.00000  Uiso   1.00
C720   C     0.98524   0.40184   0.75133   0.00000  Uiso   1.00
C721   C     0.96289   0.49636   0.64571   0.00000  Uiso   1.00
C722   C     0.95706   0.48432   0.99629   0.00000  Uiso   1.00
C723   C     0.94248   0.49783   0.58711   0.00000  Uiso   1.00
C724   C     0.69818   0.56323   0.93869   0.00000  Uiso   1.00
C725   C     0.72317   0.58269   0.99244   0.00000  Uiso   1.00
C726   C     0.81504   0.54588   0.98804   0.00000  Uiso   1.00
C727   C     0.78153   0.57316   0.51871   0.00000  Uiso   1.00
C728   C     0.77785   0.59903   0.60773   0.00000  Uiso   1.00
C729   C     0.81922   0.61491   0.66325   0.00000  Uiso   1.00
C730   C     0.79322   0.53871   0.93108   0.00000  Uiso   1.00
C731   C     0.87007   0.52580   0.51063   0.00000  Uiso   1.00
C732   C     0.90476   0.50749   0.97543   0.00000  Uiso   1.00
C733   C     0.88713   0.51367   0.91975   0.00000  Uiso   1.00
C734   C     0.83391   0.53322   0.89882   0.00000  Uiso   1.00
C735   C     0.88879   0.51841   0.56624   0.00000  Uiso   1.00
C736   C     0.97669   0.48063   0.55230   0.00000  Uiso   1.00
H737   H     0.68479   0.46399   0.56829   0.00000  Uiso   1.00
H738   H     0.82513   0.54485   0.85760   0.00000  Uiso   1.00
H739   H     0.73138   0.33630   0.74373   0.00000  Uiso   1.00
H740   H     0.75683   0.55923   0.60979   0.00000  Uiso   1.00
H741   H     0.74386   0.62771   0.59963   0.00000  Uiso   1.00
H742   H     0.79417   0.61681   0.69537   0.00000  Uiso   1.00
H743   H     0.85272   0.58614   0.67413   0.00000  Uiso   1.00
H744   H     0.84185   0.65399   0.66195   0.00000  Uiso   1.00
H745   H     0.93506   0.66370   0.75588   0.00000  Uiso   1.00
H746   H     0.82369   0.45434   0.71484   0.00000  Uiso   1.00
H747   H     0.84312   0.54852   0.77987   0.00000  Uiso   1.00
H748   H     0.91387   0.50293   0.89231   0.00000  Uiso   1.00
H749   H     0.98311   0.46983   0.96940   0.00000  Uiso   1.00
H750   H     0.86122   0.52703   0.59365   0.00000  Uiso   1.00
H751   H     0.98662   0.57041   0.92000   0.00000  Uiso   1.00
H752   H     0.69679   0.60560   0.51285   0.00000  Uiso   1.00
N753   N     0.81160   0.48556   0.73542   0.00000  Uiso   1.00
N754   N     0.85507   0.51444   0.76457   0.00000  Uiso   1.00
O755   O     0.96435   0.57963   0.75357   0.00000  Uiso   1.00
O756   O     0.72408   0.57038   0.74423   0.00000  Uiso   1.00
O757   O     0.98157   0.50691   0.83380   0.00000  Uiso   1.00
O758   O     0.74130   0.49766   0.82446   0.00000  Uiso   1.00
O759   O     0.94258   0.42962   0.75576   0.00000  Uiso   1.00
O760   O     0.70231   0.42037   0.74642   0.00000  Uiso   1.00
O761   O     0.92537   0.50234   0.67554   0.00000  Uiso   1.00
O762   O     0.68510   0.49309   0.66620   0.00000  Uiso   1.00
O763   O     0.81090   0.60031   0.56752   0.00000  Uiso   1.00
Zn764  Zn    0.93786   0.50618   0.75623   0.00000  Uiso   1.00
Zn765  Zn    0.72881   0.49382   0.74376   0.00000  Uiso   1.00
C766   C     0.01468   0.93148   0.74847   0.00000  Uiso   1.00
C767   C     0.06549   0.87143   0.90831   0.00000  Uiso   1.00
C768   C     0.02233   0.98599   0.74765   0.00000  Uiso   1.00
C769   C     0.03878   0.84646   0.85291   0.00000  Uiso   1.00
C770   C     0.31079   0.68064   0.75190   0.00000  Uiso   1.00
C771   C     0.31857   0.73518   0.75133   0.00000  Uiso   1.00
C772   C     0.29623   0.82970   0.64571   0.00000  Uiso   1.00
C773   C     0.29040   0.81766   0.99629   0.00000  Uiso   1.00
C774   C     0.27581   0.83116   0.58711   0.00000  Uiso   1.00
C775   C     0.03152   0.89656   0.93869   0.00000  Uiso   1.00
C776   C     0.05650   0.91603   0.99244   0.00000  Uiso   1.00
C777   C     0.14837   0.87921   0.98804   0.00000  Uiso   1.00
C778   C     0.11487   0.90650   0.51871   0.00000  Uiso   1.00
C779   C     0.11118   0.93236   0.60773   0.00000  Uiso   1.00
C780   C     0.15255   0.94825   0.66325   0.00000  Uiso   1.00
C781   C     0.12655   0.87204   0.93108   0.00000  Uiso   1.00
C782   C     0.20341   0.85914   0.51063   0.00000  Uiso   1.00
C783   C     0.23809   0.84083   0.97543   0.00000  Uiso   1.00
C784   C     0.22046   0.84700   0.91975   0.00000  Uiso   1.00
C785   C     0.16725   0.86655   0.89882   0.00000  Uiso   1.00
C786   C     0.22212   0.85174   0.56624   0.00000  Uiso   1.00
C787   C     0.31002   0.81397   0.55230   0.00000  Uiso   1.00
H788   H     0.01813   0.79732   0.56829   0.00000  Uiso   1.00
H789   H     0.15847   0.87818   0.85760   0.00000  Uiso   1.00
H790   H     0.06471   0.66963   0.74373   0.00000  Uiso   1.00
H791   H     0.09017   0.89257   0.60979   0.00000  Uiso   1.00
H792   H     0.07720   0.96104   0.59963   0.00000  Uiso   1.00
H793   H     0.12751   0.95015   0.69537   0.00000  Uiso   1.00
H794   H     0.18605   0.91947   0.67413   0.00000  Uiso   1.00
H795   H     0.17518   0.98732   0.66195   0.00000  Uiso   1.00
H796   H     0.26839   0.99703   0.75588   0.00000  Uiso   1.00
H797   H     0.15702   0.78768   0.71484   0.00000  Uiso   1.00
H798   H     0.17645   0.88185   0.77987   0.00000  Uiso   1.00
H799   H     0.24721   0.83627   0.89231   0.00000  Uiso   1.00
H800   H     0.31644   0.80316   0.96940   0.00000  Uiso   1.00
H801   H     0.19455   0.86036   0.59365   0.00000  Uiso   1.00
H802   H     0.31995   0.90375   0.92000   0.00000  Uiso   1.00
H803   H     0.03012   0.93893   0.51285   0.00000  Uiso   1.00
N804   N     0.14493   0.81890   0.73542   0.00000  Uiso   1.00
N805   N     0.18840   0.84777   0.76457   0.00000  Uiso   1.00
O806   O     0.29769   0.91296   0.75357   0.00000  Uiso   1.00
O807   O     0.05742   0.90371   0.74423   0.00000  Uiso   1.00
O808   O     0.31490   0.84024   0.83380   0.00000  Uiso   1.00
O809   O     0.07463   0.83099   0.82446   0.00000  Uiso   1.00
O810   O     0.27592   0.76296   0.75576   0.00000  Uiso   1.00
O811   O     0.03565   0.75371   0.74642   0.00000  Uiso   1.00
O812   O     0.25870   0.83567   0.67554   0.00000  Uiso   1.00
O813   O     0.01843   0.82642   0.66620   0.00000  Uiso   1.00
O814   O     0.14423   0.93365   0.56752   0.00000  Uiso   1.00
Zn815  Zn    0.27119   0.83951   0.75623   0.00000  Uiso   1.00
Zn816  Zn    0.06214   0.82716   0.74376   0.00000  Uiso   1.00
C817   C     0.34801   0.93148   0.74847   0.00000  Uiso   1.00
C818   C     0.39882   0.87143   0.90831   0.00000  Uiso   1.00
C819   C     0.35566   0.98599   0.74765   0.00000  Uiso   1.00
C820   C     0.37211   0.84646   0.85291   0.00000  Uiso   1.00
C821   C     0.64412   0.68064   0.75190   0.00000  Uiso   1.00
C822   C     0.65191   0.73518   0.75133   0.00000  Uiso   1.00
C823   C     0.62956   0.82970   0.64571   0.00000  Uiso   1.00
C824   C     0.62373   0.81766   0.99629   0.00000  Uiso   1.00
C825   C     0.60914   0.83116   0.58711   0.00000  Uiso   1.00
C826   C     0.36485   0.89656   0.93869   0.00000  Uiso   1.00
C827   C     0.38984   0.91603   0.99244   0.00000  Uiso   1.00
C828   C     0.48171   0.87921   0.98804   0.00000  Uiso   1.00
C829   C     0.44820   0.90650   0.51871   0.00000  Uiso   1.00
C830   C     0.44451   0.93236   0.60773   0.00000  Uiso   1.00
C831   C     0.48589   0.94825   0.66325   0.00000  Uiso   1.00
C832   C     0.45988   0.87204   0.93108   0.00000  Uiso   1.00
C833   C     0.53674   0.85914   0.51063   0.00000  Uiso   1.00
C834   C     0.57142   0.84083   0.97543   0.00000  Uiso   1.00
C835   C     0.55379   0.84700   0.91975   0.00000  Uiso   1.00
C836   C     0.50058   0.86655   0.89882   0.00000  Uiso   1.00
C837   C     0.55546   0.85174   0.56624   0.00000  Uiso   1.00
C838   C     0.64336   0.81397   0.55230   0.00000  Uiso   1.00
H839   H     0.35146   0.79732   0.56829   0.00000  Uiso   1.00
H840   H     0.49180   0.87818   0.85760   0.00000  Uiso   1.00
H841   H     0.39804   0.66963   0.74373   0.00000  Uiso   1.00
H842   H     0.42350   0.89257   0.60979   0.00000  Uiso   1.00
H843   H     0.41053   0.96104   0.59963   0.00000  Uiso   1.00
H844   H     0.46084   0.95015   0.69537   0.00000  Uiso   1.00
H845   H     0.51939   0.91947   0.67413   0.00000  Uiso   1.00
H846   H     0.50852   0.98732   0.66195   0.00000  Uiso   1.00
H847   H     0.60173   0.99703   0.75588   0.00000  Uiso   1.00
H848   H     0.49036   0.78768   0.71484   0.00000  Uiso   1.00
H849   H     0.50978   0.88185   0.77987   0.00000  Uiso   1.00
H850   H     0.58054   0.83627   0.89231   0.00000  Uiso   1.00
H851   H     0.64977   0.80316   0.96940   0.00000  Uiso   1.00
H852   H     0.52788   0.86036   0.59365   0.00000  Uiso   1.00
H853   H     0.65328   0.90375   0.92000   0.00000  Uiso   1.00
H854   H     0.36346   0.93893   0.51285   0.00000  Uiso   1.00
N855   N     0.47827   0.81890   0.73542   0.00000  Uiso   1.00
N856   N     0.52173   0.84777   0.76457   0.00000  Uiso   1.00
O857   O     0.63102   0.91296   0.75357   0.00000  Uiso   1.00
O858   O     0.39075   0.90371   0.74423   0.00000  Uiso   1.00
O859   O     0.64823   0.84024   0.83380   0.00000  Uiso   1.00
O860   O     0.40796   0.83099   0.82446   0.00000  Uiso   1.00
O861   O     0.60925   0.76296   0.75576   0.00000  Uiso   1.00
O862   O     0.36898   0.75371   0.74642   0.00000  Uiso   1.00
O863   O     0.59204   0.83567   0.67554   0.00000  Uiso   1.00
O864   O     0.35177   0.82642   0.66620   0.00000  Uiso   1.00
O865   O     0.47756   0.93365   0.56752   0.00000  Uiso   1.00
Zn866  Zn    0.60453   0.83951   0.75623   0.00000  Uiso   1.00
Zn867  Zn    0.39547   0.82716   0.74376   0.00000  Uiso   1.00
C868   C     0.68134   0.93148   0.74847   0.00000  Uiso   1.00
C869   C     0.73216   0.87143   0.90831   0.00000  Uiso   1.00
C870   C     0.68899   0.98599   0.74765   0.00000  Uiso   1.00
C871   C     0.70545   0.84646   0.85291   0.00000  Uiso   1.00
C872   C     0.97745   0.68064   0.75190   0.00000  Uiso   1.00
C873   C     0.98524   0.73518   0.75133   0.00000  Uiso   1.00
C874   C     0.96289   0.82970   0.64571   0.00000  Uiso   1.00
C875   C     0.95706   0.81766   0.99629   0.00000  Uiso   1.00
C876   C     0.94248   0.83116   0.58711   0.00000  Uiso   1.00
C877   C     0.69818   0.89656   0.93869   0.00000  Uiso   1.00
C878   C     0.72317   0.91603   0.99244   0.00000  Uiso   1.00
C879   C     0.81504   0.87921   0.98804   0.00000  Uiso   1.00
C880   C     0.78153   0.90650   0.51871   0.00000  Uiso   1.00
C881   C     0.77785   0.93236   0.60773   0.00000  Uiso   1.00
C882   C     0.81922   0.94825   0.66325   0.00000  Uiso   1.00
C883   C     0.79322   0.87204   0.93108   0.00000  Uiso   1.00
C884   C     0.87007   0.85914   0.51063   0.00000  Uiso   1.00
C885   C     0.90476   0.84083   0.97543   0.00000  Uiso   1.00
C886   C     0.88713   0.84700   0.91975   0.00000  Uiso   1.00
C887   C     0.83391   0.86655   0.89882   0.00000  Uiso   1.00
C888   C     0.88879   0.85174   0.56624   0.00000  Uiso   1.00
C889   C     0.97669   0.81397   0.55230   0.00000  Uiso   1.00
H890   H     0.68479   0.79732   0.56829   0.00000  Uiso   1.00
H891   H     0.82513   0.87818   0.85760   0.00000  Uiso   1.00
H892   H     0.73138   0.66963   0.74373   0.00000  Uiso   1.00
H893   H     0.75683   0.89257   0.60979   0.00000  Uiso   1.00
H894   H     0.74386   0.96104   0.59963   0.00000  Uiso   1.00
H895   H     0.79417   0.95015   0.69537   0.00000  Uiso   1.00
H896   H     0.85272   0.91947   0.67413   0.00000  Uiso   1.00
H897   H     0.84185   0.98732   0.66195   0.00000  Uiso   1.00
H898   H     0.93506   0.99703   0.75588   0.00000  Uiso   1.00
H899   H     0.82369   0.78768   0.71484   0.00000  Uiso   1.00
H900   H     0.84312   0.88185   0.77987   0.00000  Uiso   1.00
H901   H     0.91387   0.83627   0.89231   0.00000  Uiso   1.00
H902   H     0.98311   0.80316   0.96940   0.00000  Uiso   1.00
H903   H     0.86122   0.86036   0.59365   0.00000  Uiso   1.00
H904   H     0.98662   0.90375   0.92000   0.00000  Uiso   1.00
H905   H     0.69679   0.93893   0.51285   0.00000  Uiso   1.00
N906   N     0.81160   0.81890   0.73542   0.00000  Uiso   1.00
N907   N     0.85507   0.84777   0.76457   0.00000  Uiso   1.00
O908   O     0.96435   0.91296   0.75357   0.00000  Uiso   1.00
O909   O     0.72408   0.90371   0.74423   0.00000  Uiso   1.00
O910   O     0.98157   0.84024   0.83380   0.00000  Uiso   1.00
O911   O     0.74130   0.83099   0.82446   0.00000  Uiso   1.00
O912   O     0.94258   0.76296   0.75576   0.00000  Uiso   1.00
O913   O     0.70231   0.75371   0.74642   0.00000  Uiso   1.00
O914   O     0.92537   0.83567   0.67554   0.00000  Uiso   1.00
O915   O     0.68510   0.82642   0.66620   0.00000  Uiso   1.00
O916   O     0.81090   0.93365   0.56752   0.00000  Uiso   1.00
Zn917  Zn    0.93786   0.83951   0.75623   0.00000  Uiso   1.00
Zn918  Zn    0.72881   0.82716   0.74376   0.00000  Uiso   1.00
loop_
_geom_bond_atom_site_label_1
_geom_bond_atom_site_label_2
_geom_bond_distance
_geom_bond_site_symmetry_2
_ccdc_geom_bond_type
C1     O42     1.291   .     A
C1     C3      1.403   .     S
C1     O143    1.281   1_455 S
C2     C16     1.410   .     A
C2     C4      1.485   .     S
C2     C10     1.398   .     A
C3     C260    1.336   1_455 S
C3     H178    1.087   .     S
C4     O44     1.297   .     A
C4     O145    1.311   1_455 S
C5     C6      1.404   .     S
C5     C360    1.336   1_545 S
C5     H337    1.088   1_545 S
C6     O45     1.291   .     A
C6     O97     1.281   .     S
C7     C9      1.439   .     S
C7     O47     1.297   .     A
C7     O99     1.293   .     S
C8     H35     1.084   .     S
C8     C18     1.397   .     A
C8     C481    1.382   .     S
C9     C21     1.393   .     A
C9     C22     1.398   .     A
C10    C11     1.396   .     A
C10    H139    1.079   1_455 S
C11    C472    1.414   .     S
C11    H497    1.081   .     S
C12    C16     1.401   .     A
C12    C472    1.422   .     S
C12    C476    1.421   .     S
C13    O49     1.391   .     S
C13    C470    1.414   1_554 S
C13    C471    1.422   1_554 S
C14    H27     1.111   .     S
C14    H26     1.115   .     S
C14    O49     1.412   .     S
C14    C15     1.522   .     S
C15    H28     1.106   .     S
C15    H29     1.110   .     S
C15    H30     1.111   .     S
C16    C20     1.401   .     A
C17    C21     1.386   .     A
C17    C471    1.421   1_554 S
C17    C477    1.423   1_554 S
C18    C19     1.380   .     A
C18    C476    1.423   .     S
C19    C20     1.372   .     A
C19    H34     1.076   .     S
C20    H24     1.065   .     S
C21    H36     1.077   .     S
C22    C467    1.382   1_554 S
C22    H74     1.083   .     S
H23    C124    1.083   1_455 S
H25    C309    1.087   1_545 S
H31    C158    1.088   .     S
H32    N39     1.029   .     S
H33    N40     1.025   .     S
H37    C61     1.079   .     S
H38    C470    1.081   1_554 S
N39    N40     1.278   .     D
N39    Zn51    2.027   .     S
N40    Zn50    2.027   .     S
O41    Zn50    1.958   .     S
O41    C52     1.281   .     S
O42    Zn51    1.979   .     S
O43    Zn50    1.974   .     S
O43    C55     1.311   .     S
O44    Zn51    1.975   .     S
O45    Zn50    1.979   .     S
O46    Zn51    1.958   .     S
O46    C108    1.281   1_455 S
O47    Zn50    1.975   .     S
O48    Zn51    1.974   .     S
O48    C109    1.293   1_455 S
C52    O93     1.291   .     A
C52    C54     1.403   .     S
C53    C67     1.410   .     A
C53    C55     1.485   .     S
C53    C61     1.398   .     A
C54    C158    1.336   .     S
C54    H229    1.087   .     S
C55    O95     1.297   .     A
C56    C57     1.404   .     S
C56    C411    1.336   1_545 S
C56    H388    1.088   1_545 S
C57    O96     1.291   .     A
C57    O148    1.281   .     S
C58    C60     1.439   .     S
C58    O98     1.297   .     A
C58    O150    1.293   .     S
C59    H86     1.084   .     S
C59    C69     1.397   .     A
C59    C532    1.382   .     S
C60    C72     1.393   .     A
C60    C73     1.398   .     A
C61    C62     1.396   .     A
C62    C523    1.414   .     S
C62    H548    1.081   .     S
C63    C67     1.401   .     A
C63    C523    1.422   .     S
C63    C527    1.421   .     S
C64    O100    1.391   .     S
C64    C521    1.414   1_554 S
C64    C522    1.422   1_554 S
C65    H78     1.111   .     S
C65    H77     1.115   .     S
C65    O100    1.412   .     S
C65    C66     1.522   .     S
C66    H79     1.106   .     S
C66    H80     1.110   .     S
C66    H81     1.111   .     S
C67    C71     1.401   .     A
C68    C72     1.386   .     A
C68    C522    1.421   1_554 S
C68    C528    1.423   1_554 S
C69    C70     1.380   .     A
C69    C527    1.423   .     S
C70    C71     1.372   .     A
C70    H85     1.076   .     S
C71    H75     1.065   .     S
C72    H87     1.077   .     S
C73    C518    1.382   1_554 S
C73    H125    1.083   .     S
H76    C360    1.087   1_545 S
H82    C209    1.088   .     S
H83    N90     1.029   .     S
H84    N91     1.025   .     S
H88    C112    1.079   .     S
H89    C521    1.081   1_554 S
N90    N91     1.278   .     D
N90    Zn102   2.027   .     S
N91    Zn101   2.027   .     S
O92    Zn101   1.958   .     S
O92    C103    1.281   .     S
O93    Zn102   1.979   .     S
O94    Zn101   1.974   .     S
O94    C106    1.311   .     S
O95    Zn102   1.975   .     S
O96    Zn101   1.979   .     S
O97    Zn102   1.958   .     S
O98    Zn101   1.975   .     S
O99    Zn102   1.974   .     S
C103   O144    1.291   .     A
C103   C105    1.403   .     S
C104   C118    1.410   .     A
C104   C106    1.485   .     S
C104   C112    1.398   .     A
C105   C209    1.336   .     S
C105   H280    1.087   .     S
C106   O146    1.297   .     A
C107   C108    1.404   .     S
C107   C309    1.336   1_645 S
C107   H439    1.088   1_545 S
C108   O147    1.291   .     A
C108   O46     1.281   1_655 S
C109   C111    1.439   .     S
C109   O149    1.297   .     A
C109   O48     1.293   1_655 S
C110   H137    1.084   .     S
C110   C120    1.397   .     A
C110   C583    1.382   .     S
C111   C123    1.393   .     A
C111   C124    1.398   .     A
C112   C113    1.396   .     A
C113   C574    1.414   .     S
C113   H599    1.081   .     S
C114   C118    1.401   .     A
C114   C574    1.422   .     S
C114   C578    1.421   .     S
C115   O151    1.391   .     S
C115   C572    1.414   1_554 S
C115   C573    1.422   1_554 S
C116   H129    1.111   .     S
C116   H128    1.115   .     S
C116   O151    1.412   .     S
C116   C117    1.522   .     S
C117   H130    1.106   .     S
C117   H131    1.110   .     S
C117   H132    1.111   .     S
C118   C122    1.401   .     A
C119   C123    1.386   .     A
C119   C573    1.421   1_554 S
C119   C579    1.423   1_554 S
C120   C121    1.380   .     A
C120   C578    1.423   .     S
C121   C122    1.372   .     A
C121   H136    1.076   .     S
C122   H126    1.065   .     S
C123   H138    1.077   .     S
C124   C569    1.382   1_554 S
C124   H23     1.083   1_655 S
H127   C411    1.087   1_545 S
H133   C260    1.088   .     S
H134   N141    1.029   .     S
H135   N142    1.025   .     S
H139   C10     1.079   1_655 S
H140   C572    1.081   1_554 S
N141   N142    1.278   .     D
N141   Zn153   2.027   .     S
N142   Zn152   2.027   .     S
O143   Zn152   1.958   .     S
O143   C1      1.281   1_655 S
O144   Zn153   1.979   .     S
O145   Zn152   1.974   .     S
O145   C4      1.311   1_655 S
O146   Zn153   1.975   .     S
O147   Zn152   1.979   .     S
O148   Zn153   1.958   .     S
O149   Zn152   1.975   .     S
O150   Zn153   1.974   .     S
C154   O195    1.291   .     A
C154   C156    1.403   .     S
C154   O296    1.281   1_455 S
C155   C169    1.410   .     A
C155   C157    1.485   .     S
C155   C163    1.398   .     A
C156   C413    1.336   1_455 S
C156   H331    1.087   .     S
C157   O197    1.297   .     A
C157   O298    1.311   1_455 S
C158   C159    1.404   .     S
C159   O198    1.291   .     A
C159   O250    1.281   .     S
C160   C162    1.439   .     S
C160   O200    1.297   .     A
C160   O252    1.293   .     S
C161   H188    1.084   .     S
C161   C171    1.397   .     A
C161   C634    1.382   .     S
C162   C174    1.393   .     A
C162   C175    1.398   .     A
C163   C164    1.396   .     A
C163   H292    1.079   1_455 S
C164   C625    1.414   .     S
C164   H650    1.081   .     S
C165   C169    1.401   .     A
C165   C625    1.422   .     S
C165   C629    1.421   .     S
C166   O202    1.391   .     S
C166   C623    1.414   1_554 S
C166   C624    1.422   1_554 S
C167   H180    1.111   .     S
C167   H179    1.115   .     S
C167   O202    1.412   .     S
C167   C168    1.522   .     S
C168   H181    1.106   .     S
C168   H182    1.110   .     S
C168   H183    1.111   .     S
C169   C173    1.401   .     A
C170   C174    1.386   .     A
C170   C624    1.421   1_554 S
C170   C630    1.423   1_554 S
C171   C172    1.380   .     A
C171   C629    1.423   .     S
C172   C173    1.372   .     A
C172   H187    1.076   .     S
C173   H177    1.065   .     S
C174   H189    1.077   .     S
C175   C620    1.382   1_554 S
C175   H227    1.083   .     S
H176   C277    1.083   1_455 S
H184   C311    1.088   .     S
H185   N192    1.029   .     S
H186   N193    1.025   .     S
H190   C214    1.079   .     S
H191   C623    1.081   1_554 S
N192   N193    1.278   .     D
N192   Zn204   2.027   .     S
N193   Zn203   2.027   .     S
O194   Zn203   1.958   .     S
O194   C205    1.281   .     S
O195   Zn204   1.979   .     S
O196   Zn203   1.974   .     S
O196   C208    1.311   .     S
O197   Zn204   1.975   .     S
O198   Zn203   1.979   .     S
O199   Zn204   1.958   .     S
O199   C261    1.281   1_455 S
O200   Zn203   1.975   .     S
O201   Zn204   1.974   .     S
O201   C262    1.293   1_455 S
C205   O246    1.291   .     A
C205   C207    1.403   .     S
C206   C220    1.410   .     A
C206   C208    1.485   .     S
C206   C214    1.398   .     A
C207   C311    1.336   .     S
C207   H382    1.087   .     S
C208   O248    1.297   .     A
C209   C210    1.404   .     S
C210   O249    1.291   .     A
C210   O301    1.281   .     S
C211   C213    1.439   .     S
C211   O251    1.297   .     A
C211   O303    1.293   .     S
C212   H239    1.084   .     S
C212   C222    1.397   .     A
C212   C685    1.382   .     S
C213   C225    1.393   .     A
C213   C226    1.398   .     A
C214   C215    1.396   .     A
C215   C676    1.414   .     S
C215   H701    1.081   .     S
C216   C220    1.401   .     A
C216   C676    1.422   .     S
C216   C680    1.421   .     S
C217   O253    1.391   .     S
C217   C674    1.414   1_554 S
C217   C675    1.422   1_554 S
C218   H231    1.111   .     S
C218   H230    1.115   .     S
C218   O253    1.412   .     S
C218   C219    1.522   .     S
C219   H232    1.106   .     S
C219   H233    1.110   .     S
C219   H234    1.111   .     S
C220   C224    1.401   .     A
C221   C225    1.386   .     A
C221   C675    1.421   1_554 S
C221   C681    1.423   1_554 S
C222   C223    1.380   .     A
C222   C680    1.423   .     S
C223   C224    1.372   .     A
C223   H238    1.076   .     S
C224   H228    1.065   .     S
C225   H240    1.077   .     S
C226   C671    1.382   1_554 S
C226   H278    1.083   .     S
H235   C362    1.088   .     S
H236   N243    1.029   .     S
H237   N244    1.025   .     S
H241   C265    1.079   .     S
H242   C674    1.081   1_554 S
N243   N244    1.278   .     D
N243   Zn255   2.027   .     S
N244   Zn254   2.027   .     S
O245   Zn254   1.958   .     S
O245   C256    1.281   .     S
O246   Zn255   1.979   .     S
O247   Zn254   1.974   .     S
O247   C259    1.311   .     S
O248   Zn255   1.975   .     S
O249   Zn254   1.979   .     S
O250   Zn255   1.958   .     S
O251   Zn254   1.975   .     S
O252   Zn255   1.974   .     S
C256   O297    1.291   .     A
C256   C258    1.403   .     S
C257   C271    1.410   .     A
C257   C259    1.485   .     S
C257   C265    1.398   .     A
C258   C362    1.336   .     S
C258   H433    1.087   .     S
C259   O299    1.297   .     A
C260   C261    1.404   .     S
C260   C3      1.336   1_655 S
C261   O300    1.291   .     A
C261   O199    1.281   1_655 S
C262   C264    1.439   .     S
C262   O302    1.297   .     A
C262   O201    1.293   1_655 S
C263   H290    1.084   .     S
C263   C273    1.397   .     A
C263   C736    1.382   .     S
C264   C276    1.393   .     A
C264   C277    1.398   .     A
C265   C266    1.396   .     A
C266   C727    1.414   .     S
C266   H752    1.081   .     S
C267   C271    1.401   .     A
C267   C727    1.422   .     S
C267   C731    1.421   .     S
C268   O304    1.391   .     S
C268   C725    1.414   1_554 S
C268   C726    1.422   1_554 S
C269   H282    1.111   .     S
C269   H281    1.115   .     S
C269   O304    1.412   .     S
C269   C270    1.522   .     S
C270   H283    1.106   .     S
C270   H284    1.110   .     S
C270   H285    1.111   .     S
C271   C275    1.401   .     A
C272   C276    1.386   .     A
C272   C726    1.421   1_554 S
C272   C732    1.423   1_554 S
C273   C274    1.380   .     A
C273   C731    1.423   .     S
C274   C275    1.372   .     A
C274   H289    1.076   .     S
C275   H279    1.065   .     S
C276   H291    1.077   .     S
C277   C722    1.382   1_554 S
C277   H176    1.083   1_655 S
H286   C413    1.088   .     S
H287   N294    1.029   .     S
H288   N295    1.025   .     S
H292   C163    1.079   1_655 S
H293   C725    1.081   1_554 S
N294   N295    1.278   .     D
N294   Zn306   2.027   .     S
N295   Zn305   2.027   .     S
O296   Zn305   1.958   .     S
O296   C154    1.281   1_655 S
O297   Zn306   1.979   .     S
O298   Zn305   1.974   .     S
O298   C157    1.311   1_655 S
O299   Zn306   1.975   .     S
O300   Zn305   1.979   .     S
O301   Zn306   1.958   .     S
O302   Zn305   1.975   .     S
O303   Zn306   1.974   .     S
C307   O348    1.291   .     A
C307   C309    1.403   .     S
C307   O449    1.281   1_455 S
C308   C322    1.410   .     A
C308   C310    1.485   .     S
C308   C316    1.398   .     A
C309   C107    1.336   1_465 S
C309   H25     1.087   1_565 S
C310   O350    1.297   .     A
C310   O451    1.311   1_455 S
C311   C312    1.404   .     S
C312   O351    1.291   .     A
C312   O403    1.281   .     S
C313   C315    1.439   .     S
C313   O353    1.297   .     A
C313   O405    1.293   .     S
C314   H341    1.084   .     S
C314   C324    1.397   .     A
C314   C787    1.382   .     S
C315   C327    1.393   .     A
C315   C328    1.398   .     A
C316   C317    1.396   .     A
C316   H445    1.079   1_455 S
C317   C778    1.414   .     S
C317   H803    1.081   .     S
C318   C322    1.401   .     A
C318   C778    1.422   .     S
C318   C782    1.421   .     S
C319   O355    1.391   .     S
C319   C776    1.414   1_554 S
C319   C777    1.422   1_554 S
C320   H333    1.111   .     S
C320   H332    1.115   .     S
C320   O355    1.412   .     S
C320   C321    1.522   .     S
C321   H334    1.106   .     S
C321   H335    1.110   .     S
C321   H336    1.111   .     S
C322   C326    1.401   .     A
C323   C327    1.386   .     A
C323   C777    1.421   1_554 S
C323   C783    1.423   1_554 S
C324   C325    1.380   .     A
C324   C782    1.423   .     S
C325   C326    1.372   .     A
C325   H340    1.076   .     S
C326   H330    1.065   .     S
C327   H342    1.077   .     S
C328   C773    1.382   1_554 S
C328   H380    1.083   .     S
H329   C430    1.083   1_455 S
H337   C5      1.088   1_565 S
H338   N345    1.029   .     S
H339   N346    1.025   .     S
H343   C367    1.079   .     S
H344   C776    1.081   1_554 S
N345   N346    1.278   .     D
N345   Zn357   2.027   .     S
N346   Zn356   2.027   .     S
O347   Zn356   1.958   .     S
O347   C358    1.281   .     S
O348   Zn357   1.979   .     S
O349   Zn356   1.974   .     S
O349   C361    1.311   .     S
O350   Zn357   1.975   .     S
O351   Zn356   1.979   .     S
O352   Zn357   1.958   .     S
O352   C414    1.281   1_455 S
O353   Zn356   1.975   .     S
O354   Zn357   1.974   .     S
O354   C415    1.293   1_455 S
C358   O399    1.291   .     A
C358   C360    1.403   .     S
C359   C373    1.410   .     A
C359   C361    1.485   .     S
C359   C367    1.398   .     A
C360   C5      1.336   1_565 S
C360   H76     1.087   1_565 S
C361   O401    1.297   .     A
C362   C363    1.404   .     S
C363   O402    1.291   .     A
C363   O454    1.281   .     S
C364   C366    1.439   .     S
C364   O404    1.297   .     A
C364   O456    1.293   .     S
C365   H392    1.084   .     S
C365   C375    1.397   .     A
C365   C838    1.382   .     S
C366   C378    1.393   .     A
C366   C379    1.398   .     A
C367   C368    1.396   .     A
C368   C829    1.414   .     S
C368   H854    1.081   .     S
C369   C373    1.401   .     A
C369   C829    1.422   .     S
C369   C833    1.421   .     S
C370   O406    1.391   .     S
C370   C827    1.414   1_554 S
C370   C828    1.422   1_554 S
C371   H384    1.111   .     S
C371   H383    1.115   .     S
C371   O406    1.412   .     S
C371   C372    1.522   .     S
C372   H385    1.106   .     S
C372   H386    1.110   .     S
C372   H387    1.111   .     S
C373   C377    1.401   .     A
C374   C378    1.386   .     A
C374   C828    1.421   1_554 S
C374   C834    1.423   1_554 S
C375   C376    1.380   .     A
C375   C833    1.423   .     S
C376   C377    1.372   .     A
C376   H391    1.076   .     S
C377   H381    1.065   .     S
C378   H393    1.077   .     S
C379   C824    1.382   1_554 S
C379   H431    1.083   .     S
H388   C56     1.088   1_565 S
H389   N396    1.029   .     S
H390   N397    1.025   .     S
H394   C418    1.079   .     S
H395   C827    1.081   1_554 S
N396   N397    1.278   .     D
N396   Zn408   2.027   .     S
N397   Zn407   2.027   .     S
O398   Zn407   1.958   .     S
O398   C409    1.281   .     S
O399   Zn408   1.979   .     S
O400   Zn407   1.974   .     S
O400   C412    1.311   .     S
O401   Zn408   1.975   .     S
O402   Zn407   1.979   .     S
O403   Zn408   1.958   .     S
O404   Zn407   1.975   .     S
O405   Zn408   1.974   .     S
C409   O450    1.291   .     A
C409   C411    1.403   .     S
C410   C424    1.410   .     A
C410   C412    1.485   .     S
C410   C418    1.398   .     A
C411   C56     1.336   1_565 S
C411   H127    1.087   1_565 S
C412   O452    1.297   .     A
C413   C414    1.404   .     S
C413   C156    1.336   1_655 S
C414   O453    1.291   .     A
C414   O352    1.281   1_655 S
C415   C417    1.439   .     S
C415   O455    1.297   .     A
C415   O354    1.293   1_655 S
C416   H443    1.084   .     S
C416   C426    1.397   .     A
C416   C889    1.382   .     S
C417   C429    1.393   .     A
C417   C430    1.398   .     A
C418   C419    1.396   .     A
C419   C880    1.414   .     S
C419   H905    1.081   .     S
C420   C424    1.401   .     A
C420   C880    1.422   .     S
C420   C884    1.421   .     S
C421   O457    1.391   .     S
C421   C878    1.414   1_554 S
C421   C879    1.422   1_554 S
C422   H435    1.111   .     S
C422   H434    1.115   .     S
C422   O457    1.412   .     S
C422   C423    1.522   .     S
C423   H436    1.106   .     S
C423   H437    1.110   .     S
C423   H438    1.111   .     S
C424   C428    1.401   .     A
C425   C429    1.386   .     A
C425   C879    1.421   1_554 S
C425   C885    1.423   1_554 S
C426   C427    1.380   .     A
C426   C884    1.423   .     S
C427   C428    1.372   .     A
C427   H442    1.076   .     S
C428   H432    1.065   .     S
C429   H444    1.077   .     S
C430   C875    1.382   1_554 S
C430   H329    1.083   1_655 S
H439   C107    1.088   1_565 S
H440   N447    1.029   .     S
H441   N448    1.025   .     S
H445   C316    1.079   1_655 S
H446   C878    1.081   1_554 S
N447   N448    1.278   .     D
N447   Zn459   2.027   .     S
N448   Zn458   2.027   .     S
O449   Zn458   1.958   .     S
O449   C307    1.281   1_655 S
O450   Zn459   1.979   .     S
O451   Zn458   1.974   .     S
O451   C310    1.311   1_655 S
O452   Zn459   1.975   .     S
O453   Zn458   1.979   .     S
O454   Zn459   1.958   .     S
O455   Zn458   1.975   .     S
O456   Zn459   1.974   .     S
C460   O501    1.291   .     A
C460   C462    1.403   .     S
C460   O602    1.281   1_455 S
C461   C475    1.410   .     A
C461   C463    1.485   .     S
C461   C469    1.398   .     A
C462   C719    1.336   1_455 S
C462   H637    1.087   .     S
C463   O503    1.297   .     A
C463   O604    1.311   1_455 S
C464   C465    1.404   .     S
C464   C819    1.336   1_545 S
C464   H796    1.088   1_545 S
C465   O504    1.291   .     A
C465   O556    1.281   .     S
C466   C468    1.439   .     S
C466   O506    1.297   .     A
C466   O558    1.293   .     S
C467   H494    1.084   .     S
C467   C477    1.397   .     A
C467   C22     1.382   1_556 S
C468   C480    1.393   .     A
C468   C481    1.398   .     A
C469   C470    1.396   .     A
C469   H598    1.079   1_455 S
C470   C13     1.414   1_556 S
C470   H38     1.081   1_556 S
C471   C475    1.401   .     A
C471   C13     1.422   1_556 S
C471   C17     1.421   1_556 S
C472   O508    1.391   .     S
C473   H486    1.111   .     S
C473   H485    1.115   .     S
C473   O508    1.412   .     S
C473   C474    1.522   .     S
C474   H487    1.106   .     S
C474   H488    1.110   .     S
C474   H489    1.111   .     S
C475   C479    1.401   .     A
C476   C480    1.386   .     A
C477   C478    1.380   .     A
C477   C17     1.423   1_556 S
C478   C479    1.372   .     A
C478   H493    1.076   .     S
C479   H483    1.065   .     S
C480   H495    1.077   .     S
C481   H533    1.083   .     S
H482   C583    1.083   1_455 S
H484   C768    1.087   1_545 S
H490   C617    1.088   .     S
H491   N498    1.029   .     S
H492   N499    1.025   .     S
H496   C520    1.079   .     S
N498   N499    1.278   .     D
N498   Zn510   2.027   .     S
N499   Zn509   2.027   .     S
O500   Zn509   1.958   .     S
O500   C511    1.281   .     S
O501   Zn510   1.979   .     S
O502   Zn509   1.974   .     S
O502   C514    1.311   .     S
O503   Zn510   1.975   .     S
O504   Zn509   1.979   .     S
O505   Zn510   1.958   .     S
O505   C567    1.281   1_455 S
O506   Zn509   1.975   .     S
O507   Zn510   1.974   .     S
O507   C568    1.293   1_455 S
C511   O552    1.291   .     A
C511   C513    1.403   .     S
C512   C526    1.410   .     A
C512   C514    1.485   .     S
C512   C520    1.398   .     A
C513   C617    1.336   .     S
C513   H688    1.087   .     S
C514   O554    1.297   .     A
C515   C516    1.404   .     S
C515   C870    1.336   1_545 S
C515   H847    1.088   1_545 S
C516   O555    1.291   .     A
C516   O607    1.281   .     S
C517   C519    1.439   .     S
C517   O557    1.297   .     A
C517   O609    1.293   .     S
C518   H545    1.084   .     S
C518   C528    1.397   .     A
C518   C73     1.382   1_556 S
C519   C531    1.393   .     A
C519   C532    1.398   .     A
C520   C521    1.396   .     A
C521   C64     1.414   1_556 S
C521   H89     1.081   1_556 S
C522   C526    1.401   .     A
C522   C64     1.422   1_556 S
C522   C68     1.421   1_556 S
C523   O559    1.391   .     S
C524   H537    1.111   .     S
C524   H536    1.115   .     S
C524   O559    1.412   .     S
C524   C525    1.522   .     S
C525   H538    1.106   .     S
C525   H539    1.110   .     S
C525   H540    1.111   .     S
C526   C530    1.401   .     A
C527   C531    1.386   .     A
C528   C529    1.380   .     A
C528   C68     1.423   1_556 S
C529   C530    1.372   .     A
C529   H544    1.076   .     S
C530   H534    1.065   .     S
C531   H546    1.077   .     S
C532   H584    1.083   .     S
H535   C819    1.087   1_545 S
H541   C668    1.088   .     S
H542   N549    1.029   .     S
H543   N550    1.025   .     S
H547   C571    1.079   .     S
N549   N550    1.278   .     D
N549   Zn561   2.027   .     S
N550   Zn560   2.027   .     S
O551   Zn560   1.958   .     S
O551   C562    1.281   .     S
O552   Zn561   1.979   .     S
O553   Zn560   1.974   .     S
O553   C565    1.311   .     S
O554   Zn561   1.975   .     S
O555   Zn560   1.979   .     S
O556   Zn561   1.958   .     S
O557   Zn560   1.975   .     S
O558   Zn561   1.974   .     S
C562   O603    1.291   .     A
C562   C564    1.403   .     S
C563   C577    1.410   .     A
C563   C565    1.485   .     S
C563   C571    1.398   .     A
C564   C668    1.336   .     S
C564   H739    1.087   .     S
C565   O605    1.297   .     A
C566   C567    1.404   .     S
C566   C768    1.336   1_645 S
C566   H898    1.088   1_545 S
C567   O606    1.291   .     A
C567   O505    1.281   1_655 S
C568   C570    1.439   .     S
C568   O608    1.297   .     A
C568   O507    1.293   1_655 S
C569   H596    1.084   .     S
C569   C579    1.397   .     A
C569   C124    1.382   1_556 S
C570   C582    1.393   .     A
C570   C583    1.398   .     A
C571   C572    1.396   .     A
C572   C115    1.414   1_556 S
C572   H140    1.081   1_556 S
C573   C577    1.401   .     A
C573   C115    1.422   1_556 S
C573   C119    1.421   1_556 S
C574   O610    1.391   .     S
C575   H588    1.111   .     S
C575   H587    1.115   .     S
C575   O610    1.412   .     S
C575   C576    1.522   .     S
C576   H589    1.106   .     S
C576   H590    1.110   .     S
C576   H591    1.111   .     S
C577   C581    1.401   .     A
C578   C582    1.386   .     A
C579   C580    1.380   .     A
C579   C119    1.423   1_556 S
C580   C581    1.372   .     A
C580   H595    1.076   .     S
C581   H585    1.065   .     S
C582   H597    1.077   .     S
C583   H482    1.083   1_655 S
H586   C870    1.087   1_545 S
H592   C719    1.088   .     S
H593   N600    1.029   .     S
H594   N601    1.025   .     S
H598   C469    1.079   1_655 S
N600   N601    1.278   .     D
N600   Zn612   2.027   .     S
N601   Zn611   2.027   .     S
O602   Zn611   1.958   .     S
O602   C460    1.281   1_655 S
O603   Zn612   1.979   .     S
O604   Zn611   1.974   .     S
O604   C463    1.311   1_655 S
O605   Zn612   1.975   .     S
O606   Zn611   1.979   .     S
O607   Zn612   1.958   .     S
O608   Zn611   1.975   .     S
O609   Zn612   1.974   .     S
C613   O654    1.291   .     A
C613   C615    1.403   .     S
C613   O755    1.281   1_455 S
C614   C628    1.410   .     A
C614   C616    1.485   .     S
C614   C622    1.398   .     A
C615   C872    1.336   1_455 S
C615   H790    1.087   .     S
C616   O656    1.297   .     A
C616   O757    1.311   1_455 S
C617   C618    1.404   .     S
C618   O657    1.291   .     A
C618   O709    1.281   .     S
C619   C621    1.439   .     S
C619   O659    1.297   .     A
C619   O711    1.293   .     S
C620   H647    1.084   .     S
C620   C630    1.397   .     A
C620   C175    1.382   1_556 S
C621   C633    1.393   .     A
C621   C634    1.398   .     A
C622   C623    1.396   .     A
C622   H751    1.079   1_455 S
C623   C166    1.414   1_556 S
C623   H191    1.081   1_556 S
C624   C628    1.401   .     A
C624   C166    1.422   1_556 S
C624   C170    1.421   1_556 S
C625   O661    1.391   .     S
C626   H639    1.111   .     S
C626   H638    1.115   .     S
C626   O661    1.412   .     S
C626   C627    1.522   .     S
C627   H640    1.106   .     S
C627   H641    1.110   .     S
C627   H642    1.111   .     S
C628   C632    1.401   .     A
C629   C633    1.386   .     A
C630   C631    1.380   .     A
C630   C170    1.423   1_556 S
C631   C632    1.372   .     A
C631   H646    1.076   .     S
C632   H636    1.065   .     S
C633   H648    1.077   .     S
C634   H686    1.083   .     S
H635   C736    1.083   1_455 S
H643   C770    1.088   .     S
H644   N651    1.029   .     S
H645   N652    1.025   .     S
H649   C673    1.079   .     S
N651   N652    1.278   .     D
N651   Zn663   2.027   .     S
N652   Zn662   2.027   .     S
O653   Zn662   1.958   .     S
O653   C664    1.281   .     S
O654   Zn663   1.979   .     S
O655   Zn662   1.974   .     S
O655   C667    1.311   .     S
O656   Zn663   1.975   .     S
O657   Zn662   1.979   .     S
O658   Zn663   1.958   .     S
O658   C720    1.281   1_455 S
O659   Zn662   1.975   .     S
O660   Zn663   1.974   .     S
O660   C721    1.293   1_455 S
C664   O705    1.291   .     A
C664   C666    1.403   .     S
C665   C679    1.410   .     A
C665   C667    1.485   .     S
C665   C673    1.398   .     A
C666   C770    1.336   .     S
C666   H841    1.087   .     S
C667   O707    1.297   .     A
C668   C669    1.404   .     S
C669   O708    1.291   .     A
C669   O760    1.281   .     S
C670   C672    1.439   .     S
C670   O710    1.297   .     A
C670   O762    1.293   .     S
C671   H698    1.084   .     S
C671   C681    1.397   .     A
C671   C226    1.382   1_556 S
C672   C684    1.393   .     A
C672   C685    1.398   .     A
C673   C674    1.396   .     A
C674   C217    1.414   1_556 S
C674   H242    1.081   1_556 S
C675   C679    1.401   .     A
C675   C217    1.422   1_556 S
C675   C221    1.421   1_556 S
C676   O712    1.391   .     S
C677   H690    1.111   .     S
C677   H689    1.115   .     S
C677   O712    1.412   .     S
C677   C678    1.522   .     S
C678   H691    1.106   .     S
C678   H692    1.110   .     S
C678   H693    1.111   .     S
C679   C683    1.401   .     A
C680   C684    1.386   .     A
C681   C682    1.380   .     A
C681   C221    1.423   1_556 S
C682   C683    1.372   .     A
C682   H697    1.076   .     S
C683   H687    1.065   .     S
C684   H699    1.077   .     S
C685   H737    1.083   .     S
H694   C821    1.088   .     S
H695   N702    1.029   .     S
H696   N703    1.025   .     S
H700   C724    1.079   .     S
N702   N703    1.278   .     D
N702   Zn714   2.027   .     S
N703   Zn713   2.027   .     S
O704   Zn713   1.958   .     S
O704   C715    1.281   .     S
O705   Zn714   1.979   .     S
O706   Zn713   1.974   .     S
O706   C718    1.311   .     S
O707   Zn714   1.975   .     S
O708   Zn713   1.979   .     S
O709   Zn714   1.958   .     S
O710   Zn713   1.975   .     S
O711   Zn714   1.974   .     S
C715   O756    1.291   .     A
C715   C717    1.403   .     S
C716   C730    1.410   .     A
C716   C718    1.485   .     S
C716   C724    1.398   .     A
C717   C821    1.336   .     S
C717   H892    1.087   .     S
C718   O758    1.297   .     A
C719   C720    1.404   .     S
C719   C462    1.336   1_655 S
C720   O759    1.291   .     A
C720   O658    1.281   1_655 S
C721   C723    1.439   .     S
C721   O761    1.297   .     A
C721   O660    1.293   1_655 S
C722   H749    1.084   .     S
C722   C732    1.397   .     A
C722   C277    1.382   1_556 S
C723   C735    1.393   .     A
C723   C736    1.398   .     A
C724   C725    1.396   .     A
C725   C268    1.414   1_556 S
C725   H293    1.081   1_556 S
C726   C730    1.401   .     A
C726   C268    1.422   1_556 S
C726   C272    1.421   1_556 S
C727   O763    1.391   .     S
C728   H741    1.111   .     S
C728   H740    1.115   .     S
C728   O763    1.412   .     S
C728   C729    1.522   .     S
C729   H742    1.106   .     S
C729   H743    1.110   .     S
C729   H744    1.111   .     S
C730   C734    1.401   .     A
C731   C735    1.386   .     A
C732   C733    1.380   .     A
C732   C272    1.423   1_556 S
C733   C734    1.372   .     A
C733   H748    1.076   .     S
C734   H738    1.065   .     S
C735   H750    1.077   .     S
C736   H635    1.083   1_655 S
H745   C872    1.088   .     S
H746   N753    1.029   .     S
H747   N754    1.025   .     S
H751   C622    1.079   1_655 S
N753   N754    1.278   .     D
N753   Zn765   2.027   .     S
N754   Zn764   2.027   .     S
O755   Zn764   1.958   .     S
O755   C613    1.281   1_655 S
O756   Zn765   1.979   .     S
O757   Zn764   1.974   .     S
O757   C616    1.311   1_655 S
O758   Zn765   1.975   .     S
O759   Zn764   1.979   .     S
O760   Zn765   1.958   .     S
O761   Zn764   1.975   .     S
O762   Zn765   1.974   .     S
C766   O807    1.291   .     A
C766   C768    1.403   .     S
C766   O908    1.281   1_455 S
C767   C781    1.410   .     A
C767   C769    1.485   .     S
C767   C775    1.398   .     A
C768   C566    1.336   1_465 S
C768   H484    1.087   1_565 S
C769   O809    1.297   .     A
C769   O910    1.311   1_455 S
C770   C771    1.404   .     S
C771   O810    1.291   .     A
C771   O862    1.281   .     S
C772   C774    1.439   .     S
C772   O812    1.297   .     A
C772   O864    1.293   .     S
C773   H800    1.084   .     S
C773   C783    1.397   .     A
C773   C328    1.382   1_556 S
C774   C786    1.393   .     A
C774   C787    1.398   .     A
C775   C776    1.396   .     A
C775   H904    1.079   1_455 S
C776   C319    1.414   1_556 S
C776   H344    1.081   1_556 S
C777   C781    1.401   .     A
C777   C319    1.422   1_556 S
C777   C323    1.421   1_556 S
C778   O814    1.391   .     S
C779   H792    1.111   .     S
C779   H791    1.115   .     S
C779   O814    1.412   .     S
C779   C780    1.522   .     S
C780   H793    1.106   .     S
C780   H794    1.110   .     S
C780   H795    1.111   .     S
C781   C785    1.401   .     A
C782   C786    1.386   .     A
C783   C784    1.380   .     A
C783   C323    1.423   1_556 S
C784   C785    1.372   .     A
C784   H799    1.076   .     S
C785   H789    1.065   .     S
C786   H801    1.077   .     S
C787   H839    1.083   .     S
H788   C889    1.083   1_455 S
H796   C464    1.088   1_565 S
H797   N804    1.029   .     S
H798   N805    1.025   .     S
H802   C826    1.079   .     S
N804   N805    1.278   .     D
N804   Zn816   2.027   .     S
N805   Zn815   2.027   .     S
O806   Zn815   1.958   .     S
O806   C817    1.281   .     S
O807   Zn816   1.979   .     S
O808   Zn815   1.974   .     S
O808   C820    1.311   .     S
O809   Zn816   1.975   .     S
O810   Zn815   1.979   .     S
O811   Zn816   1.958   .     S
O811   C873    1.281   1_455 S
O812   Zn815   1.975   .     S
O813   Zn816   1.974   .     S
O813   C874    1.293   1_455 S
C817   O858    1.291   .     A
C817   C819    1.403   .     S
C818   C832    1.410   .     A
C818   C820    1.485   .     S
C818   C826    1.398   .     A
C819   C464    1.336   1_565 S
C819   H535    1.087   1_565 S
C820   O860    1.297   .     A
C821   C822    1.404   .     S
C822   O861    1.291   .     A
C822   O913    1.281   .     S
C823   C825    1.439   .     S
C823   O863    1.297   .     A
C823   O915    1.293   .     S
C824   H851    1.084   .     S
C824   C834    1.397   .     A
C824   C379    1.382   1_556 S
C825   C837    1.393   .     A
C825   C838    1.398   .     A
C826   C827    1.396   .     A
C827   C370    1.414   1_556 S
C827   H395    1.081   1_556 S
C828   C832    1.401   .     A
C828   C370    1.422   1_556 S
C828   C374    1.421   1_556 S
C829   O865    1.391   .     S
C830   H843    1.111   .     S
C830   H842    1.115   .     S
C830   O865    1.412   .     S
C830   C831    1.522   .     S
C831   H844    1.106   .     S
C831   H845    1.110   .     S
C831   H846    1.111   .     S
C832   C836    1.401   .     A
C833   C837    1.386   .     A
C834   C835    1.380   .     A
C834   C374    1.423   1_556 S
C835   C836    1.372   .     A
C835   H850    1.076   .     S
C836   H840    1.065   .     S
C837   H852    1.077   .     S
C838   H890    1.083   .     S
H847   C515    1.088   1_565 S
H848   N855    1.029   .     S
H849   N856    1.025   .     S
H853   C877    1.079   .     S
N855   N856    1.278   .     D
N855   Zn867   2.027   .     S
N856   Zn866   2.027   .     S
O857   Zn866   1.958   .     S
O857   C868    1.281   .     S
O858   Zn867   1.979   .     S
O859   Zn866   1.974   .     S
O859   C871    1.311   .     S
O860   Zn867   1.975   .     S
O861   Zn866   1.979   .     S
O862   Zn867   1.958   .     S
O863   Zn866   1.975   .     S
O864   Zn867   1.974   .     S
C868   O909    1.291   .     A
C868   C870    1.403   .     S
C869   C883    1.410   .     A
C869   C871    1.485   .     S
C869   C877    1.398   .     A
C870   C515    1.336   1_565 S
C870   H586    1.087   1_565 S
C871   O911    1.297   .     A
C872   C873    1.404   .     S
C872   C615    1.336   1_655 S
C873   O912    1.291   .     A
C873   O811    1.281   1_655 S
C874   C876    1.439   .     S
C874   O914    1.297   .     A
C874   O813    1.293   1_655 S
C875   H902    1.084   .     S
C875   C885    1.397   .     A
C875   C430    1.382   1_556 S
C876   C888    1.393   .     A
C876   C889    1.398   .     A
C877   C878    1.396   .     A
C878   C421    1.414   1_556 S
C878   H446    1.081   1_556 S
C879   C883    1.401   .     A
C879   C421    1.422   1_556 S
C879   C425    1.421   1_556 S
C880   O916    1.391   .     S
C881   H894    1.111   .     S
C881   H893    1.115   .     S
C881   O916    1.412   .     S
C881   C882    1.522   .     S
C882   H895    1.106   .     S
C882   H896    1.110   .     S
C882   H897    1.111   .     S
C883   C887    1.401   .     A
C884   C888    1.386   .     A
C885   C886    1.380   .     A
C885   C425    1.423   1_556 S
C886   C887    1.372   .     A
C886   H901    1.076   .     S
C887   H891    1.065   .     S
C888   H903    1.077   .     S
C889   H788    1.083   1_655 S
H898   C566    1.088   1_565 S
H899   N906    1.029   .     S
H900   N907    1.025   .     S
H904   C775    1.079   1_655 S
N906   N907    1.278   .     D
N906   Zn918   2.027   .     S
N907   Zn917   2.027   .     S
O908   Zn917   1.958   .     S
O908   C766    1.281   1_655 S
O909   Zn918   1.979   .     S
O910   Zn917   1.974   .     S
O910   C769    1.311   1_655 S
O911   Zn918   1.975   .     S
O912   Zn917   1.979   .     S
O913   Zn918   1.958   .     S
O914   Zn917   1.975   .     S
O915   Zn918   1.974   .     S
