data_str_m2_o1_o18_pcu_sym.186
_audit_creation_date              2020-01-03
_audit_creation_method            'Materials Studio'
_symmetry_space_group_name_H-M    'P1'
_symmetry_Int_Tables_number       1
_symmetry_cell_setting            triclinic
loop_
_symmetry_equiv_pos_as_xyz
  x,y,z
_cell_length_a                    28.5654
_cell_length_b                    32.4613
_cell_length_c                    30.6341
_cell_angle_alpha                 90.5428
_cell_angle_beta                  73.5413
_cell_angle_gamma                 89.3966
loop_
_atom_site_label
_atom_site_type_symbol
_atom_site_fract_x
_atom_site_fract_y
_atom_site_fract_z
_atom_site_U_iso_or_equiv
_atom_site_adp_type
_atom_site_occupancy
C1     C     0.00086   0.08744   0.24805   0.00000  Uiso   1.00
C2     C     0.33263   0.24592   0.25133   0.00000  Uiso   1.00
C3     C     0.19979   0.18851   0.05378   0.00000  Uiso   1.00
C4     C     0.14976   0.22521   0.46244   0.00000  Uiso   1.00
C5     C     0.24849   0.18054   0.02923   0.00000  Uiso   1.00
C6     C     0.09988   0.22861   0.48559   0.00000  Uiso   1.00
C7     C     0.29269   0.02331   0.27269   0.00000  Uiso   1.00
C8     C     0.04067   0.31003   0.22538   0.00000  Uiso   1.00
C9     C     0.29056   0.31398   0.27538   0.00000  Uiso   1.00
C10    C     0.04260   0.01940   0.22231   0.00000  Uiso   1.00
C11    C     0.33202   0.29056   0.25141   0.00000  Uiso   1.00
C12    C     0.00146   0.04280   0.24707   0.00000  Uiso   1.00
C13    C     0.18129   0.18800   0.28257   0.00000  Uiso   1.00
C14    C     0.15199   0.14513   0.21761   0.00000  Uiso   1.00
C15    C     0.13174   0.18817   0.28244   0.00000  Uiso   1.00
C16    C     0.20158   0.14515   0.21757   0.00000  Uiso   1.00
C17    C     0.30573   0.16717   0.33656   0.00000  Uiso   1.00
C18    C     0.02763   0.16778   0.16357   0.00000  Uiso   1.00
C19    C     0.29089   0.17054   0.38665   0.00000  Uiso   1.00
C20    C     0.04338   0.17713   0.11476   0.00000  Uiso   1.00
C21    C     0.31115   0.16823   0.45827   0.00000  Uiso   1.00
C22    C     0.03098   0.21437   0.05071   0.00000  Uiso   1.00
C23    C     0.32534   0.16508   0.41095   0.00000  Uiso   1.00
C24    C     0.01252   0.19859   0.09436   0.00000  Uiso   1.00
C25    C     0.24247   0.18074   0.41037   0.00000  Uiso   1.00
C26    C     0.09246   0.17120   0.09070   0.00000  Uiso   1.00
C27    C     0.22871   0.18812   0.45765   0.00000  Uiso   1.00
C28    C     0.11299   0.19190   0.04991   0.00000  Uiso   1.00
C29    C     0.26278   0.17870   0.48183   0.00000  Uiso   1.00
C30    C     0.08108   0.21105   0.02823   0.00000  Uiso   1.00
C31    C     0.18077   0.20122   0.48198   0.00000  Uiso   1.00
C32    C     0.16413   0.19268   0.02925   0.00000  Uiso   1.00
Cu33   Cu    0.04689   0.16667   0.25000   0.00000  Uiso   1.00
Cu34   Cu    0.28645   0.16666   0.25000   0.00000  Uiso   1.00
H35    H     0.27556   0.17549   0.04725   0.00000  Uiso   1.00
H36    H     0.07570   0.24628   0.47100   0.00000  Uiso   1.00
H37    H     0.30798   0.20429   0.11268   0.00000  Uiso   1.00
H38    H     0.02969   0.15734   0.39350   0.00000  Uiso   1.00
H39    H     0.00464   0.16232   0.47645   0.00000  Uiso   1.00
H40    H     0.00651   0.23059   0.03526   0.00000  Uiso   1.00
H41    H     0.26140   0.04157   0.29173   0.00000  Uiso   1.00
H42    H     0.07182   0.29171   0.20614   0.00000  Uiso   1.00
H43    H     0.10500   0.20548   0.30840   0.00000  Uiso   1.00
H44    H     0.22832   0.12787   0.19158   0.00000  Uiso   1.00
N45    N     0.11736   0.16668   0.24999   0.00000  Uiso   1.00
N46    N     0.21597   0.16666   0.25001   0.00000  Uiso   1.00
O47    O     0.03958   0.10655   0.25000   0.00000  Uiso   1.00
O48    O     0.29375   0.22678   0.25000   0.00000  Uiso   1.00
O49    O     0.29372   0.10654   0.25000   0.00000  Uiso   1.00
O50    O     0.03961   0.22679   0.24999   0.00000  Uiso   1.00
O51    O     0.01852   0.16668   0.31491   0.00000  Uiso   1.00
O52    O     0.31481   0.16666   0.18508   0.00000  Uiso   1.00
O53    O     0.27267   0.16667   0.31492   0.00000  Uiso   1.00
O54    O     0.06067   0.16667   0.18508   0.00000  Uiso   1.00
H55    H     0.11413   0.15009   0.10403   0.00000  Uiso   1.00
H56    H     0.21525   0.18095   0.39210   0.00000  Uiso   1.00
C57    C     0.19045   0.20008   0.10404   0.00000  Uiso   1.00
C58    C     0.17007   0.24394   0.11463   0.00000  Uiso   1.00
H59    H     0.19436   0.26612   0.09179   0.00000  Uiso   1.00
H60    H     0.16793   0.25218   0.15044   0.00000  Uiso   1.00
H61    H     0.13283   0.24671   0.11056   0.00000  Uiso   1.00
H62    H     0.16709   0.17818   0.12732   0.00000  Uiso   1.00
H63    H     0.22505   0.19890   0.11373   0.00000  Uiso   1.00
C64    C     0.16955   0.25607   0.42467   0.00000  Uiso   1.00
C65    C     0.20249   0.28718   0.43891   0.00000  Uiso   1.00
H66    H     0.18414   0.30006   0.47332   0.00000  Uiso   1.00
H67    H     0.23761   0.27243   0.43923   0.00000  Uiso   1.00
H68    H     0.21042   0.31308   0.41473   0.00000  Uiso   1.00
H69    H     0.18897   0.24162   0.39172   0.00000  Uiso   1.00
H70    H     0.13913   0.27384   0.41747   0.00000  Uiso   1.00
C71    C     0.24433   0.29555   0.30562   0.00000  Uiso   1.00
C72    C     0.20451   0.29393   0.28132   0.00000  Uiso   1.00
H73    H     0.21639   0.27432   0.25014   0.00000  Uiso   1.00
H74    H     0.17082   0.28094   0.30440   0.00000  Uiso   1.00
H75    H     0.19584   0.32541   0.27171   0.00000  Uiso   1.00
H76    H     0.25080   0.26458   0.31788   0.00000  Uiso   1.00
H77    H     0.23082   0.31502   0.33670   0.00000  Uiso   1.00
C78    C     0.08787   0.03794   0.19051   0.00000  Uiso   1.00
C79    C     0.13019   0.03748   0.21177   0.00000  Uiso   1.00
H80    H     0.16295   0.05098   0.18780   0.00000  Uiso   1.00
H81    H     0.12053   0.05580   0.24396   0.00000  Uiso   1.00
H82    H     0.13932   0.00538   0.21901   0.00000  Uiso   1.00
H83    H     0.09871   0.01976   0.15817   0.00000  Uiso   1.00
H84    H     0.08125   0.06974   0.18056   0.00000  Uiso   1.00
H85    H     0.19174   0.20498   0.30877   0.00000  Uiso   1.00
H86    H     0.14145   0.12789   0.19163   0.00000  Uiso   1.00
C87    C     0.33419   0.08744   0.24805   0.00000  Uiso   1.00
C88    C     0.66596   0.24592   0.25133   0.00000  Uiso   1.00
C89    C     0.53313   0.18851   0.05378   0.00000  Uiso   1.00
C90    C     0.48309   0.22521   0.46244   0.00000  Uiso   1.00
C91    C     0.58182   0.18054   0.02923   0.00000  Uiso   1.00
C92    C     0.43321   0.22861   0.48559   0.00000  Uiso   1.00
C93    C     0.62603   0.02331   0.27269   0.00000  Uiso   1.00
C94    C     0.37400   0.31003   0.22538   0.00000  Uiso   1.00
C95    C     0.62390   0.31398   0.27538   0.00000  Uiso   1.00
C96    C     0.37593   0.01940   0.22231   0.00000  Uiso   1.00
C97    C     0.66535   0.29056   0.25141   0.00000  Uiso   1.00
C98    C     0.33479   0.04280   0.24707   0.00000  Uiso   1.00
C99    C     0.51462   0.18800   0.28257   0.00000  Uiso   1.00
C100   C     0.48532   0.14513   0.21761   0.00000  Uiso   1.00
C101   C     0.46508   0.18817   0.28244   0.00000  Uiso   1.00
C102   C     0.53491   0.14515   0.21757   0.00000  Uiso   1.00
C103   C     0.63906   0.16717   0.33656   0.00000  Uiso   1.00
C104   C     0.36097   0.16778   0.16357   0.00000  Uiso   1.00
C105   C     0.62422   0.17054   0.38665   0.00000  Uiso   1.00
C106   C     0.37672   0.17713   0.11476   0.00000  Uiso   1.00
C107   C     0.64448   0.16823   0.45827   0.00000  Uiso   1.00
C108   C     0.36432   0.21437   0.05071   0.00000  Uiso   1.00
C109   C     0.65868   0.16508   0.41095   0.00000  Uiso   1.00
C110   C     0.34585   0.19859   0.09436   0.00000  Uiso   1.00
C111   C     0.57580   0.18074   0.41037   0.00000  Uiso   1.00
C112   C     0.42579   0.17120   0.09070   0.00000  Uiso   1.00
C113   C     0.56204   0.18812   0.45765   0.00000  Uiso   1.00
C114   C     0.44632   0.19190   0.04991   0.00000  Uiso   1.00
C115   C     0.59612   0.17870   0.48183   0.00000  Uiso   1.00
C116   C     0.41442   0.21105   0.02823   0.00000  Uiso   1.00
C117   C     0.51410   0.20122   0.48198   0.00000  Uiso   1.00
C118   C     0.49747   0.19268   0.02925   0.00000  Uiso   1.00
Cu119  Cu    0.38022   0.16667   0.25000   0.00000  Uiso   1.00
Cu120  Cu    0.61978   0.16666   0.25000   0.00000  Uiso   1.00
H121   H     0.60890   0.17549   0.04725   0.00000  Uiso   1.00
H122   H     0.40904   0.24628   0.47100   0.00000  Uiso   1.00
H123   H     0.64131   0.20429   0.11268   0.00000  Uiso   1.00
H124   H     0.36302   0.15734   0.39350   0.00000  Uiso   1.00
H125   H     0.33798   0.16232   0.47645   0.00000  Uiso   1.00
H126   H     0.33984   0.23059   0.03526   0.00000  Uiso   1.00
H127   H     0.59473   0.04157   0.29173   0.00000  Uiso   1.00
H128   H     0.40516   0.29171   0.20614   0.00000  Uiso   1.00
H129   H     0.43833   0.20548   0.30840   0.00000  Uiso   1.00
H130   H     0.56166   0.12787   0.19158   0.00000  Uiso   1.00
N131   N     0.45069   0.16668   0.24999   0.00000  Uiso   1.00
N132   N     0.54931   0.16666   0.25001   0.00000  Uiso   1.00
O133   O     0.37291   0.10655   0.25000   0.00000  Uiso   1.00
O134   O     0.62709   0.22678   0.25000   0.00000  Uiso   1.00
O135   O     0.62706   0.10654   0.25000   0.00000  Uiso   1.00
O136   O     0.37294   0.22679   0.24999   0.00000  Uiso   1.00
O137   O     0.35186   0.16668   0.31491   0.00000  Uiso   1.00
O138   O     0.64814   0.16666   0.18508   0.00000  Uiso   1.00
O139   O     0.60600   0.16667   0.31492   0.00000  Uiso   1.00
O140   O     0.39400   0.16667   0.18508   0.00000  Uiso   1.00
H141   H     0.44747   0.15009   0.10403   0.00000  Uiso   1.00
H142   H     0.54858   0.18095   0.39210   0.00000  Uiso   1.00
C143   C     0.52378   0.20008   0.10404   0.00000  Uiso   1.00
C144   C     0.50341   0.24394   0.11463   0.00000  Uiso   1.00
H145   H     0.52769   0.26612   0.09179   0.00000  Uiso   1.00
H146   H     0.50127   0.25218   0.15044   0.00000  Uiso   1.00
H147   H     0.46616   0.24671   0.11056   0.00000  Uiso   1.00
H148   H     0.50042   0.17818   0.12732   0.00000  Uiso   1.00
H149   H     0.55838   0.19890   0.11373   0.00000  Uiso   1.00
C150   C     0.50288   0.25607   0.42467   0.00000  Uiso   1.00
C151   C     0.53582   0.28718   0.43891   0.00000  Uiso   1.00
H152   H     0.51747   0.30006   0.47332   0.00000  Uiso   1.00
H153   H     0.57095   0.27243   0.43923   0.00000  Uiso   1.00
H154   H     0.54375   0.31308   0.41473   0.00000  Uiso   1.00
H155   H     0.52231   0.24162   0.39172   0.00000  Uiso   1.00
H156   H     0.47246   0.27384   0.41747   0.00000  Uiso   1.00
C157   C     0.57767   0.29555   0.30562   0.00000  Uiso   1.00
C158   C     0.53784   0.29393   0.28132   0.00000  Uiso   1.00
H159   H     0.54973   0.27432   0.25014   0.00000  Uiso   1.00
H160   H     0.50416   0.28094   0.30440   0.00000  Uiso   1.00
H161   H     0.52917   0.32541   0.27171   0.00000  Uiso   1.00
H162   H     0.58413   0.26458   0.31788   0.00000  Uiso   1.00
H163   H     0.56415   0.31502   0.33670   0.00000  Uiso   1.00
C164   C     0.42121   0.03794   0.19051   0.00000  Uiso   1.00
C165   C     0.46352   0.03748   0.21177   0.00000  Uiso   1.00
H166   H     0.49628   0.05098   0.18780   0.00000  Uiso   1.00
H167   H     0.45387   0.05580   0.24396   0.00000  Uiso   1.00
H168   H     0.47266   0.00538   0.21901   0.00000  Uiso   1.00
H169   H     0.43205   0.01976   0.15817   0.00000  Uiso   1.00
H170   H     0.41458   0.06974   0.18056   0.00000  Uiso   1.00
H171   H     0.52508   0.20498   0.30877   0.00000  Uiso   1.00
H172   H     0.47479   0.12789   0.19163   0.00000  Uiso   1.00
C173   C     0.66753   0.08744   0.24805   0.00000  Uiso   1.00
C174   C     0.99929   0.24592   0.25133   0.00000  Uiso   1.00
C175   C     0.86646   0.18851   0.05378   0.00000  Uiso   1.00
C176   C     0.81642   0.22521   0.46244   0.00000  Uiso   1.00
C177   C     0.91515   0.18054   0.02923   0.00000  Uiso   1.00
C178   C     0.76654   0.22861   0.48559   0.00000  Uiso   1.00
C179   C     0.95936   0.02331   0.27269   0.00000  Uiso   1.00
C180   C     0.70734   0.31003   0.22538   0.00000  Uiso   1.00
C181   C     0.95723   0.31398   0.27538   0.00000  Uiso   1.00
C182   C     0.70926   0.01940   0.22231   0.00000  Uiso   1.00
C183   C     0.99868   0.29056   0.25141   0.00000  Uiso   1.00
C184   C     0.66812   0.04280   0.24707   0.00000  Uiso   1.00
C185   C     0.84796   0.18800   0.28257   0.00000  Uiso   1.00
C186   C     0.81866   0.14513   0.21761   0.00000  Uiso   1.00
C187   C     0.79841   0.18817   0.28244   0.00000  Uiso   1.00
C188   C     0.86825   0.14515   0.21757   0.00000  Uiso   1.00
C189   C     0.97240   0.16717   0.33656   0.00000  Uiso   1.00
C190   C     0.69430   0.16778   0.16357   0.00000  Uiso   1.00
C191   C     0.95756   0.17054   0.38665   0.00000  Uiso   1.00
C192   C     0.71005   0.17713   0.11476   0.00000  Uiso   1.00
C193   C     0.97782   0.16823   0.45827   0.00000  Uiso   1.00
C194   C     0.69765   0.21437   0.05071   0.00000  Uiso   1.00
C195   C     0.99201   0.16508   0.41095   0.00000  Uiso   1.00
C196   C     0.67918   0.19859   0.09436   0.00000  Uiso   1.00
C197   C     0.90913   0.18074   0.41037   0.00000  Uiso   1.00
C198   C     0.75913   0.17120   0.09070   0.00000  Uiso   1.00
C199   C     0.89537   0.18812   0.45765   0.00000  Uiso   1.00
C200   C     0.77966   0.19190   0.04991   0.00000  Uiso   1.00
C201   C     0.92945   0.17870   0.48183   0.00000  Uiso   1.00
C202   C     0.74775   0.21105   0.02823   0.00000  Uiso   1.00
C203   C     0.84743   0.20122   0.48198   0.00000  Uiso   1.00
C204   C     0.83080   0.19268   0.02925   0.00000  Uiso   1.00
Cu205  Cu    0.71355   0.16667   0.25000   0.00000  Uiso   1.00
Cu206  Cu    0.95311   0.16666   0.25000   0.00000  Uiso   1.00
H207   H     0.94223   0.17549   0.04725   0.00000  Uiso   1.00
H208   H     0.74237   0.24628   0.47100   0.00000  Uiso   1.00
H209   H     0.97465   0.20429   0.11268   0.00000  Uiso   1.00
H210   H     0.69636   0.15734   0.39350   0.00000  Uiso   1.00
H211   H     0.67131   0.16232   0.47645   0.00000  Uiso   1.00
H212   H     0.67318   0.23059   0.03526   0.00000  Uiso   1.00
H213   H     0.92807   0.04157   0.29173   0.00000  Uiso   1.00
H214   H     0.73849   0.29171   0.20614   0.00000  Uiso   1.00
H215   H     0.77166   0.20548   0.30840   0.00000  Uiso   1.00
H216   H     0.89499   0.12787   0.19158   0.00000  Uiso   1.00
N217   N     0.78403   0.16668   0.24999   0.00000  Uiso   1.00
N218   N     0.88264   0.16666   0.25001   0.00000  Uiso   1.00
O219   O     0.70625   0.10655   0.25000   0.00000  Uiso   1.00
O220   O     0.96042   0.22678   0.25000   0.00000  Uiso   1.00
O221   O     0.96039   0.10654   0.25000   0.00000  Uiso   1.00
O222   O     0.70628   0.22679   0.24999   0.00000  Uiso   1.00
O223   O     0.68519   0.16668   0.31491   0.00000  Uiso   1.00
O224   O     0.98148   0.16666   0.18508   0.00000  Uiso   1.00
O225   O     0.93933   0.16667   0.31492   0.00000  Uiso   1.00
O226   O     0.72733   0.16667   0.18508   0.00000  Uiso   1.00
H227   H     0.78080   0.15009   0.10403   0.00000  Uiso   1.00
H228   H     0.88191   0.18095   0.39210   0.00000  Uiso   1.00
C229   C     0.85711   0.20008   0.10404   0.00000  Uiso   1.00
C230   C     0.83674   0.24394   0.11463   0.00000  Uiso   1.00
H231   H     0.86102   0.26612   0.09179   0.00000  Uiso   1.00
H232   H     0.83460   0.25218   0.15044   0.00000  Uiso   1.00
H233   H     0.79949   0.24671   0.11056   0.00000  Uiso   1.00
H234   H     0.83375   0.17818   0.12732   0.00000  Uiso   1.00
H235   H     0.89172   0.19890   0.11373   0.00000  Uiso   1.00
C236   C     0.83621   0.25607   0.42467   0.00000  Uiso   1.00
C237   C     0.86916   0.28718   0.43891   0.00000  Uiso   1.00
H238   H     0.85080   0.30006   0.47332   0.00000  Uiso   1.00
H239   H     0.90428   0.27243   0.43923   0.00000  Uiso   1.00
H240   H     0.87709   0.31308   0.41473   0.00000  Uiso   1.00
H241   H     0.85564   0.24162   0.39172   0.00000  Uiso   1.00
H242   H     0.80580   0.27384   0.41747   0.00000  Uiso   1.00
C243   C     0.91100   0.29555   0.30562   0.00000  Uiso   1.00
C244   C     0.87118   0.29393   0.28132   0.00000  Uiso   1.00
H245   H     0.88306   0.27432   0.25014   0.00000  Uiso   1.00
H246   H     0.83749   0.28094   0.30440   0.00000  Uiso   1.00
H247   H     0.86251   0.32541   0.27171   0.00000  Uiso   1.00
H248   H     0.91746   0.26458   0.31788   0.00000  Uiso   1.00
H249   H     0.89749   0.31502   0.33670   0.00000  Uiso   1.00
C250   C     0.75454   0.03794   0.19051   0.00000  Uiso   1.00
C251   C     0.79686   0.03748   0.21177   0.00000  Uiso   1.00
H252   H     0.82961   0.05098   0.18780   0.00000  Uiso   1.00
H253   H     0.78720   0.05580   0.24396   0.00000  Uiso   1.00
H254   H     0.80599   0.00538   0.21901   0.00000  Uiso   1.00
H255   H     0.76538   0.01976   0.15817   0.00000  Uiso   1.00
H256   H     0.74791   0.06974   0.18056   0.00000  Uiso   1.00
H257   H     0.85841   0.20498   0.30877   0.00000  Uiso   1.00
H258   H     0.80812   0.12789   0.19163   0.00000  Uiso   1.00
C259   C     0.00086   0.42077   0.24805   0.00000  Uiso   1.00
C260   C     0.33263   0.57926   0.25133   0.00000  Uiso   1.00
C261   C     0.19979   0.52184   0.05378   0.00000  Uiso   1.00
C262   C     0.14976   0.55855   0.46244   0.00000  Uiso   1.00
C263   C     0.24849   0.51387   0.02923   0.00000  Uiso   1.00
C264   C     0.09988   0.56195   0.48559   0.00000  Uiso   1.00
C265   C     0.29269   0.35664   0.27269   0.00000  Uiso   1.00
C266   C     0.04067   0.64336   0.22538   0.00000  Uiso   1.00
C267   C     0.29056   0.64731   0.27538   0.00000  Uiso   1.00
C268   C     0.04260   0.35274   0.22231   0.00000  Uiso   1.00
C269   C     0.33202   0.62389   0.25141   0.00000  Uiso   1.00
C270   C     0.00146   0.37614   0.24707   0.00000  Uiso   1.00
C271   C     0.18129   0.52133   0.28257   0.00000  Uiso   1.00
C272   C     0.15199   0.47846   0.21761   0.00000  Uiso   1.00
C273   C     0.13174   0.52150   0.28244   0.00000  Uiso   1.00
C274   C     0.20158   0.47849   0.21757   0.00000  Uiso   1.00
C275   C     0.30573   0.50051   0.33656   0.00000  Uiso   1.00
C276   C     0.02763   0.50112   0.16357   0.00000  Uiso   1.00
C277   C     0.29089   0.50387   0.38665   0.00000  Uiso   1.00
C278   C     0.04338   0.51046   0.11476   0.00000  Uiso   1.00
C279   C     0.31115   0.50156   0.45827   0.00000  Uiso   1.00
C280   C     0.03098   0.54770   0.05071   0.00000  Uiso   1.00
C281   C     0.32534   0.49841   0.41095   0.00000  Uiso   1.00
C282   C     0.01252   0.53192   0.09436   0.00000  Uiso   1.00
C283   C     0.24247   0.51407   0.41037   0.00000  Uiso   1.00
C284   C     0.09246   0.50454   0.09070   0.00000  Uiso   1.00
C285   C     0.22871   0.52146   0.45765   0.00000  Uiso   1.00
C286   C     0.11299   0.52523   0.04991   0.00000  Uiso   1.00
C287   C     0.26278   0.51203   0.48183   0.00000  Uiso   1.00
C288   C     0.08108   0.54438   0.02823   0.00000  Uiso   1.00
C289   C     0.18077   0.53455   0.48198   0.00000  Uiso   1.00
C290   C     0.16413   0.52601   0.02925   0.00000  Uiso   1.00
Cu291  Cu    0.04689   0.50001   0.25000   0.00000  Uiso   1.00
Cu292  Cu    0.28645   0.49999   0.25000   0.00000  Uiso   1.00
H293   H     0.27556   0.50882   0.04725   0.00000  Uiso   1.00
H294   H     0.07570   0.57961   0.47100   0.00000  Uiso   1.00
H295   H     0.30798   0.53763   0.11268   0.00000  Uiso   1.00
H296   H     0.02969   0.49068   0.39350   0.00000  Uiso   1.00
H297   H     0.00464   0.49566   0.47645   0.00000  Uiso   1.00
H298   H     0.00651   0.56393   0.03526   0.00000  Uiso   1.00
H299   H     0.26140   0.37490   0.29173   0.00000  Uiso   1.00
H300   H     0.07182   0.62504   0.20614   0.00000  Uiso   1.00
H301   H     0.10500   0.53881   0.30840   0.00000  Uiso   1.00
H302   H     0.22832   0.46121   0.19158   0.00000  Uiso   1.00
N303   N     0.11736   0.50001   0.24999   0.00000  Uiso   1.00
N304   N     0.21597   0.49999   0.25001   0.00000  Uiso   1.00
O305   O     0.03958   0.43989   0.25000   0.00000  Uiso   1.00
O306   O     0.29375   0.56011   0.25000   0.00000  Uiso   1.00
O307   O     0.29372   0.43988   0.25000   0.00000  Uiso   1.00
O308   O     0.03961   0.56012   0.24999   0.00000  Uiso   1.00
O309   O     0.01852   0.50001   0.31491   0.00000  Uiso   1.00
O310   O     0.31481   0.49999   0.18508   0.00000  Uiso   1.00
O311   O     0.27267   0.50000   0.31492   0.00000  Uiso   1.00
O312   O     0.06067   0.50000   0.18508   0.00000  Uiso   1.00
H313   H     0.11413   0.48342   0.10403   0.00000  Uiso   1.00
H314   H     0.21525   0.51429   0.39210   0.00000  Uiso   1.00
C315   C     0.19045   0.53342   0.10404   0.00000  Uiso   1.00
C316   C     0.17007   0.57728   0.11463   0.00000  Uiso   1.00
H317   H     0.19436   0.59945   0.09179   0.00000  Uiso   1.00
H318   H     0.16793   0.58551   0.15044   0.00000  Uiso   1.00
H319   H     0.13283   0.58005   0.11056   0.00000  Uiso   1.00
H320   H     0.16709   0.51151   0.12732   0.00000  Uiso   1.00
H321   H     0.22505   0.53223   0.11373   0.00000  Uiso   1.00
C322   C     0.16955   0.58940   0.42467   0.00000  Uiso   1.00
C323   C     0.20249   0.62052   0.43891   0.00000  Uiso   1.00
H324   H     0.18414   0.63339   0.47332   0.00000  Uiso   1.00
H325   H     0.23761   0.60576   0.43923   0.00000  Uiso   1.00
H326   H     0.21042   0.64641   0.41473   0.00000  Uiso   1.00
H327   H     0.18897   0.57496   0.39172   0.00000  Uiso   1.00
H328   H     0.13913   0.60717   0.41747   0.00000  Uiso   1.00
C329   C     0.24433   0.62889   0.30562   0.00000  Uiso   1.00
C330   C     0.20451   0.62727   0.28132   0.00000  Uiso   1.00
H331   H     0.21639   0.60766   0.25014   0.00000  Uiso   1.00
H332   H     0.17082   0.61427   0.30440   0.00000  Uiso   1.00
H333   H     0.19584   0.65875   0.27171   0.00000  Uiso   1.00
H334   H     0.25080   0.59791   0.31788   0.00000  Uiso   1.00
H335   H     0.23082   0.64835   0.33670   0.00000  Uiso   1.00
C336   C     0.08787   0.37127   0.19051   0.00000  Uiso   1.00
C337   C     0.13019   0.37081   0.21177   0.00000  Uiso   1.00
H338   H     0.16295   0.38432   0.18780   0.00000  Uiso   1.00
H339   H     0.12053   0.38913   0.24396   0.00000  Uiso   1.00
H340   H     0.13932   0.33872   0.21901   0.00000  Uiso   1.00
H341   H     0.09871   0.35309   0.15817   0.00000  Uiso   1.00
H342   H     0.08125   0.40307   0.18056   0.00000  Uiso   1.00
H343   H     0.19174   0.53832   0.30877   0.00000  Uiso   1.00
H344   H     0.14145   0.46123   0.19163   0.00000  Uiso   1.00
C345   C     0.33419   0.42077   0.24805   0.00000  Uiso   1.00
C346   C     0.66596   0.57926   0.25133   0.00000  Uiso   1.00
C347   C     0.53313   0.52184   0.05378   0.00000  Uiso   1.00
C348   C     0.48309   0.55855   0.46244   0.00000  Uiso   1.00
C349   C     0.58182   0.51387   0.02923   0.00000  Uiso   1.00
C350   C     0.43321   0.56195   0.48559   0.00000  Uiso   1.00
C351   C     0.62603   0.35664   0.27269   0.00000  Uiso   1.00
C352   C     0.37400   0.64336   0.22538   0.00000  Uiso   1.00
C353   C     0.62390   0.64731   0.27538   0.00000  Uiso   1.00
C354   C     0.37593   0.35274   0.22231   0.00000  Uiso   1.00
C355   C     0.66535   0.62389   0.25141   0.00000  Uiso   1.00
C356   C     0.33479   0.37614   0.24707   0.00000  Uiso   1.00
C357   C     0.51462   0.52133   0.28257   0.00000  Uiso   1.00
C358   C     0.48532   0.47846   0.21761   0.00000  Uiso   1.00
C359   C     0.46508   0.52150   0.28244   0.00000  Uiso   1.00
C360   C     0.53491   0.47849   0.21757   0.00000  Uiso   1.00
C361   C     0.63906   0.50051   0.33656   0.00000  Uiso   1.00
C362   C     0.36097   0.50112   0.16357   0.00000  Uiso   1.00
C363   C     0.62422   0.50387   0.38665   0.00000  Uiso   1.00
C364   C     0.37672   0.51046   0.11476   0.00000  Uiso   1.00
C365   C     0.64448   0.50156   0.45827   0.00000  Uiso   1.00
C366   C     0.36432   0.54770   0.05071   0.00000  Uiso   1.00
C367   C     0.65868   0.49841   0.41095   0.00000  Uiso   1.00
C368   C     0.34585   0.53192   0.09436   0.00000  Uiso   1.00
C369   C     0.57580   0.51407   0.41037   0.00000  Uiso   1.00
C370   C     0.42579   0.50454   0.09070   0.00000  Uiso   1.00
C371   C     0.56204   0.52146   0.45765   0.00000  Uiso   1.00
C372   C     0.44632   0.52523   0.04991   0.00000  Uiso   1.00
C373   C     0.59612   0.51203   0.48183   0.00000  Uiso   1.00
C374   C     0.41442   0.54438   0.02823   0.00000  Uiso   1.00
C375   C     0.51410   0.53455   0.48198   0.00000  Uiso   1.00
C376   C     0.49747   0.52601   0.02925   0.00000  Uiso   1.00
Cu377  Cu    0.38022   0.50001   0.25000   0.00000  Uiso   1.00
Cu378  Cu    0.61978   0.49999   0.25000   0.00000  Uiso   1.00
H379   H     0.60890   0.50882   0.04725   0.00000  Uiso   1.00
H380   H     0.40904   0.57961   0.47100   0.00000  Uiso   1.00
H381   H     0.64131   0.53763   0.11268   0.00000  Uiso   1.00
H382   H     0.36302   0.49068   0.39350   0.00000  Uiso   1.00
H383   H     0.33798   0.49566   0.47645   0.00000  Uiso   1.00
H384   H     0.33984   0.56393   0.03526   0.00000  Uiso   1.00
H385   H     0.59473   0.37490   0.29173   0.00000  Uiso   1.00
H386   H     0.40516   0.62504   0.20614   0.00000  Uiso   1.00
H387   H     0.43833   0.53881   0.30840   0.00000  Uiso   1.00
H388   H     0.56166   0.46121   0.19158   0.00000  Uiso   1.00
N389   N     0.45069   0.50001   0.24999   0.00000  Uiso   1.00
N390   N     0.54931   0.49999   0.25001   0.00000  Uiso   1.00
O391   O     0.37291   0.43989   0.25000   0.00000  Uiso   1.00
O392   O     0.62709   0.56011   0.25000   0.00000  Uiso   1.00
O393   O     0.62706   0.43988   0.25000   0.00000  Uiso   1.00
O394   O     0.37294   0.56012   0.24999   0.00000  Uiso   1.00
O395   O     0.35186   0.50001   0.31491   0.00000  Uiso   1.00
O396   O     0.64814   0.49999   0.18508   0.00000  Uiso   1.00
O397   O     0.60600   0.50000   0.31492   0.00000  Uiso   1.00
O398   O     0.39400   0.50000   0.18508   0.00000  Uiso   1.00
H399   H     0.44747   0.48342   0.10403   0.00000  Uiso   1.00
H400   H     0.54858   0.51429   0.39210   0.00000  Uiso   1.00
C401   C     0.52378   0.53342   0.10404   0.00000  Uiso   1.00
C402   C     0.50341   0.57728   0.11463   0.00000  Uiso   1.00
H403   H     0.52769   0.59945   0.09179   0.00000  Uiso   1.00
H404   H     0.50127   0.58551   0.15044   0.00000  Uiso   1.00
H405   H     0.46616   0.58005   0.11056   0.00000  Uiso   1.00
H406   H     0.50042   0.51151   0.12732   0.00000  Uiso   1.00
H407   H     0.55838   0.53223   0.11373   0.00000  Uiso   1.00
C408   C     0.50288   0.58940   0.42467   0.00000  Uiso   1.00
C409   C     0.53582   0.62052   0.43891   0.00000  Uiso   1.00
H410   H     0.51747   0.63339   0.47332   0.00000  Uiso   1.00
H411   H     0.57095   0.60576   0.43923   0.00000  Uiso   1.00
H412   H     0.54375   0.64641   0.41473   0.00000  Uiso   1.00
H413   H     0.52231   0.57496   0.39172   0.00000  Uiso   1.00
H414   H     0.47246   0.60717   0.41747   0.00000  Uiso   1.00
C415   C     0.57767   0.62889   0.30562   0.00000  Uiso   1.00
C416   C     0.53784   0.62727   0.28132   0.00000  Uiso   1.00
H417   H     0.54973   0.60766   0.25014   0.00000  Uiso   1.00
H418   H     0.50416   0.61427   0.30440   0.00000  Uiso   1.00
H419   H     0.52917   0.65875   0.27171   0.00000  Uiso   1.00
H420   H     0.58413   0.59791   0.31788   0.00000  Uiso   1.00
H421   H     0.56415   0.64835   0.33670   0.00000  Uiso   1.00
C422   C     0.42121   0.37127   0.19051   0.00000  Uiso   1.00
C423   C     0.46352   0.37081   0.21177   0.00000  Uiso   1.00
H424   H     0.49628   0.38432   0.18780   0.00000  Uiso   1.00
H425   H     0.45387   0.38913   0.24396   0.00000  Uiso   1.00
H426   H     0.47266   0.33872   0.21901   0.00000  Uiso   1.00
H427   H     0.43205   0.35309   0.15817   0.00000  Uiso   1.00
H428   H     0.41458   0.40307   0.18056   0.00000  Uiso   1.00
H429   H     0.52508   0.53832   0.30877   0.00000  Uiso   1.00
H430   H     0.47479   0.46123   0.19163   0.00000  Uiso   1.00
C431   C     0.66753   0.42077   0.24805   0.00000  Uiso   1.00
C432   C     0.99929   0.57926   0.25133   0.00000  Uiso   1.00
C433   C     0.86646   0.52184   0.05378   0.00000  Uiso   1.00
C434   C     0.81642   0.55855   0.46244   0.00000  Uiso   1.00
C435   C     0.91515   0.51387   0.02923   0.00000  Uiso   1.00
C436   C     0.76654   0.56195   0.48559   0.00000  Uiso   1.00
C437   C     0.95936   0.35664   0.27269   0.00000  Uiso   1.00
C438   C     0.70734   0.64336   0.22538   0.00000  Uiso   1.00
C439   C     0.95723   0.64731   0.27538   0.00000  Uiso   1.00
C440   C     0.70926   0.35274   0.22231   0.00000  Uiso   1.00
C441   C     0.99868   0.62389   0.25141   0.00000  Uiso   1.00
C442   C     0.66812   0.37614   0.24707   0.00000  Uiso   1.00
C443   C     0.84796   0.52133   0.28257   0.00000  Uiso   1.00
C444   C     0.81866   0.47846   0.21761   0.00000  Uiso   1.00
C445   C     0.79841   0.52150   0.28244   0.00000  Uiso   1.00
C446   C     0.86825   0.47849   0.21757   0.00000  Uiso   1.00
C447   C     0.97240   0.50051   0.33656   0.00000  Uiso   1.00
C448   C     0.69430   0.50112   0.16357   0.00000  Uiso   1.00
C449   C     0.95756   0.50387   0.38665   0.00000  Uiso   1.00
C450   C     0.71005   0.51046   0.11476   0.00000  Uiso   1.00
C451   C     0.97782   0.50156   0.45827   0.00000  Uiso   1.00
C452   C     0.69765   0.54770   0.05071   0.00000  Uiso   1.00
C453   C     0.99201   0.49841   0.41095   0.00000  Uiso   1.00
C454   C     0.67918   0.53192   0.09436   0.00000  Uiso   1.00
C455   C     0.90913   0.51407   0.41037   0.00000  Uiso   1.00
C456   C     0.75913   0.50454   0.09070   0.00000  Uiso   1.00
C457   C     0.89537   0.52146   0.45765   0.00000  Uiso   1.00
C458   C     0.77966   0.52523   0.04991   0.00000  Uiso   1.00
C459   C     0.92945   0.51203   0.48183   0.00000  Uiso   1.00
C460   C     0.74775   0.54438   0.02823   0.00000  Uiso   1.00
C461   C     0.84743   0.53455   0.48198   0.00000  Uiso   1.00
C462   C     0.83080   0.52601   0.02925   0.00000  Uiso   1.00
Cu463  Cu    0.71355   0.50001   0.25000   0.00000  Uiso   1.00
Cu464  Cu    0.95311   0.49999   0.25000   0.00000  Uiso   1.00
H465   H     0.94223   0.50882   0.04725   0.00000  Uiso   1.00
H466   H     0.74237   0.57961   0.47100   0.00000  Uiso   1.00
H467   H     0.97465   0.53763   0.11268   0.00000  Uiso   1.00
H468   H     0.69636   0.49068   0.39350   0.00000  Uiso   1.00
H469   H     0.67131   0.49566   0.47645   0.00000  Uiso   1.00
H470   H     0.67318   0.56393   0.03526   0.00000  Uiso   1.00
H471   H     0.92807   0.37490   0.29173   0.00000  Uiso   1.00
H472   H     0.73849   0.62504   0.20614   0.00000  Uiso   1.00
H473   H     0.77166   0.53881   0.30840   0.00000  Uiso   1.00
H474   H     0.89499   0.46121   0.19158   0.00000  Uiso   1.00
N475   N     0.78403   0.50001   0.24999   0.00000  Uiso   1.00
N476   N     0.88264   0.49999   0.25001   0.00000  Uiso   1.00
O477   O     0.70625   0.43989   0.25000   0.00000  Uiso   1.00
O478   O     0.96042   0.56011   0.25000   0.00000  Uiso   1.00
O479   O     0.96039   0.43988   0.25000   0.00000  Uiso   1.00
O480   O     0.70628   0.56012   0.24999   0.00000  Uiso   1.00
O481   O     0.68519   0.50001   0.31491   0.00000  Uiso   1.00
O482   O     0.98148   0.49999   0.18508   0.00000  Uiso   1.00
O483   O     0.93933   0.50000   0.31492   0.00000  Uiso   1.00
O484   O     0.72733   0.50000   0.18508   0.00000  Uiso   1.00
H485   H     0.78080   0.48342   0.10403   0.00000  Uiso   1.00
H486   H     0.88191   0.51429   0.39210   0.00000  Uiso   1.00
C487   C     0.85711   0.53342   0.10404   0.00000  Uiso   1.00
C488   C     0.83674   0.57728   0.11463   0.00000  Uiso   1.00
H489   H     0.86102   0.59945   0.09179   0.00000  Uiso   1.00
H490   H     0.83460   0.58551   0.15044   0.00000  Uiso   1.00
H491   H     0.79949   0.58005   0.11056   0.00000  Uiso   1.00
H492   H     0.83375   0.51151   0.12732   0.00000  Uiso   1.00
H493   H     0.89172   0.53223   0.11373   0.00000  Uiso   1.00
C494   C     0.83621   0.58940   0.42467   0.00000  Uiso   1.00
C495   C     0.86916   0.62052   0.43891   0.00000  Uiso   1.00
H496   H     0.85080   0.63339   0.47332   0.00000  Uiso   1.00
H497   H     0.90428   0.60576   0.43923   0.00000  Uiso   1.00
H498   H     0.87709   0.64641   0.41473   0.00000  Uiso   1.00
H499   H     0.85564   0.57496   0.39172   0.00000  Uiso   1.00
H500   H     0.80580   0.60717   0.41747   0.00000  Uiso   1.00
C501   C     0.91100   0.62889   0.30562   0.00000  Uiso   1.00
C502   C     0.87118   0.62727   0.28132   0.00000  Uiso   1.00
H503   H     0.88306   0.60766   0.25014   0.00000  Uiso   1.00
H504   H     0.83749   0.61427   0.30440   0.00000  Uiso   1.00
H505   H     0.86251   0.65875   0.27171   0.00000  Uiso   1.00
H506   H     0.91746   0.59791   0.31788   0.00000  Uiso   1.00
H507   H     0.89749   0.64835   0.33670   0.00000  Uiso   1.00
C508   C     0.75454   0.37127   0.19051   0.00000  Uiso   1.00
C509   C     0.79686   0.37081   0.21177   0.00000  Uiso   1.00
H510   H     0.82961   0.38432   0.18780   0.00000  Uiso   1.00
H511   H     0.78720   0.38913   0.24396   0.00000  Uiso   1.00
H512   H     0.80599   0.33872   0.21901   0.00000  Uiso   1.00
H513   H     0.76538   0.35309   0.15817   0.00000  Uiso   1.00
H514   H     0.74791   0.40307   0.18056   0.00000  Uiso   1.00
H515   H     0.85841   0.53832   0.30877   0.00000  Uiso   1.00
H516   H     0.80812   0.46123   0.19163   0.00000  Uiso   1.00
C517   C     0.00086   0.75411   0.24805   0.00000  Uiso   1.00
C518   C     0.33263   0.91259   0.25133   0.00000  Uiso   1.00
C519   C     0.19979   0.85517   0.05378   0.00000  Uiso   1.00
C520   C     0.14976   0.89188   0.46244   0.00000  Uiso   1.00
C521   C     0.24849   0.84720   0.02923   0.00000  Uiso   1.00
C522   C     0.09988   0.89528   0.48559   0.00000  Uiso   1.00
C523   C     0.29269   0.68997   0.27269   0.00000  Uiso   1.00
C524   C     0.04067   0.97669   0.22538   0.00000  Uiso   1.00
C525   C     0.29056   0.98065   0.27538   0.00000  Uiso   1.00
C526   C     0.04260   0.68607   0.22231   0.00000  Uiso   1.00
C527   C     0.33202   0.95722   0.25141   0.00000  Uiso   1.00
C528   C     0.00146   0.70947   0.24707   0.00000  Uiso   1.00
C529   C     0.18129   0.85467   0.28257   0.00000  Uiso   1.00
C530   C     0.15199   0.81180   0.21761   0.00000  Uiso   1.00
C531   C     0.13174   0.85484   0.28244   0.00000  Uiso   1.00
C532   C     0.20158   0.81182   0.21757   0.00000  Uiso   1.00
C533   C     0.30573   0.83384   0.33656   0.00000  Uiso   1.00
C534   C     0.02763   0.83445   0.16357   0.00000  Uiso   1.00
C535   C     0.29089   0.83721   0.38665   0.00000  Uiso   1.00
C536   C     0.04338   0.84379   0.11476   0.00000  Uiso   1.00
C537   C     0.31115   0.83489   0.45827   0.00000  Uiso   1.00
C538   C     0.03098   0.88103   0.05071   0.00000  Uiso   1.00
C539   C     0.32534   0.83175   0.41095   0.00000  Uiso   1.00
C540   C     0.01252   0.86526   0.09436   0.00000  Uiso   1.00
C541   C     0.24247   0.84740   0.41037   0.00000  Uiso   1.00
C542   C     0.09246   0.83787   0.09070   0.00000  Uiso   1.00
C543   C     0.22871   0.85479   0.45765   0.00000  Uiso   1.00
C544   C     0.11299   0.85856   0.04991   0.00000  Uiso   1.00
C545   C     0.26278   0.84537   0.48183   0.00000  Uiso   1.00
C546   C     0.08108   0.87771   0.02823   0.00000  Uiso   1.00
C547   C     0.18077   0.86788   0.48198   0.00000  Uiso   1.00
C548   C     0.16413   0.85934   0.02925   0.00000  Uiso   1.00
Cu549  Cu    0.04689   0.83334   0.25000   0.00000  Uiso   1.00
Cu550  Cu    0.28645   0.83333   0.25000   0.00000  Uiso   1.00
H551   H     0.27556   0.84216   0.04725   0.00000  Uiso   1.00
H552   H     0.07570   0.91294   0.47100   0.00000  Uiso   1.00
H553   H     0.30798   0.87096   0.11268   0.00000  Uiso   1.00
H554   H     0.02969   0.82401   0.39350   0.00000  Uiso   1.00
H555   H     0.00464   0.82899   0.47645   0.00000  Uiso   1.00
H556   H     0.00651   0.89726   0.03526   0.00000  Uiso   1.00
H557   H     0.26140   0.70824   0.29173   0.00000  Uiso   1.00
H558   H     0.07182   0.95838   0.20614   0.00000  Uiso   1.00
H559   H     0.10500   0.87215   0.30840   0.00000  Uiso   1.00
H560   H     0.22832   0.79454   0.19158   0.00000  Uiso   1.00
N561   N     0.11736   0.83334   0.24999   0.00000  Uiso   1.00
N562   N     0.21597   0.83332   0.25001   0.00000  Uiso   1.00
O563   O     0.03958   0.77322   0.25000   0.00000  Uiso   1.00
O564   O     0.29375   0.89345   0.25000   0.00000  Uiso   1.00
O565   O     0.29372   0.77321   0.25000   0.00000  Uiso   1.00
O566   O     0.03961   0.89346   0.24999   0.00000  Uiso   1.00
O567   O     0.01852   0.83334   0.31491   0.00000  Uiso   1.00
O568   O     0.31481   0.83332   0.18508   0.00000  Uiso   1.00
O569   O     0.27267   0.83333   0.31492   0.00000  Uiso   1.00
O570   O     0.06067   0.83333   0.18508   0.00000  Uiso   1.00
H571   H     0.11413   0.81675   0.10403   0.00000  Uiso   1.00
H572   H     0.21525   0.84762   0.39210   0.00000  Uiso   1.00
C573   C     0.19045   0.86675   0.10404   0.00000  Uiso   1.00
C574   C     0.17007   0.91061   0.11463   0.00000  Uiso   1.00
H575   H     0.19436   0.93279   0.09179   0.00000  Uiso   1.00
H576   H     0.16793   0.91884   0.15044   0.00000  Uiso   1.00
H577   H     0.13283   0.91338   0.11056   0.00000  Uiso   1.00
H578   H     0.16709   0.84484   0.12732   0.00000  Uiso   1.00
H579   H     0.22505   0.86556   0.11373   0.00000  Uiso   1.00
C580   C     0.16955   0.92273   0.42467   0.00000  Uiso   1.00
C581   C     0.20249   0.95385   0.43891   0.00000  Uiso   1.00
H582   H     0.18414   0.96672   0.47332   0.00000  Uiso   1.00
H583   H     0.23761   0.93910   0.43923   0.00000  Uiso   1.00
H584   H     0.21042   0.97974   0.41473   0.00000  Uiso   1.00
H585   H     0.18897   0.90829   0.39172   0.00000  Uiso   1.00
H586   H     0.13913   0.94050   0.41747   0.00000  Uiso   1.00
C587   C     0.24433   0.96222   0.30562   0.00000  Uiso   1.00
C588   C     0.20451   0.96060   0.28132   0.00000  Uiso   1.00
H589   H     0.21639   0.94099   0.25014   0.00000  Uiso   1.00
H590   H     0.17082   0.94760   0.30440   0.00000  Uiso   1.00
H591   H     0.19584   0.99208   0.27171   0.00000  Uiso   1.00
H592   H     0.25080   0.93125   0.31788   0.00000  Uiso   1.00
H593   H     0.23082   0.98168   0.33670   0.00000  Uiso   1.00
C594   C     0.08787   0.70461   0.19051   0.00000  Uiso   1.00
C595   C     0.13019   0.70414   0.21177   0.00000  Uiso   1.00
H596   H     0.16295   0.71765   0.18780   0.00000  Uiso   1.00
H597   H     0.12053   0.72247   0.24396   0.00000  Uiso   1.00
H598   H     0.13932   0.67205   0.21901   0.00000  Uiso   1.00
H599   H     0.09871   0.68642   0.15817   0.00000  Uiso   1.00
H600   H     0.08125   0.73641   0.18056   0.00000  Uiso   1.00
H601   H     0.19174   0.87165   0.30877   0.00000  Uiso   1.00
H602   H     0.14145   0.79456   0.19163   0.00000  Uiso   1.00
C603   C     0.33419   0.75411   0.24805   0.00000  Uiso   1.00
C604   C     0.66596   0.91259   0.25133   0.00000  Uiso   1.00
C605   C     0.53313   0.85517   0.05378   0.00000  Uiso   1.00
C606   C     0.48309   0.89188   0.46244   0.00000  Uiso   1.00
C607   C     0.58182   0.84720   0.02923   0.00000  Uiso   1.00
C608   C     0.43321   0.89528   0.48559   0.00000  Uiso   1.00
C609   C     0.62603   0.68997   0.27269   0.00000  Uiso   1.00
C610   C     0.37400   0.97669   0.22538   0.00000  Uiso   1.00
C611   C     0.62390   0.98065   0.27538   0.00000  Uiso   1.00
C612   C     0.37593   0.68607   0.22231   0.00000  Uiso   1.00
C613   C     0.66535   0.95722   0.25141   0.00000  Uiso   1.00
C614   C     0.33479   0.70947   0.24707   0.00000  Uiso   1.00
C615   C     0.51462   0.85467   0.28257   0.00000  Uiso   1.00
C616   C     0.48532   0.81180   0.21761   0.00000  Uiso   1.00
C617   C     0.46508   0.85484   0.28244   0.00000  Uiso   1.00
C618   C     0.53491   0.81182   0.21757   0.00000  Uiso   1.00
C619   C     0.63906   0.83384   0.33656   0.00000  Uiso   1.00
C620   C     0.36097   0.83445   0.16357   0.00000  Uiso   1.00
C621   C     0.62422   0.83721   0.38665   0.00000  Uiso   1.00
C622   C     0.37672   0.84379   0.11476   0.00000  Uiso   1.00
C623   C     0.64448   0.83489   0.45827   0.00000  Uiso   1.00
C624   C     0.36432   0.88103   0.05071   0.00000  Uiso   1.00
C625   C     0.65868   0.83175   0.41095   0.00000  Uiso   1.00
C626   C     0.34585   0.86526   0.09436   0.00000  Uiso   1.00
C627   C     0.57580   0.84740   0.41037   0.00000  Uiso   1.00
C628   C     0.42579   0.83787   0.09070   0.00000  Uiso   1.00
C629   C     0.56204   0.85479   0.45765   0.00000  Uiso   1.00
C630   C     0.44632   0.85856   0.04991   0.00000  Uiso   1.00
C631   C     0.59612   0.84537   0.48183   0.00000  Uiso   1.00
C632   C     0.41442   0.87771   0.02823   0.00000  Uiso   1.00
C633   C     0.51410   0.86788   0.48198   0.00000  Uiso   1.00
C634   C     0.49747   0.85934   0.02925   0.00000  Uiso   1.00
Cu635  Cu    0.38022   0.83334   0.25000   0.00000  Uiso   1.00
Cu636  Cu    0.61978   0.83333   0.25000   0.00000  Uiso   1.00
H637   H     0.60890   0.84216   0.04725   0.00000  Uiso   1.00
H638   H     0.40904   0.91294   0.47100   0.00000  Uiso   1.00
H639   H     0.64131   0.87096   0.11268   0.00000  Uiso   1.00
H640   H     0.36302   0.82401   0.39350   0.00000  Uiso   1.00
H641   H     0.33798   0.82899   0.47645   0.00000  Uiso   1.00
H642   H     0.33984   0.89726   0.03526   0.00000  Uiso   1.00
H643   H     0.59473   0.70824   0.29173   0.00000  Uiso   1.00
H644   H     0.40516   0.95838   0.20614   0.00000  Uiso   1.00
H645   H     0.43833   0.87215   0.30840   0.00000  Uiso   1.00
H646   H     0.56166   0.79454   0.19158   0.00000  Uiso   1.00
N647   N     0.45069   0.83334   0.24999   0.00000  Uiso   1.00
N648   N     0.54931   0.83332   0.25001   0.00000  Uiso   1.00
O649   O     0.37291   0.77322   0.25000   0.00000  Uiso   1.00
O650   O     0.62709   0.89345   0.25000   0.00000  Uiso   1.00
O651   O     0.62706   0.77321   0.25000   0.00000  Uiso   1.00
O652   O     0.37294   0.89346   0.24999   0.00000  Uiso   1.00
O653   O     0.35186   0.83334   0.31491   0.00000  Uiso   1.00
O654   O     0.64814   0.83332   0.18508   0.00000  Uiso   1.00
O655   O     0.60600   0.83333   0.31492   0.00000  Uiso   1.00
O656   O     0.39400   0.83333   0.18508   0.00000  Uiso   1.00
H657   H     0.44747   0.81675   0.10403   0.00000  Uiso   1.00
H658   H     0.54858   0.84762   0.39210   0.00000  Uiso   1.00
C659   C     0.52378   0.86675   0.10404   0.00000  Uiso   1.00
C660   C     0.50341   0.91061   0.11463   0.00000  Uiso   1.00
H661   H     0.52769   0.93279   0.09179   0.00000  Uiso   1.00
H662   H     0.50127   0.91884   0.15044   0.00000  Uiso   1.00
H663   H     0.46616   0.91338   0.11056   0.00000  Uiso   1.00
H664   H     0.50042   0.84484   0.12732   0.00000  Uiso   1.00
H665   H     0.55838   0.86556   0.11373   0.00000  Uiso   1.00
C666   C     0.50288   0.92273   0.42467   0.00000  Uiso   1.00
C667   C     0.53582   0.95385   0.43891   0.00000  Uiso   1.00
H668   H     0.51747   0.96672   0.47332   0.00000  Uiso   1.00
H669   H     0.57095   0.93910   0.43923   0.00000  Uiso   1.00
H670   H     0.54375   0.97974   0.41473   0.00000  Uiso   1.00
H671   H     0.52231   0.90829   0.39172   0.00000  Uiso   1.00
H672   H     0.47246   0.94050   0.41747   0.00000  Uiso   1.00
C673   C     0.57767   0.96222   0.30562   0.00000  Uiso   1.00
C674   C     0.53784   0.96060   0.28132   0.00000  Uiso   1.00
H675   H     0.54973   0.94099   0.25014   0.00000  Uiso   1.00
H676   H     0.50416   0.94760   0.30440   0.00000  Uiso   1.00
H677   H     0.52917   0.99208   0.27171   0.00000  Uiso   1.00
H678   H     0.58413   0.93125   0.31788   0.00000  Uiso   1.00
H679   H     0.56415   0.98168   0.33670   0.00000  Uiso   1.00
C680   C     0.42121   0.70461   0.19051   0.00000  Uiso   1.00
C681   C     0.46352   0.70414   0.21177   0.00000  Uiso   1.00
H682   H     0.49628   0.71765   0.18780   0.00000  Uiso   1.00
H683   H     0.45387   0.72247   0.24396   0.00000  Uiso   1.00
H684   H     0.47266   0.67205   0.21901   0.00000  Uiso   1.00
H685   H     0.43205   0.68642   0.15817   0.00000  Uiso   1.00
H686   H     0.41458   0.73641   0.18056   0.00000  Uiso   1.00
H687   H     0.52508   0.87165   0.30877   0.00000  Uiso   1.00
H688   H     0.47479   0.79456   0.19163   0.00000  Uiso   1.00
C689   C     0.66753   0.75411   0.24805   0.00000  Uiso   1.00
C690   C     0.99929   0.91259   0.25133   0.00000  Uiso   1.00
C691   C     0.86646   0.85517   0.05378   0.00000  Uiso   1.00
C692   C     0.81642   0.89188   0.46244   0.00000  Uiso   1.00
C693   C     0.91515   0.84720   0.02923   0.00000  Uiso   1.00
C694   C     0.76654   0.89528   0.48559   0.00000  Uiso   1.00
C695   C     0.95936   0.68997   0.27269   0.00000  Uiso   1.00
C696   C     0.70734   0.97669   0.22538   0.00000  Uiso   1.00
C697   C     0.95723   0.98065   0.27538   0.00000  Uiso   1.00
C698   C     0.70926   0.68607   0.22231   0.00000  Uiso   1.00
C699   C     0.99868   0.95722   0.25141   0.00000  Uiso   1.00
C700   C     0.66812   0.70947   0.24707   0.00000  Uiso   1.00
C701   C     0.84796   0.85467   0.28257   0.00000  Uiso   1.00
C702   C     0.81866   0.81180   0.21761   0.00000  Uiso   1.00
C703   C     0.79841   0.85484   0.28244   0.00000  Uiso   1.00
C704   C     0.86825   0.81182   0.21757   0.00000  Uiso   1.00
C705   C     0.97240   0.83384   0.33656   0.00000  Uiso   1.00
C706   C     0.69430   0.83445   0.16357   0.00000  Uiso   1.00
C707   C     0.95756   0.83721   0.38665   0.00000  Uiso   1.00
C708   C     0.71005   0.84379   0.11476   0.00000  Uiso   1.00
C709   C     0.97782   0.83489   0.45827   0.00000  Uiso   1.00
C710   C     0.69765   0.88103   0.05071   0.00000  Uiso   1.00
C711   C     0.99201   0.83175   0.41095   0.00000  Uiso   1.00
C712   C     0.67918   0.86526   0.09436   0.00000  Uiso   1.00
C713   C     0.90913   0.84740   0.41037   0.00000  Uiso   1.00
C714   C     0.75913   0.83787   0.09070   0.00000  Uiso   1.00
C715   C     0.89537   0.85479   0.45765   0.00000  Uiso   1.00
C716   C     0.77966   0.85856   0.04991   0.00000  Uiso   1.00
C717   C     0.92945   0.84537   0.48183   0.00000  Uiso   1.00
C718   C     0.74775   0.87771   0.02823   0.00000  Uiso   1.00
C719   C     0.84743   0.86788   0.48198   0.00000  Uiso   1.00
C720   C     0.83080   0.85934   0.02925   0.00000  Uiso   1.00
Cu721  Cu    0.71355   0.83334   0.25000   0.00000  Uiso   1.00
Cu722  Cu    0.95311   0.83333   0.25000   0.00000  Uiso   1.00
H723   H     0.94223   0.84216   0.04725   0.00000  Uiso   1.00
H724   H     0.74237   0.91294   0.47100   0.00000  Uiso   1.00
H725   H     0.97465   0.87096   0.11268   0.00000  Uiso   1.00
H726   H     0.69636   0.82401   0.39350   0.00000  Uiso   1.00
H727   H     0.67131   0.82899   0.47645   0.00000  Uiso   1.00
H728   H     0.67318   0.89726   0.03526   0.00000  Uiso   1.00
H729   H     0.92807   0.70824   0.29173   0.00000  Uiso   1.00
H730   H     0.73849   0.95838   0.20614   0.00000  Uiso   1.00
H731   H     0.77166   0.87215   0.30840   0.00000  Uiso   1.00
H732   H     0.89499   0.79454   0.19158   0.00000  Uiso   1.00
N733   N     0.78403   0.83334   0.24999   0.00000  Uiso   1.00
N734   N     0.88264   0.83332   0.25001   0.00000  Uiso   1.00
O735   O     0.70625   0.77322   0.25000   0.00000  Uiso   1.00
O736   O     0.96042   0.89345   0.25000   0.00000  Uiso   1.00
O737   O     0.96039   0.77321   0.25000   0.00000  Uiso   1.00
O738   O     0.70628   0.89346   0.24999   0.00000  Uiso   1.00
O739   O     0.68519   0.83334   0.31491   0.00000  Uiso   1.00
O740   O     0.98148   0.83332   0.18508   0.00000  Uiso   1.00
O741   O     0.93933   0.83333   0.31492   0.00000  Uiso   1.00
O742   O     0.72733   0.83333   0.18508   0.00000  Uiso   1.00
H743   H     0.78080   0.81675   0.10403   0.00000  Uiso   1.00
H744   H     0.88191   0.84762   0.39210   0.00000  Uiso   1.00
C745   C     0.85711   0.86675   0.10404   0.00000  Uiso   1.00
C746   C     0.83674   0.91061   0.11463   0.00000  Uiso   1.00
H747   H     0.86102   0.93279   0.09179   0.00000  Uiso   1.00
H748   H     0.83460   0.91884   0.15044   0.00000  Uiso   1.00
H749   H     0.79949   0.91338   0.11056   0.00000  Uiso   1.00
H750   H     0.83375   0.84484   0.12732   0.00000  Uiso   1.00
H751   H     0.89172   0.86556   0.11373   0.00000  Uiso   1.00
C752   C     0.83621   0.92273   0.42467   0.00000  Uiso   1.00
C753   C     0.86916   0.95385   0.43891   0.00000  Uiso   1.00
H754   H     0.85080   0.96672   0.47332   0.00000  Uiso   1.00
H755   H     0.90428   0.93910   0.43923   0.00000  Uiso   1.00
H756   H     0.87709   0.97974   0.41473   0.00000  Uiso   1.00
H757   H     0.85564   0.90829   0.39172   0.00000  Uiso   1.00
H758   H     0.80580   0.94050   0.41747   0.00000  Uiso   1.00
C759   C     0.91100   0.96222   0.30562   0.00000  Uiso   1.00
C760   C     0.87118   0.96060   0.28132   0.00000  Uiso   1.00
H761   H     0.88306   0.94099   0.25014   0.00000  Uiso   1.00
H762   H     0.83749   0.94760   0.30440   0.00000  Uiso   1.00
H763   H     0.86251   0.99208   0.27171   0.00000  Uiso   1.00
H764   H     0.91746   0.93125   0.31788   0.00000  Uiso   1.00
H765   H     0.89749   0.98168   0.33670   0.00000  Uiso   1.00
C766   C     0.75454   0.70461   0.19051   0.00000  Uiso   1.00
C767   C     0.79686   0.70414   0.21177   0.00000  Uiso   1.00
H768   H     0.82961   0.71765   0.18780   0.00000  Uiso   1.00
H769   H     0.78720   0.72247   0.24396   0.00000  Uiso   1.00
H770   H     0.80599   0.67205   0.21901   0.00000  Uiso   1.00
H771   H     0.76538   0.68642   0.15817   0.00000  Uiso   1.00
H772   H     0.74791   0.73641   0.18056   0.00000  Uiso   1.00
H773   H     0.85841   0.87165   0.30877   0.00000  Uiso   1.00
H774   H     0.80812   0.79456   0.19163   0.00000  Uiso   1.00
C775   C     0.00086   0.08744   0.74805   0.00000  Uiso   1.00
C776   C     0.33263   0.24592   0.75133   0.00000  Uiso   1.00
C777   C     0.19979   0.18851   0.55378   0.00000  Uiso   1.00
C778   C     0.14976   0.22521   0.96244   0.00000  Uiso   1.00
C779   C     0.24849   0.18054   0.52923   0.00000  Uiso   1.00
C780   C     0.09988   0.22861   0.98559   0.00000  Uiso   1.00
C781   C     0.29269   0.02331   0.77269   0.00000  Uiso   1.00
C782   C     0.04067   0.31003   0.72538   0.00000  Uiso   1.00
C783   C     0.29056   0.31398   0.77538   0.00000  Uiso   1.00
C784   C     0.04260   0.01940   0.72231   0.00000  Uiso   1.00
C785   C     0.33202   0.29056   0.75141   0.00000  Uiso   1.00
C786   C     0.00146   0.04280   0.74707   0.00000  Uiso   1.00
C787   C     0.18129   0.18800   0.78257   0.00000  Uiso   1.00
C788   C     0.15199   0.14513   0.71761   0.00000  Uiso   1.00
C789   C     0.13174   0.18817   0.78244   0.00000  Uiso   1.00
C790   C     0.20158   0.14515   0.71757   0.00000  Uiso   1.00
C791   C     0.30573   0.16717   0.83656   0.00000  Uiso   1.00
C792   C     0.02763   0.16778   0.66357   0.00000  Uiso   1.00
C793   C     0.29089   0.17054   0.88665   0.00000  Uiso   1.00
C794   C     0.04338   0.17713   0.61476   0.00000  Uiso   1.00
C795   C     0.31115   0.16823   0.95827   0.00000  Uiso   1.00
C796   C     0.03098   0.21437   0.55071   0.00000  Uiso   1.00
C797   C     0.32534   0.16508   0.91095   0.00000  Uiso   1.00
C798   C     0.01252   0.19859   0.59436   0.00000  Uiso   1.00
C799   C     0.24247   0.18074   0.91037   0.00000  Uiso   1.00
C800   C     0.09246   0.17120   0.59070   0.00000  Uiso   1.00
C801   C     0.22871   0.18812   0.95765   0.00000  Uiso   1.00
C802   C     0.11299   0.19190   0.54991   0.00000  Uiso   1.00
C803   C     0.26278   0.17870   0.98183   0.00000  Uiso   1.00
C804   C     0.08108   0.21105   0.52823   0.00000  Uiso   1.00
C805   C     0.18077   0.20122   0.98198   0.00000  Uiso   1.00
C806   C     0.16413   0.19268   0.52925   0.00000  Uiso   1.00
Cu807  Cu    0.04689   0.16667   0.75000   0.00000  Uiso   1.00
Cu808  Cu    0.28645   0.16666   0.75000   0.00000  Uiso   1.00
H809   H     0.27556   0.17549   0.54725   0.00000  Uiso   1.00
H810   H     0.07570   0.24628   0.97100   0.00000  Uiso   1.00
H811   H     0.30798   0.20429   0.61268   0.00000  Uiso   1.00
H812   H     0.02969   0.15734   0.89350   0.00000  Uiso   1.00
H813   H     0.00464   0.16232   0.97645   0.00000  Uiso   1.00
H814   H     0.00651   0.23059   0.53526   0.00000  Uiso   1.00
H815   H     0.26140   0.04157   0.79173   0.00000  Uiso   1.00
H816   H     0.07182   0.29171   0.70614   0.00000  Uiso   1.00
H817   H     0.10500   0.20548   0.80840   0.00000  Uiso   1.00
H818   H     0.22832   0.12787   0.69158   0.00000  Uiso   1.00
N819   N     0.11736   0.16668   0.74999   0.00000  Uiso   1.00
N820   N     0.21597   0.16666   0.75001   0.00000  Uiso   1.00
O821   O     0.03958   0.10655   0.75000   0.00000  Uiso   1.00
O822   O     0.29375   0.22678   0.75000   0.00000  Uiso   1.00
O823   O     0.29372   0.10654   0.75000   0.00000  Uiso   1.00
O824   O     0.03961   0.22679   0.74999   0.00000  Uiso   1.00
O825   O     0.01852   0.16668   0.81491   0.00000  Uiso   1.00
O826   O     0.31481   0.16666   0.68508   0.00000  Uiso   1.00
O827   O     0.27267   0.16667   0.81492   0.00000  Uiso   1.00
O828   O     0.06067   0.16667   0.68508   0.00000  Uiso   1.00
H829   H     0.11413   0.15009   0.60403   0.00000  Uiso   1.00
H830   H     0.21525   0.18095   0.89210   0.00000  Uiso   1.00
C831   C     0.19045   0.20008   0.60404   0.00000  Uiso   1.00
C832   C     0.17007   0.24394   0.61463   0.00000  Uiso   1.00
H833   H     0.19436   0.26612   0.59179   0.00000  Uiso   1.00
H834   H     0.16793   0.25218   0.65044   0.00000  Uiso   1.00
H835   H     0.13283   0.24671   0.61056   0.00000  Uiso   1.00
H836   H     0.16709   0.17818   0.62732   0.00000  Uiso   1.00
H837   H     0.22505   0.19890   0.61373   0.00000  Uiso   1.00
C838   C     0.16955   0.25607   0.92467   0.00000  Uiso   1.00
C839   C     0.20249   0.28718   0.93891   0.00000  Uiso   1.00
H840   H     0.18414   0.30006   0.97332   0.00000  Uiso   1.00
H841   H     0.23761   0.27243   0.93923   0.00000  Uiso   1.00
H842   H     0.21042   0.31308   0.91473   0.00000  Uiso   1.00
H843   H     0.18897   0.24162   0.89172   0.00000  Uiso   1.00
H844   H     0.13913   0.27384   0.91747   0.00000  Uiso   1.00
C845   C     0.24433   0.29555   0.80562   0.00000  Uiso   1.00
C846   C     0.20451   0.29393   0.78132   0.00000  Uiso   1.00
H847   H     0.21639   0.27432   0.75014   0.00000  Uiso   1.00
H848   H     0.17082   0.28094   0.80440   0.00000  Uiso   1.00
H849   H     0.19584   0.32541   0.77171   0.00000  Uiso   1.00
H850   H     0.25080   0.26458   0.81788   0.00000  Uiso   1.00
H851   H     0.23082   0.31502   0.83670   0.00000  Uiso   1.00
C852   C     0.08787   0.03794   0.69051   0.00000  Uiso   1.00
C853   C     0.13019   0.03748   0.71177   0.00000  Uiso   1.00
H854   H     0.16295   0.05098   0.68780   0.00000  Uiso   1.00
H855   H     0.12053   0.05580   0.74396   0.00000  Uiso   1.00
H856   H     0.13932   0.00538   0.71901   0.00000  Uiso   1.00
H857   H     0.09871   0.01976   0.65817   0.00000  Uiso   1.00
H858   H     0.08125   0.06974   0.68056   0.00000  Uiso   1.00
H859   H     0.19174   0.20498   0.80877   0.00000  Uiso   1.00
H860   H     0.14145   0.12789   0.69163   0.00000  Uiso   1.00
C861   C     0.33419   0.08744   0.74805   0.00000  Uiso   1.00
C862   C     0.66596   0.24592   0.75133   0.00000  Uiso   1.00
C863   C     0.53313   0.18851   0.55378   0.00000  Uiso   1.00
C864   C     0.48309   0.22521   0.96244   0.00000  Uiso   1.00
C865   C     0.58182   0.18054   0.52923   0.00000  Uiso   1.00
C866   C     0.43321   0.22861   0.98559   0.00000  Uiso   1.00
C867   C     0.62603   0.02331   0.77269   0.00000  Uiso   1.00
C868   C     0.37400   0.31003   0.72538   0.00000  Uiso   1.00
C869   C     0.62390   0.31398   0.77538   0.00000  Uiso   1.00
C870   C     0.37593   0.01940   0.72231   0.00000  Uiso   1.00
C871   C     0.66535   0.29056   0.75141   0.00000  Uiso   1.00
C872   C     0.33479   0.04280   0.74707   0.00000  Uiso   1.00
C873   C     0.51462   0.18800   0.78257   0.00000  Uiso   1.00
C874   C     0.48532   0.14513   0.71761   0.00000  Uiso   1.00
C875   C     0.46508   0.18817   0.78244   0.00000  Uiso   1.00
C876   C     0.53491   0.14515   0.71757   0.00000  Uiso   1.00
C877   C     0.63906   0.16717   0.83656   0.00000  Uiso   1.00
C878   C     0.36097   0.16778   0.66357   0.00000  Uiso   1.00
C879   C     0.62422   0.17054   0.88665   0.00000  Uiso   1.00
C880   C     0.37672   0.17713   0.61476   0.00000  Uiso   1.00
C881   C     0.64448   0.16823   0.95827   0.00000  Uiso   1.00
C882   C     0.36432   0.21437   0.55071   0.00000  Uiso   1.00
C883   C     0.65868   0.16508   0.91095   0.00000  Uiso   1.00
C884   C     0.34585   0.19859   0.59436   0.00000  Uiso   1.00
C885   C     0.57580   0.18074   0.91037   0.00000  Uiso   1.00
C886   C     0.42579   0.17120   0.59070   0.00000  Uiso   1.00
C887   C     0.56204   0.18812   0.95765   0.00000  Uiso   1.00
C888   C     0.44632   0.19190   0.54991   0.00000  Uiso   1.00
C889   C     0.59612   0.17870   0.98183   0.00000  Uiso   1.00
C890   C     0.41442   0.21105   0.52823   0.00000  Uiso   1.00
C891   C     0.51410   0.20122   0.98198   0.00000  Uiso   1.00
C892   C     0.49747   0.19268   0.52925   0.00000  Uiso   1.00
Cu893  Cu    0.38022   0.16667   0.75000   0.00000  Uiso   1.00
Cu894  Cu    0.61978   0.16666   0.75000   0.00000  Uiso   1.00
H895   H     0.60890   0.17549   0.54725   0.00000  Uiso   1.00
H896   H     0.40904   0.24628   0.97100   0.00000  Uiso   1.00
H897   H     0.64131   0.20429   0.61268   0.00000  Uiso   1.00
H898   H     0.36302   0.15734   0.89350   0.00000  Uiso   1.00
H899   H     0.33798   0.16232   0.97645   0.00000  Uiso   1.00
H900   H     0.33984   0.23059   0.53526   0.00000  Uiso   1.00
H901   H     0.59473   0.04157   0.79173   0.00000  Uiso   1.00
H902   H     0.40516   0.29171   0.70614   0.00000  Uiso   1.00
H903   H     0.43833   0.20548   0.80840   0.00000  Uiso   1.00
H904   H     0.56166   0.12787   0.69158   0.00000  Uiso   1.00
N905   N     0.45069   0.16668   0.74999   0.00000  Uiso   1.00
N906   N     0.54931   0.16666   0.75001   0.00000  Uiso   1.00
O907   O     0.37291   0.10655   0.75000   0.00000  Uiso   1.00
O908   O     0.62709   0.22678   0.75000   0.00000  Uiso   1.00
O909   O     0.62706   0.10654   0.75000   0.00000  Uiso   1.00
O910   O     0.37294   0.22679   0.74999   0.00000  Uiso   1.00
O911   O     0.35186   0.16668   0.81491   0.00000  Uiso   1.00
O912   O     0.64814   0.16666   0.68508   0.00000  Uiso   1.00
O913   O     0.60600   0.16667   0.81492   0.00000  Uiso   1.00
O914   O     0.39400   0.16667   0.68508   0.00000  Uiso   1.00
H915   H     0.44747   0.15009   0.60403   0.00000  Uiso   1.00
H916   H     0.54858   0.18095   0.89210   0.00000  Uiso   1.00
C917   C     0.52378   0.20008   0.60404   0.00000  Uiso   1.00
C918   C     0.50341   0.24394   0.61463   0.00000  Uiso   1.00
H919   H     0.52769   0.26612   0.59179   0.00000  Uiso   1.00
H920   H     0.50127   0.25218   0.65044   0.00000  Uiso   1.00
H921   H     0.46616   0.24671   0.61056   0.00000  Uiso   1.00
H922   H     0.50042   0.17818   0.62732   0.00000  Uiso   1.00
H923   H     0.55838   0.19890   0.61373   0.00000  Uiso   1.00
C924   C     0.50288   0.25607   0.92467   0.00000  Uiso   1.00
C925   C     0.53582   0.28718   0.93891   0.00000  Uiso   1.00
H926   H     0.51747   0.30006   0.97332   0.00000  Uiso   1.00
H927   H     0.57095   0.27243   0.93923   0.00000  Uiso   1.00
H928   H     0.54375   0.31308   0.91473   0.00000  Uiso   1.00
H929   H     0.52231   0.24162   0.89172   0.00000  Uiso   1.00
H930   H     0.47246   0.27384   0.91747   0.00000  Uiso   1.00
C931   C     0.57767   0.29555   0.80562   0.00000  Uiso   1.00
C932   C     0.53784   0.29393   0.78132   0.00000  Uiso   1.00
H933   H     0.54973   0.27432   0.75014   0.00000  Uiso   1.00
H934   H     0.50416   0.28094   0.80440   0.00000  Uiso   1.00
H935   H     0.52917   0.32541   0.77171   0.00000  Uiso   1.00
H936   H     0.58413   0.26458   0.81788   0.00000  Uiso   1.00
H937   H     0.56415   0.31502   0.83670   0.00000  Uiso   1.00
C938   C     0.42121   0.03794   0.69051   0.00000  Uiso   1.00
C939   C     0.46352   0.03748   0.71177   0.00000  Uiso   1.00
H940   H     0.49628   0.05098   0.68780   0.00000  Uiso   1.00
H941   H     0.45387   0.05580   0.74396   0.00000  Uiso   1.00
H942   H     0.47266   0.00538   0.71901   0.00000  Uiso   1.00
H943   H     0.43205   0.01976   0.65817   0.00000  Uiso   1.00
H944   H     0.41458   0.06974   0.68056   0.00000  Uiso   1.00
H945   H     0.52508   0.20498   0.80877   0.00000  Uiso   1.00
H946   H     0.47479   0.12789   0.69163   0.00000  Uiso   1.00
C947   C     0.66753   0.08744   0.74805   0.00000  Uiso   1.00
C948   C     0.99929   0.24592   0.75133   0.00000  Uiso   1.00
C949   C     0.86646   0.18851   0.55378   0.00000  Uiso   1.00
C950   C     0.81642   0.22521   0.96244   0.00000  Uiso   1.00
C951   C     0.91515   0.18054   0.52923   0.00000  Uiso   1.00
C952   C     0.76654   0.22861   0.98559   0.00000  Uiso   1.00
C953   C     0.95936   0.02331   0.77269   0.00000  Uiso   1.00
C954   C     0.70734   0.31003   0.72538   0.00000  Uiso   1.00
C955   C     0.95723   0.31398   0.77538   0.00000  Uiso   1.00
C956   C     0.70926   0.01940   0.72231   0.00000  Uiso   1.00
C957   C     0.99868   0.29056   0.75141   0.00000  Uiso   1.00
C958   C     0.66812   0.04280   0.74707   0.00000  Uiso   1.00
C959   C     0.84796   0.18800   0.78257   0.00000  Uiso   1.00
C960   C     0.81866   0.14513   0.71761   0.00000  Uiso   1.00
C961   C     0.79841   0.18817   0.78244   0.00000  Uiso   1.00
C962   C     0.86825   0.14515   0.71757   0.00000  Uiso   1.00
C963   C     0.97240   0.16717   0.83656   0.00000  Uiso   1.00
C964   C     0.69430   0.16778   0.66357   0.00000  Uiso   1.00
C965   C     0.95756   0.17054   0.88665   0.00000  Uiso   1.00
C966   C     0.71005   0.17713   0.61476   0.00000  Uiso   1.00
C967   C     0.97782   0.16823   0.95827   0.00000  Uiso   1.00
C968   C     0.69765   0.21437   0.55071   0.00000  Uiso   1.00
C969   C     0.99201   0.16508   0.91095   0.00000  Uiso   1.00
C970   C     0.67918   0.19859   0.59436   0.00000  Uiso   1.00
C971   C     0.90913   0.18074   0.91037   0.00000  Uiso   1.00
C972   C     0.75913   0.17120   0.59070   0.00000  Uiso   1.00
C973   C     0.89537   0.18812   0.95765   0.00000  Uiso   1.00
C974   C     0.77966   0.19190   0.54991   0.00000  Uiso   1.00
C975   C     0.92945   0.17870   0.98183   0.00000  Uiso   1.00
C976   C     0.74775   0.21105   0.52823   0.00000  Uiso   1.00
C977   C     0.84743   0.20122   0.98198   0.00000  Uiso   1.00
C978   C     0.83080   0.19268   0.52925   0.00000  Uiso   1.00
Cu979  Cu    0.71355   0.16667   0.75000   0.00000  Uiso   1.00
Cu980  Cu    0.95311   0.16666   0.75000   0.00000  Uiso   1.00
H981   H     0.94223   0.17549   0.54725   0.00000  Uiso   1.00
H982   H     0.74237   0.24628   0.97100   0.00000  Uiso   1.00
H983   H     0.97465   0.20429   0.61268   0.00000  Uiso   1.00
H984   H     0.69636   0.15734   0.89350   0.00000  Uiso   1.00
H985   H     0.67131   0.16232   0.97645   0.00000  Uiso   1.00
H986   H     0.67318   0.23059   0.53526   0.00000  Uiso   1.00
H987   H     0.92807   0.04157   0.79173   0.00000  Uiso   1.00
H988   H     0.73849   0.29171   0.70614   0.00000  Uiso   1.00
H989   H     0.77166   0.20548   0.80840   0.00000  Uiso   1.00
H990   H     0.89499   0.12787   0.69158   0.00000  Uiso   1.00
N991   N     0.78403   0.16668   0.74999   0.00000  Uiso   1.00
N992   N     0.88264   0.16666   0.75001   0.00000  Uiso   1.00
O993   O     0.70625   0.10655   0.75000   0.00000  Uiso   1.00
O994   O     0.96042   0.22678   0.75000   0.00000  Uiso   1.00
O995   O     0.96039   0.10654   0.75000   0.00000  Uiso   1.00
O996   O     0.70628   0.22679   0.74999   0.00000  Uiso   1.00
O997   O     0.68519   0.16668   0.81491   0.00000  Uiso   1.00
O998   O     0.98148   0.16666   0.68508   0.00000  Uiso   1.00
O999   O     0.93933   0.16667   0.81492   0.00000  Uiso   1.00
O1000  O     0.72733   0.16667   0.68508   0.00000  Uiso   1.00
H1001  H     0.78080   0.15009   0.60403   0.00000  Uiso   1.00
H1002  H     0.88191   0.18095   0.89210   0.00000  Uiso   1.00
C1003  C     0.85711   0.20008   0.60404   0.00000  Uiso   1.00
C1004  C     0.83674   0.24394   0.61463   0.00000  Uiso   1.00
H1005  H     0.86102   0.26612   0.59179   0.00000  Uiso   1.00
H1006  H     0.83460   0.25218   0.65044   0.00000  Uiso   1.00
H1007  H     0.79949   0.24671   0.61056   0.00000  Uiso   1.00
H1008  H     0.83375   0.17818   0.62732   0.00000  Uiso   1.00
H1009  H     0.89172   0.19890   0.61373   0.00000  Uiso   1.00
C1010  C     0.83621   0.25607   0.92467   0.00000  Uiso   1.00
C1011  C     0.86916   0.28718   0.93891   0.00000  Uiso   1.00
H1012  H     0.85080   0.30006   0.97332   0.00000  Uiso   1.00
H1013  H     0.90428   0.27243   0.93923   0.00000  Uiso   1.00
H1014  H     0.87709   0.31308   0.91473   0.00000  Uiso   1.00
H1015  H     0.85564   0.24162   0.89172   0.00000  Uiso   1.00
H1016  H     0.80580   0.27384   0.91747   0.00000  Uiso   1.00
C1017  C     0.91100   0.29555   0.80562   0.00000  Uiso   1.00
C1018  C     0.87118   0.29393   0.78132   0.00000  Uiso   1.00
H1019  H     0.88306   0.27432   0.75014   0.00000  Uiso   1.00
H1020  H     0.83749   0.28094   0.80440   0.00000  Uiso   1.00
H1021  H     0.86251   0.32541   0.77171   0.00000  Uiso   1.00
H1022  H     0.91746   0.26458   0.81788   0.00000  Uiso   1.00
H1023  H     0.89749   0.31502   0.83670   0.00000  Uiso   1.00
C1024  C     0.75454   0.03794   0.69051   0.00000  Uiso   1.00
C1025  C     0.79686   0.03748   0.71177   0.00000  Uiso   1.00
H1026  H     0.82961   0.05098   0.68780   0.00000  Uiso   1.00
H1027  H     0.78720   0.05580   0.74396   0.00000  Uiso   1.00
H1028  H     0.80599   0.00538   0.71901   0.00000  Uiso   1.00
H1029  H     0.76538   0.01976   0.65817   0.00000  Uiso   1.00
H1030  H     0.74791   0.06974   0.68056   0.00000  Uiso   1.00
H1031  H     0.85841   0.20498   0.80877   0.00000  Uiso   1.00
H1032  H     0.80812   0.12789   0.69163   0.00000  Uiso   1.00
C1033  C     0.00086   0.42077   0.74805   0.00000  Uiso   1.00
C1034  C     0.33263   0.57926   0.75133   0.00000  Uiso   1.00
C1035  C     0.19979   0.52184   0.55378   0.00000  Uiso   1.00
C1036  C     0.14976   0.55855   0.96244   0.00000  Uiso   1.00
C1037  C     0.24849   0.51387   0.52923   0.00000  Uiso   1.00
C1038  C     0.09988   0.56195   0.98559   0.00000  Uiso   1.00
C1039  C     0.29269   0.35664   0.77269   0.00000  Uiso   1.00
C1040  C     0.04067   0.64336   0.72538   0.00000  Uiso   1.00
C1041  C     0.29056   0.64731   0.77538   0.00000  Uiso   1.00
C1042  C     0.04260   0.35274   0.72231   0.00000  Uiso   1.00
C1043  C     0.33202   0.62389   0.75141   0.00000  Uiso   1.00
C1044  C     0.00146   0.37614   0.74707   0.00000  Uiso   1.00
C1045  C     0.18129   0.52133   0.78257   0.00000  Uiso   1.00
C1046  C     0.15199   0.47846   0.71761   0.00000  Uiso   1.00
C1047  C     0.13174   0.52150   0.78244   0.00000  Uiso   1.00
C1048  C     0.20158   0.47849   0.71757   0.00000  Uiso   1.00
C1049  C     0.30573   0.50051   0.83656   0.00000  Uiso   1.00
C1050  C     0.02763   0.50112   0.66357   0.00000  Uiso   1.00
C1051  C     0.29089   0.50387   0.88665   0.00000  Uiso   1.00
C1052  C     0.04338   0.51046   0.61476   0.00000  Uiso   1.00
C1053  C     0.31115   0.50156   0.95827   0.00000  Uiso   1.00
C1054  C     0.03098   0.54770   0.55071   0.00000  Uiso   1.00
C1055  C     0.32534   0.49841   0.91095   0.00000  Uiso   1.00
C1056  C     0.01252   0.53192   0.59436   0.00000  Uiso   1.00
C1057  C     0.24247   0.51407   0.91037   0.00000  Uiso   1.00
C1058  C     0.09246   0.50454   0.59070   0.00000  Uiso   1.00
C1059  C     0.22871   0.52146   0.95765   0.00000  Uiso   1.00
C1060  C     0.11299   0.52523   0.54991   0.00000  Uiso   1.00
C1061  C     0.26278   0.51203   0.98183   0.00000  Uiso   1.00
C1062  C     0.08108   0.54438   0.52823   0.00000  Uiso   1.00
C1063  C     0.18077   0.53455   0.98198   0.00000  Uiso   1.00
C1064  C     0.16413   0.52601   0.52925   0.00000  Uiso   1.00
Cu1065 Cu    0.04689   0.50001   0.75000   0.00000  Uiso   1.00
Cu1066 Cu    0.28645   0.49999   0.75000   0.00000  Uiso   1.00
H1067  H     0.27556   0.50882   0.54725   0.00000  Uiso   1.00
H1068  H     0.07570   0.57961   0.97100   0.00000  Uiso   1.00
H1069  H     0.30798   0.53763   0.61268   0.00000  Uiso   1.00
H1070  H     0.02969   0.49068   0.89350   0.00000  Uiso   1.00
H1071  H     0.00464   0.49566   0.97645   0.00000  Uiso   1.00
H1072  H     0.00651   0.56393   0.53526   0.00000  Uiso   1.00
H1073  H     0.26140   0.37490   0.79173   0.00000  Uiso   1.00
H1074  H     0.07182   0.62504   0.70614   0.00000  Uiso   1.00
H1075  H     0.10500   0.53881   0.80840   0.00000  Uiso   1.00
H1076  H     0.22832   0.46121   0.69158   0.00000  Uiso   1.00
N1077  N     0.11736   0.50001   0.74999   0.00000  Uiso   1.00
N1078  N     0.21597   0.49999   0.75001   0.00000  Uiso   1.00
O1079  O     0.03958   0.43989   0.75000   0.00000  Uiso   1.00
O1080  O     0.29375   0.56011   0.75000   0.00000  Uiso   1.00
O1081  O     0.29372   0.43988   0.75000   0.00000  Uiso   1.00
O1082  O     0.03961   0.56012   0.74999   0.00000  Uiso   1.00
O1083  O     0.01852   0.50001   0.81491   0.00000  Uiso   1.00
O1084  O     0.31481   0.49999   0.68508   0.00000  Uiso   1.00
O1085  O     0.27267   0.50000   0.81492   0.00000  Uiso   1.00
O1086  O     0.06067   0.50000   0.68508   0.00000  Uiso   1.00
H1087  H     0.11413   0.48342   0.60403   0.00000  Uiso   1.00
H1088  H     0.21525   0.51429   0.89210   0.00000  Uiso   1.00
C1089  C     0.19045   0.53342   0.60404   0.00000  Uiso   1.00
C1090  C     0.17007   0.57728   0.61463   0.00000  Uiso   1.00
H1091  H     0.19436   0.59945   0.59179   0.00000  Uiso   1.00
H1092  H     0.16793   0.58551   0.65044   0.00000  Uiso   1.00
H1093  H     0.13283   0.58005   0.61056   0.00000  Uiso   1.00
H1094  H     0.16709   0.51151   0.62732   0.00000  Uiso   1.00
H1095  H     0.22505   0.53223   0.61373   0.00000  Uiso   1.00
C1096  C     0.16955   0.58940   0.92467   0.00000  Uiso   1.00
C1097  C     0.20249   0.62052   0.93891   0.00000  Uiso   1.00
H1098  H     0.18414   0.63339   0.97332   0.00000  Uiso   1.00
H1099  H     0.23761   0.60576   0.93923   0.00000  Uiso   1.00
H1100  H     0.21042   0.64641   0.91473   0.00000  Uiso   1.00
H1101  H     0.18897   0.57496   0.89172   0.00000  Uiso   1.00
H1102  H     0.13913   0.60717   0.91747   0.00000  Uiso   1.00
C1103  C     0.24433   0.62889   0.80562   0.00000  Uiso   1.00
C1104  C     0.20451   0.62727   0.78132   0.00000  Uiso   1.00
H1105  H     0.21639   0.60766   0.75014   0.00000  Uiso   1.00
H1106  H     0.17082   0.61427   0.80440   0.00000  Uiso   1.00
H1107  H     0.19584   0.65875   0.77171   0.00000  Uiso   1.00
H1108  H     0.25080   0.59791   0.81788   0.00000  Uiso   1.00
H1109  H     0.23082   0.64835   0.83670   0.00000  Uiso   1.00
C1110  C     0.08787   0.37127   0.69051   0.00000  Uiso   1.00
C1111  C     0.13019   0.37081   0.71177   0.00000  Uiso   1.00
H1112  H     0.16295   0.38432   0.68780   0.00000  Uiso   1.00
H1113  H     0.12053   0.38913   0.74396   0.00000  Uiso   1.00
H1114  H     0.13932   0.33872   0.71901   0.00000  Uiso   1.00
H1115  H     0.09871   0.35309   0.65817   0.00000  Uiso   1.00
H1116  H     0.08125   0.40307   0.68056   0.00000  Uiso   1.00
H1117  H     0.19174   0.53832   0.80877   0.00000  Uiso   1.00
H1118  H     0.14145   0.46123   0.69163   0.00000  Uiso   1.00
C1119  C     0.33419   0.42077   0.74805   0.00000  Uiso   1.00
C1120  C     0.66596   0.57926   0.75133   0.00000  Uiso   1.00
C1121  C     0.53313   0.52184   0.55378   0.00000  Uiso   1.00
C1122  C     0.48309   0.55855   0.96244   0.00000  Uiso   1.00
C1123  C     0.58182   0.51387   0.52923   0.00000  Uiso   1.00
C1124  C     0.43321   0.56195   0.98559   0.00000  Uiso   1.00
C1125  C     0.62603   0.35664   0.77269   0.00000  Uiso   1.00
C1126  C     0.37400   0.64336   0.72538   0.00000  Uiso   1.00
C1127  C     0.62390   0.64731   0.77538   0.00000  Uiso   1.00
C1128  C     0.37593   0.35274   0.72231   0.00000  Uiso   1.00
C1129  C     0.66535   0.62389   0.75141   0.00000  Uiso   1.00
C1130  C     0.33479   0.37614   0.74707   0.00000  Uiso   1.00
C1131  C     0.51462   0.52133   0.78257   0.00000  Uiso   1.00
C1132  C     0.48532   0.47846   0.71761   0.00000  Uiso   1.00
C1133  C     0.46508   0.52150   0.78244   0.00000  Uiso   1.00
C1134  C     0.53491   0.47849   0.71757   0.00000  Uiso   1.00
C1135  C     0.63906   0.50051   0.83656   0.00000  Uiso   1.00
C1136  C     0.36097   0.50112   0.66357   0.00000  Uiso   1.00
C1137  C     0.62422   0.50387   0.88665   0.00000  Uiso   1.00
C1138  C     0.37672   0.51046   0.61476   0.00000  Uiso   1.00
C1139  C     0.64448   0.50156   0.95827   0.00000  Uiso   1.00
C1140  C     0.36432   0.54770   0.55071   0.00000  Uiso   1.00
C1141  C     0.65868   0.49841   0.91095   0.00000  Uiso   1.00
C1142  C     0.34585   0.53192   0.59436   0.00000  Uiso   1.00
C1143  C     0.57580   0.51407   0.91037   0.00000  Uiso   1.00
C1144  C     0.42579   0.50454   0.59070   0.00000  Uiso   1.00
C1145  C     0.56204   0.52146   0.95765   0.00000  Uiso   1.00
C1146  C     0.44632   0.52523   0.54991   0.00000  Uiso   1.00
C1147  C     0.59612   0.51203   0.98183   0.00000  Uiso   1.00
C1148  C     0.41442   0.54438   0.52823   0.00000  Uiso   1.00
C1149  C     0.51410   0.53455   0.98198   0.00000  Uiso   1.00
C1150  C     0.49747   0.52601   0.52925   0.00000  Uiso   1.00
Cu1151 Cu    0.38022   0.50001   0.75000   0.00000  Uiso   1.00
Cu1152 Cu    0.61978   0.49999   0.75000   0.00000  Uiso   1.00
H1153  H     0.60890   0.50882   0.54725   0.00000  Uiso   1.00
H1154  H     0.40904   0.57961   0.97100   0.00000  Uiso   1.00
H1155  H     0.64131   0.53763   0.61268   0.00000  Uiso   1.00
H1156  H     0.36302   0.49068   0.89350   0.00000  Uiso   1.00
H1157  H     0.33798   0.49566   0.97645   0.00000  Uiso   1.00
H1158  H     0.33984   0.56393   0.53526   0.00000  Uiso   1.00
H1159  H     0.59473   0.37490   0.79173   0.00000  Uiso   1.00
H1160  H     0.40516   0.62504   0.70614   0.00000  Uiso   1.00
H1161  H     0.43833   0.53881   0.80840   0.00000  Uiso   1.00
H1162  H     0.56166   0.46121   0.69158   0.00000  Uiso   1.00
N1163  N     0.45069   0.50001   0.74999   0.00000  Uiso   1.00
N1164  N     0.54931   0.49999   0.75001   0.00000  Uiso   1.00
O1165  O     0.37291   0.43989   0.75000   0.00000  Uiso   1.00
O1166  O     0.62709   0.56011   0.75000   0.00000  Uiso   1.00
O1167  O     0.62706   0.43988   0.75000   0.00000  Uiso   1.00
O1168  O     0.37294   0.56012   0.74999   0.00000  Uiso   1.00
O1169  O     0.35186   0.50001   0.81491   0.00000  Uiso   1.00
O1170  O     0.64814   0.49999   0.68508   0.00000  Uiso   1.00
O1171  O     0.60600   0.50000   0.81492   0.00000  Uiso   1.00
O1172  O     0.39400   0.50000   0.68508   0.00000  Uiso   1.00
H1173  H     0.44747   0.48342   0.60403   0.00000  Uiso   1.00
H1174  H     0.54858   0.51429   0.89210   0.00000  Uiso   1.00
C1175  C     0.52378   0.53342   0.60404   0.00000  Uiso   1.00
C1176  C     0.50341   0.57728   0.61463   0.00000  Uiso   1.00
H1177  H     0.52769   0.59945   0.59179   0.00000  Uiso   1.00
H1178  H     0.50127   0.58551   0.65044   0.00000  Uiso   1.00
H1179  H     0.46616   0.58005   0.61056   0.00000  Uiso   1.00
H1180  H     0.50042   0.51151   0.62732   0.00000  Uiso   1.00
H1181  H     0.55838   0.53223   0.61373   0.00000  Uiso   1.00
C1182  C     0.50288   0.58940   0.92467   0.00000  Uiso   1.00
C1183  C     0.53582   0.62052   0.93891   0.00000  Uiso   1.00
H1184  H     0.51747   0.63339   0.97332   0.00000  Uiso   1.00
H1185  H     0.57095   0.60576   0.93923   0.00000  Uiso   1.00
H1186  H     0.54375   0.64641   0.91473   0.00000  Uiso   1.00
H1187  H     0.52231   0.57496   0.89172   0.00000  Uiso   1.00
H1188  H     0.47246   0.60717   0.91747   0.00000  Uiso   1.00
C1189  C     0.57767   0.62889   0.80562   0.00000  Uiso   1.00
C1190  C     0.53784   0.62727   0.78132   0.00000  Uiso   1.00
H1191  H     0.54973   0.60766   0.75014   0.00000  Uiso   1.00
H1192  H     0.50416   0.61427   0.80440   0.00000  Uiso   1.00
H1193  H     0.52917   0.65875   0.77171   0.00000  Uiso   1.00
H1194  H     0.58413   0.59791   0.81788   0.00000  Uiso   1.00
H1195  H     0.56415   0.64835   0.83670   0.00000  Uiso   1.00
C1196  C     0.42121   0.37127   0.69051   0.00000  Uiso   1.00
C1197  C     0.46352   0.37081   0.71177   0.00000  Uiso   1.00
H1198  H     0.49628   0.38432   0.68780   0.00000  Uiso   1.00
H1199  H     0.45387   0.38913   0.74396   0.00000  Uiso   1.00
H1200  H     0.47266   0.33872   0.71901   0.00000  Uiso   1.00
H1201  H     0.43205   0.35309   0.65817   0.00000  Uiso   1.00
H1202  H     0.41458   0.40307   0.68056   0.00000  Uiso   1.00
H1203  H     0.52508   0.53832   0.80877   0.00000  Uiso   1.00
H1204  H     0.47479   0.46123   0.69163   0.00000  Uiso   1.00
C1205  C     0.66753   0.42077   0.74805   0.00000  Uiso   1.00
C1206  C     0.99929   0.57926   0.75133   0.00000  Uiso   1.00
C1207  C     0.86646   0.52184   0.55378   0.00000  Uiso   1.00
C1208  C     0.81642   0.55855   0.96244   0.00000  Uiso   1.00
C1209  C     0.91515   0.51387   0.52923   0.00000  Uiso   1.00
C1210  C     0.76654   0.56195   0.98559   0.00000  Uiso   1.00
C1211  C     0.95936   0.35664   0.77269   0.00000  Uiso   1.00
C1212  C     0.70734   0.64336   0.72538   0.00000  Uiso   1.00
C1213  C     0.95723   0.64731   0.77538   0.00000  Uiso   1.00
C1214  C     0.70926   0.35274   0.72231   0.00000  Uiso   1.00
C1215  C     0.99868   0.62389   0.75141   0.00000  Uiso   1.00
C1216  C     0.66812   0.37614   0.74707   0.00000  Uiso   1.00
C1217  C     0.84796   0.52133   0.78257   0.00000  Uiso   1.00
C1218  C     0.81866   0.47846   0.71761   0.00000  Uiso   1.00
C1219  C     0.79841   0.52150   0.78244   0.00000  Uiso   1.00
C1220  C     0.86825   0.47849   0.71757   0.00000  Uiso   1.00
C1221  C     0.97240   0.50051   0.83656   0.00000  Uiso   1.00
C1222  C     0.69430   0.50112   0.66357   0.00000  Uiso   1.00
C1223  C     0.95756   0.50387   0.88665   0.00000  Uiso   1.00
C1224  C     0.71005   0.51046   0.61476   0.00000  Uiso   1.00
C1225  C     0.97782   0.50156   0.95827   0.00000  Uiso   1.00
C1226  C     0.69765   0.54770   0.55071   0.00000  Uiso   1.00
C1227  C     0.99201   0.49841   0.91095   0.00000  Uiso   1.00
C1228  C     0.67918   0.53192   0.59436   0.00000  Uiso   1.00
C1229  C     0.90913   0.51407   0.91037   0.00000  Uiso   1.00
C1230  C     0.75913   0.50454   0.59070   0.00000  Uiso   1.00
C1231  C     0.89537   0.52146   0.95765   0.00000  Uiso   1.00
C1232  C     0.77966   0.52523   0.54991   0.00000  Uiso   1.00
C1233  C     0.92945   0.51203   0.98183   0.00000  Uiso   1.00
C1234  C     0.74775   0.54438   0.52823   0.00000  Uiso   1.00
C1235  C     0.84743   0.53455   0.98198   0.00000  Uiso   1.00
C1236  C     0.83080   0.52601   0.52925   0.00000  Uiso   1.00
Cu1237 Cu    0.71355   0.50001   0.75000   0.00000  Uiso   1.00
Cu1238 Cu    0.95311   0.49999   0.75000   0.00000  Uiso   1.00
H1239  H     0.94223   0.50882   0.54725   0.00000  Uiso   1.00
H1240  H     0.74237   0.57961   0.97100   0.00000  Uiso   1.00
H1241  H     0.97465   0.53763   0.61268   0.00000  Uiso   1.00
H1242  H     0.69636   0.49068   0.89350   0.00000  Uiso   1.00
H1243  H     0.67131   0.49566   0.97645   0.00000  Uiso   1.00
H1244  H     0.67318   0.56393   0.53526   0.00000  Uiso   1.00
H1245  H     0.92807   0.37490   0.79173   0.00000  Uiso   1.00
H1246  H     0.73849   0.62504   0.70614   0.00000  Uiso   1.00
H1247  H     0.77166   0.53881   0.80840   0.00000  Uiso   1.00
H1248  H     0.89499   0.46121   0.69158   0.00000  Uiso   1.00
N1249  N     0.78403   0.50001   0.74999   0.00000  Uiso   1.00
N1250  N     0.88264   0.49999   0.75001   0.00000  Uiso   1.00
O1251  O     0.70625   0.43989   0.75000   0.00000  Uiso   1.00
O1252  O     0.96042   0.56011   0.75000   0.00000  Uiso   1.00
O1253  O     0.96039   0.43988   0.75000   0.00000  Uiso   1.00
O1254  O     0.70628   0.56012   0.74999   0.00000  Uiso   1.00
O1255  O     0.68519   0.50001   0.81491   0.00000  Uiso   1.00
O1256  O     0.98148   0.49999   0.68508   0.00000  Uiso   1.00
O1257  O     0.93933   0.50000   0.81492   0.00000  Uiso   1.00
O1258  O     0.72733   0.50000   0.68508   0.00000  Uiso   1.00
H1259  H     0.78080   0.48342   0.60403   0.00000  Uiso   1.00
H1260  H     0.88191   0.51429   0.89210   0.00000  Uiso   1.00
C1261  C     0.85711   0.53342   0.60404   0.00000  Uiso   1.00
C1262  C     0.83674   0.57728   0.61463   0.00000  Uiso   1.00
H1263  H     0.86102   0.59945   0.59179   0.00000  Uiso   1.00
H1264  H     0.83460   0.58551   0.65044   0.00000  Uiso   1.00
H1265  H     0.79949   0.58005   0.61056   0.00000  Uiso   1.00
H1266  H     0.83375   0.51151   0.62732   0.00000  Uiso   1.00
H1267  H     0.89172   0.53223   0.61373   0.00000  Uiso   1.00
C1268  C     0.83621   0.58940   0.92467   0.00000  Uiso   1.00
C1269  C     0.86916   0.62052   0.93891   0.00000  Uiso   1.00
H1270  H     0.85080   0.63339   0.97332   0.00000  Uiso   1.00
H1271  H     0.90428   0.60576   0.93923   0.00000  Uiso   1.00
H1272  H     0.87709   0.64641   0.91473   0.00000  Uiso   1.00
H1273  H     0.85564   0.57496   0.89172   0.00000  Uiso   1.00
H1274  H     0.80580   0.60717   0.91747   0.00000  Uiso   1.00
C1275  C     0.91100   0.62889   0.80562   0.00000  Uiso   1.00
C1276  C     0.87118   0.62727   0.78132   0.00000  Uiso   1.00
H1277  H     0.88306   0.60766   0.75014   0.00000  Uiso   1.00
H1278  H     0.83749   0.61427   0.80440   0.00000  Uiso   1.00
H1279  H     0.86251   0.65875   0.77171   0.00000  Uiso   1.00
H1280  H     0.91746   0.59791   0.81788   0.00000  Uiso   1.00
H1281  H     0.89749   0.64835   0.83670   0.00000  Uiso   1.00
C1282  C     0.75454   0.37127   0.69051   0.00000  Uiso   1.00
C1283  C     0.79686   0.37081   0.71177   0.00000  Uiso   1.00
H1284  H     0.82961   0.38432   0.68780   0.00000  Uiso   1.00
H1285  H     0.78720   0.38913   0.74396   0.00000  Uiso   1.00
H1286  H     0.80599   0.33872   0.71901   0.00000  Uiso   1.00
H1287  H     0.76538   0.35309   0.65817   0.00000  Uiso   1.00
H1288  H     0.74791   0.40307   0.68056   0.00000  Uiso   1.00
H1289  H     0.85841   0.53832   0.80877   0.00000  Uiso   1.00
H1290  H     0.80812   0.46123   0.69163   0.00000  Uiso   1.00
C1291  C     0.00086   0.75411   0.74805   0.00000  Uiso   1.00
C1292  C     0.33263   0.91259   0.75133   0.00000  Uiso   1.00
C1293  C     0.19979   0.85517   0.55378   0.00000  Uiso   1.00
C1294  C     0.14976   0.89188   0.96244   0.00000  Uiso   1.00
C1295  C     0.24849   0.84720   0.52923   0.00000  Uiso   1.00
C1296  C     0.09988   0.89528   0.98559   0.00000  Uiso   1.00
C1297  C     0.29269   0.68997   0.77269   0.00000  Uiso   1.00
C1298  C     0.04067   0.97669   0.72538   0.00000  Uiso   1.00
C1299  C     0.29056   0.98065   0.77538   0.00000  Uiso   1.00
C1300  C     0.04260   0.68607   0.72231   0.00000  Uiso   1.00
C1301  C     0.33202   0.95722   0.75141   0.00000  Uiso   1.00
C1302  C     0.00146   0.70947   0.74707   0.00000  Uiso   1.00
C1303  C     0.18129   0.85467   0.78257   0.00000  Uiso   1.00
C1304  C     0.15199   0.81180   0.71761   0.00000  Uiso   1.00
C1305  C     0.13174   0.85484   0.78244   0.00000  Uiso   1.00
C1306  C     0.20158   0.81182   0.71757   0.00000  Uiso   1.00
C1307  C     0.30573   0.83384   0.83656   0.00000  Uiso   1.00
C1308  C     0.02763   0.83445   0.66357   0.00000  Uiso   1.00
C1309  C     0.29089   0.83721   0.88665   0.00000  Uiso   1.00
C1310  C     0.04338   0.84379   0.61476   0.00000  Uiso   1.00
C1311  C     0.31115   0.83489   0.95827   0.00000  Uiso   1.00
C1312  C     0.03098   0.88103   0.55071   0.00000  Uiso   1.00
C1313  C     0.32534   0.83175   0.91095   0.00000  Uiso   1.00
C1314  C     0.01252   0.86526   0.59436   0.00000  Uiso   1.00
C1315  C     0.24247   0.84740   0.91037   0.00000  Uiso   1.00
C1316  C     0.09246   0.83787   0.59070   0.00000  Uiso   1.00
C1317  C     0.22871   0.85479   0.95765   0.00000  Uiso   1.00
C1318  C     0.11299   0.85856   0.54991   0.00000  Uiso   1.00
C1319  C     0.26278   0.84537   0.98183   0.00000  Uiso   1.00
C1320  C     0.08108   0.87771   0.52823   0.00000  Uiso   1.00
C1321  C     0.18077   0.86788   0.98198   0.00000  Uiso   1.00
C1322  C     0.16413   0.85934   0.52925   0.00000  Uiso   1.00
Cu1323 Cu    0.04689   0.83334   0.75000   0.00000  Uiso   1.00
Cu1324 Cu    0.28645   0.83333   0.75000   0.00000  Uiso   1.00
H1325  H     0.27556   0.84216   0.54725   0.00000  Uiso   1.00
H1326  H     0.07570   0.91294   0.97100   0.00000  Uiso   1.00
H1327  H     0.30798   0.87096   0.61268   0.00000  Uiso   1.00
H1328  H     0.02969   0.82401   0.89350   0.00000  Uiso   1.00
H1329  H     0.00464   0.82899   0.97645   0.00000  Uiso   1.00
H1330  H     0.00651   0.89726   0.53526   0.00000  Uiso   1.00
H1331  H     0.26140   0.70824   0.79173   0.00000  Uiso   1.00
H1332  H     0.07182   0.95838   0.70614   0.00000  Uiso   1.00
H1333  H     0.10500   0.87215   0.80840   0.00000  Uiso   1.00
H1334  H     0.22832   0.79454   0.69158   0.00000  Uiso   1.00
N1335  N     0.11736   0.83334   0.74999   0.00000  Uiso   1.00
N1336  N     0.21597   0.83332   0.75001   0.00000  Uiso   1.00
O1337  O     0.03958   0.77322   0.75000   0.00000  Uiso   1.00
O1338  O     0.29375   0.89345   0.75000   0.00000  Uiso   1.00
O1339  O     0.29372   0.77321   0.75000   0.00000  Uiso   1.00
O1340  O     0.03961   0.89346   0.74999   0.00000  Uiso   1.00
O1341  O     0.01852   0.83334   0.81491   0.00000  Uiso   1.00
O1342  O     0.31481   0.83332   0.68508   0.00000  Uiso   1.00
O1343  O     0.27267   0.83333   0.81492   0.00000  Uiso   1.00
O1344  O     0.06067   0.83333   0.68508   0.00000  Uiso   1.00
H1345  H     0.11413   0.81675   0.60403   0.00000  Uiso   1.00
H1346  H     0.21525   0.84762   0.89210   0.00000  Uiso   1.00
C1347  C     0.19045   0.86675   0.60404   0.00000  Uiso   1.00
C1348  C     0.17007   0.91061   0.61463   0.00000  Uiso   1.00
H1349  H     0.19436   0.93279   0.59179   0.00000  Uiso   1.00
H1350  H     0.16793   0.91884   0.65044   0.00000  Uiso   1.00
H1351  H     0.13283   0.91338   0.61056   0.00000  Uiso   1.00
H1352  H     0.16709   0.84484   0.62732   0.00000  Uiso   1.00
H1353  H     0.22505   0.86556   0.61373   0.00000  Uiso   1.00
C1354  C     0.16955   0.92273   0.92467   0.00000  Uiso   1.00
C1355  C     0.20249   0.95385   0.93891   0.00000  Uiso   1.00
H1356  H     0.18414   0.96672   0.97332   0.00000  Uiso   1.00
H1357  H     0.23761   0.93910   0.93923   0.00000  Uiso   1.00
H1358  H     0.21042   0.97974   0.91473   0.00000  Uiso   1.00
H1359  H     0.18897   0.90829   0.89172   0.00000  Uiso   1.00
H1360  H     0.13913   0.94050   0.91747   0.00000  Uiso   1.00
C1361  C     0.24433   0.96222   0.80562   0.00000  Uiso   1.00
C1362  C     0.20451   0.96060   0.78132   0.00000  Uiso   1.00
H1363  H     0.21639   0.94099   0.75014   0.00000  Uiso   1.00
H1364  H     0.17082   0.94760   0.80440   0.00000  Uiso   1.00
H1365  H     0.19584   0.99208   0.77171   0.00000  Uiso   1.00
H1366  H     0.25080   0.93125   0.81788   0.00000  Uiso   1.00
H1367  H     0.23082   0.98168   0.83670   0.00000  Uiso   1.00
C1368  C     0.08787   0.70461   0.69051   0.00000  Uiso   1.00
C1369  C     0.13019   0.70414   0.71177   0.00000  Uiso   1.00
H1370  H     0.16295   0.71765   0.68780   0.00000  Uiso   1.00
H1371  H     0.12053   0.72247   0.74396   0.00000  Uiso   1.00
H1372  H     0.13932   0.67205   0.71901   0.00000  Uiso   1.00
H1373  H     0.09871   0.68642   0.65817   0.00000  Uiso   1.00
H1374  H     0.08125   0.73641   0.68056   0.00000  Uiso   1.00
H1375  H     0.19174   0.87165   0.80877   0.00000  Uiso   1.00
H1376  H     0.14145   0.79456   0.69163   0.00000  Uiso   1.00
C1377  C     0.33419   0.75411   0.74805   0.00000  Uiso   1.00
C1378  C     0.66596   0.91259   0.75133   0.00000  Uiso   1.00
C1379  C     0.53313   0.85517   0.55378   0.00000  Uiso   1.00
C1380  C     0.48309   0.89188   0.96244   0.00000  Uiso   1.00
C1381  C     0.58182   0.84720   0.52923   0.00000  Uiso   1.00
C1382  C     0.43321   0.89528   0.98559   0.00000  Uiso   1.00
C1383  C     0.62603   0.68997   0.77269   0.00000  Uiso   1.00
C1384  C     0.37400   0.97669   0.72538   0.00000  Uiso   1.00
C1385  C     0.62390   0.98065   0.77538   0.00000  Uiso   1.00
C1386  C     0.37593   0.68607   0.72231   0.00000  Uiso   1.00
C1387  C     0.66535   0.95722   0.75141   0.00000  Uiso   1.00
C1388  C     0.33479   0.70947   0.74707   0.00000  Uiso   1.00
C1389  C     0.51462   0.85467   0.78257   0.00000  Uiso   1.00
C1390  C     0.48532   0.81180   0.71761   0.00000  Uiso   1.00
C1391  C     0.46508   0.85484   0.78244   0.00000  Uiso   1.00
C1392  C     0.53491   0.81182   0.71757   0.00000  Uiso   1.00
C1393  C     0.63906   0.83384   0.83656   0.00000  Uiso   1.00
C1394  C     0.36097   0.83445   0.66357   0.00000  Uiso   1.00
C1395  C     0.62422   0.83721   0.88665   0.00000  Uiso   1.00
C1396  C     0.37672   0.84379   0.61476   0.00000  Uiso   1.00
C1397  C     0.64448   0.83489   0.95827   0.00000  Uiso   1.00
C1398  C     0.36432   0.88103   0.55071   0.00000  Uiso   1.00
C1399  C     0.65868   0.83175   0.91095   0.00000  Uiso   1.00
C1400  C     0.34585   0.86526   0.59436   0.00000  Uiso   1.00
C1401  C     0.57580   0.84740   0.91037   0.00000  Uiso   1.00
C1402  C     0.42579   0.83787   0.59070   0.00000  Uiso   1.00
C1403  C     0.56204   0.85479   0.95765   0.00000  Uiso   1.00
C1404  C     0.44632   0.85856   0.54991   0.00000  Uiso   1.00
C1405  C     0.59612   0.84537   0.98183   0.00000  Uiso   1.00
C1406  C     0.41442   0.87771   0.52823   0.00000  Uiso   1.00
C1407  C     0.51410   0.86788   0.98198   0.00000  Uiso   1.00
C1408  C     0.49747   0.85934   0.52925   0.00000  Uiso   1.00
Cu1409 Cu    0.38022   0.83334   0.75000   0.00000  Uiso   1.00
Cu1410 Cu    0.61978   0.83333   0.75000   0.00000  Uiso   1.00
H1411  H     0.60890   0.84216   0.54725   0.00000  Uiso   1.00
H1412  H     0.40904   0.91294   0.97100   0.00000  Uiso   1.00
H1413  H     0.64131   0.87096   0.61268   0.00000  Uiso   1.00
H1414  H     0.36302   0.82401   0.89350   0.00000  Uiso   1.00
H1415  H     0.33798   0.82899   0.97645   0.00000  Uiso   1.00
H1416  H     0.33984   0.89726   0.53526   0.00000  Uiso   1.00
H1417  H     0.59473   0.70824   0.79173   0.00000  Uiso   1.00
H1418  H     0.40516   0.95838   0.70614   0.00000  Uiso   1.00
H1419  H     0.43833   0.87215   0.80840   0.00000  Uiso   1.00
H1420  H     0.56166   0.79454   0.69158   0.00000  Uiso   1.00
N1421  N     0.45069   0.83334   0.74999   0.00000  Uiso   1.00
N1422  N     0.54931   0.83332   0.75001   0.00000  Uiso   1.00
O1423  O     0.37291   0.77322   0.75000   0.00000  Uiso   1.00
O1424  O     0.62709   0.89345   0.75000   0.00000  Uiso   1.00
O1425  O     0.62706   0.77321   0.75000   0.00000  Uiso   1.00
O1426  O     0.37294   0.89346   0.74999   0.00000  Uiso   1.00
O1427  O     0.35186   0.83334   0.81491   0.00000  Uiso   1.00
O1428  O     0.64814   0.83332   0.68508   0.00000  Uiso   1.00
O1429  O     0.60600   0.83333   0.81492   0.00000  Uiso   1.00
O1430  O     0.39400   0.83333   0.68508   0.00000  Uiso   1.00
H1431  H     0.44747   0.81675   0.60403   0.00000  Uiso   1.00
H1432  H     0.54858   0.84762   0.89210   0.00000  Uiso   1.00
C1433  C     0.52378   0.86675   0.60404   0.00000  Uiso   1.00
C1434  C     0.50341   0.91061   0.61463   0.00000  Uiso   1.00
H1435  H     0.52769   0.93279   0.59179   0.00000  Uiso   1.00
H1436  H     0.50127   0.91884   0.65044   0.00000  Uiso   1.00
H1437  H     0.46616   0.91338   0.61056   0.00000  Uiso   1.00
H1438  H     0.50042   0.84484   0.62732   0.00000  Uiso   1.00
H1439  H     0.55838   0.86556   0.61373   0.00000  Uiso   1.00
C1440  C     0.50288   0.92273   0.92467   0.00000  Uiso   1.00
C1441  C     0.53582   0.95385   0.93891   0.00000  Uiso   1.00
H1442  H     0.51747   0.96672   0.97332   0.00000  Uiso   1.00
H1443  H     0.57095   0.93910   0.93923   0.00000  Uiso   1.00
H1444  H     0.54375   0.97974   0.91473   0.00000  Uiso   1.00
H1445  H     0.52231   0.90829   0.89172   0.00000  Uiso   1.00
H1446  H     0.47246   0.94050   0.91747   0.00000  Uiso   1.00
C1447  C     0.57767   0.96222   0.80562   0.00000  Uiso   1.00
C1448  C     0.53784   0.96060   0.78132   0.00000  Uiso   1.00
H1449  H     0.54973   0.94099   0.75014   0.00000  Uiso   1.00
H1450  H     0.50416   0.94760   0.80440   0.00000  Uiso   1.00
H1451  H     0.52917   0.99208   0.77171   0.00000  Uiso   1.00
H1452  H     0.58413   0.93125   0.81788   0.00000  Uiso   1.00
H1453  H     0.56415   0.98168   0.83670   0.00000  Uiso   1.00
C1454  C     0.42121   0.70461   0.69051   0.00000  Uiso   1.00
C1455  C     0.46352   0.70414   0.71177   0.00000  Uiso   1.00
H1456  H     0.49628   0.71765   0.68780   0.00000  Uiso   1.00
H1457  H     0.45387   0.72247   0.74396   0.00000  Uiso   1.00
H1458  H     0.47266   0.67205   0.71901   0.00000  Uiso   1.00
H1459  H     0.43205   0.68642   0.65817   0.00000  Uiso   1.00
H1460  H     0.41458   0.73641   0.68056   0.00000  Uiso   1.00
H1461  H     0.52508   0.87165   0.80877   0.00000  Uiso   1.00
H1462  H     0.47479   0.79456   0.69163   0.00000  Uiso   1.00
C1463  C     0.66753   0.75411   0.74805   0.00000  Uiso   1.00
C1464  C     0.99929   0.91259   0.75133   0.00000  Uiso   1.00
C1465  C     0.86646   0.85517   0.55378   0.00000  Uiso   1.00
C1466  C     0.81642   0.89188   0.96244   0.00000  Uiso   1.00
C1467  C     0.91515   0.84720   0.52923   0.00000  Uiso   1.00
C1468  C     0.76654   0.89528   0.98559   0.00000  Uiso   1.00
C1469  C     0.95936   0.68997   0.77269   0.00000  Uiso   1.00
C1470  C     0.70734   0.97669   0.72538   0.00000  Uiso   1.00
C1471  C     0.95723   0.98065   0.77538   0.00000  Uiso   1.00
C1472  C     0.70926   0.68607   0.72231   0.00000  Uiso   1.00
C1473  C     0.99868   0.95722   0.75141   0.00000  Uiso   1.00
C1474  C     0.66812   0.70947   0.74707   0.00000  Uiso   1.00
C1475  C     0.84796   0.85467   0.78257   0.00000  Uiso   1.00
C1476  C     0.81866   0.81180   0.71761   0.00000  Uiso   1.00
C1477  C     0.79841   0.85484   0.78244   0.00000  Uiso   1.00
C1478  C     0.86825   0.81182   0.71757   0.00000  Uiso   1.00
C1479  C     0.97240   0.83384   0.83656   0.00000  Uiso   1.00
C1480  C     0.69430   0.83445   0.66357   0.00000  Uiso   1.00
C1481  C     0.95756   0.83721   0.88665   0.00000  Uiso   1.00
C1482  C     0.71005   0.84379   0.61476   0.00000  Uiso   1.00
C1483  C     0.97782   0.83489   0.95827   0.00000  Uiso   1.00
C1484  C     0.69765   0.88103   0.55071   0.00000  Uiso   1.00
C1485  C     0.99201   0.83175   0.91095   0.00000  Uiso   1.00
C1486  C     0.67918   0.86526   0.59436   0.00000  Uiso   1.00
C1487  C     0.90913   0.84740   0.91037   0.00000  Uiso   1.00
C1488  C     0.75913   0.83787   0.59070   0.00000  Uiso   1.00
C1489  C     0.89537   0.85479   0.95765   0.00000  Uiso   1.00
C1490  C     0.77966   0.85856   0.54991   0.00000  Uiso   1.00
C1491  C     0.92945   0.84537   0.98183   0.00000  Uiso   1.00
C1492  C     0.74775   0.87771   0.52823   0.00000  Uiso   1.00
C1493  C     0.84743   0.86788   0.98198   0.00000  Uiso   1.00
C1494  C     0.83080   0.85934   0.52925   0.00000  Uiso   1.00
Cu1495 Cu    0.71355   0.83334   0.75000   0.00000  Uiso   1.00
Cu1496 Cu    0.95311   0.83333   0.75000   0.00000  Uiso   1.00
H1497  H     0.94223   0.84216   0.54725   0.00000  Uiso   1.00
H1498  H     0.74237   0.91294   0.97100   0.00000  Uiso   1.00
H1499  H     0.97465   0.87096   0.61268   0.00000  Uiso   1.00
H1500  H     0.69636   0.82401   0.89350   0.00000  Uiso   1.00
H1501  H     0.67131   0.82899   0.97645   0.00000  Uiso   1.00
H1502  H     0.67318   0.89726   0.53526   0.00000  Uiso   1.00
H1503  H     0.92807   0.70824   0.79173   0.00000  Uiso   1.00
H1504  H     0.73849   0.95838   0.70614   0.00000  Uiso   1.00
H1505  H     0.77166   0.87215   0.80840   0.00000  Uiso   1.00
H1506  H     0.89499   0.79454   0.69158   0.00000  Uiso   1.00
N1507  N     0.78403   0.83334   0.74999   0.00000  Uiso   1.00
N1508  N     0.88264   0.83332   0.75001   0.00000  Uiso   1.00
O1509  O     0.70625   0.77322   0.75000   0.00000  Uiso   1.00
O1510  O     0.96042   0.89345   0.75000   0.00000  Uiso   1.00
O1511  O     0.96039   0.77321   0.75000   0.00000  Uiso   1.00
O1512  O     0.70628   0.89346   0.74999   0.00000  Uiso   1.00
O1513  O     0.68519   0.83334   0.81491   0.00000  Uiso   1.00
O1514  O     0.98148   0.83332   0.68508   0.00000  Uiso   1.00
O1515  O     0.93933   0.83333   0.81492   0.00000  Uiso   1.00
O1516  O     0.72733   0.83333   0.68508   0.00000  Uiso   1.00
H1517  H     0.78080   0.81675   0.60403   0.00000  Uiso   1.00
H1518  H     0.88191   0.84762   0.89210   0.00000  Uiso   1.00
C1519  C     0.85711   0.86675   0.60404   0.00000  Uiso   1.00
C1520  C     0.83674   0.91061   0.61463   0.00000  Uiso   1.00
H1521  H     0.86102   0.93279   0.59179   0.00000  Uiso   1.00
H1522  H     0.83460   0.91884   0.65044   0.00000  Uiso   1.00
H1523  H     0.79949   0.91338   0.61056   0.00000  Uiso   1.00
H1524  H     0.83375   0.84484   0.62732   0.00000  Uiso   1.00
H1525  H     0.89172   0.86556   0.61373   0.00000  Uiso   1.00
C1526  C     0.83621   0.92273   0.92467   0.00000  Uiso   1.00
C1527  C     0.86916   0.95385   0.93891   0.00000  Uiso   1.00
H1528  H     0.85080   0.96672   0.97332   0.00000  Uiso   1.00
H1529  H     0.90428   0.93910   0.93923   0.00000  Uiso   1.00
H1530  H     0.87709   0.97974   0.91473   0.00000  Uiso   1.00
H1531  H     0.85564   0.90829   0.89172   0.00000  Uiso   1.00
H1532  H     0.80580   0.94050   0.91747   0.00000  Uiso   1.00
C1533  C     0.91100   0.96222   0.80562   0.00000  Uiso   1.00
C1534  C     0.87118   0.96060   0.78132   0.00000  Uiso   1.00
H1535  H     0.88306   0.94099   0.75014   0.00000  Uiso   1.00
H1536  H     0.83749   0.94760   0.80440   0.00000  Uiso   1.00
H1537  H     0.86251   0.99208   0.77171   0.00000  Uiso   1.00
H1538  H     0.91746   0.93125   0.81788   0.00000  Uiso   1.00
H1539  H     0.89749   0.98168   0.83670   0.00000  Uiso   1.00
C1540  C     0.75454   0.70461   0.69051   0.00000  Uiso   1.00
C1541  C     0.79686   0.70414   0.71177   0.00000  Uiso   1.00
H1542  H     0.82961   0.71765   0.68780   0.00000  Uiso   1.00
H1543  H     0.78720   0.72247   0.74396   0.00000  Uiso   1.00
H1544  H     0.80599   0.67205   0.71901   0.00000  Uiso   1.00
H1545  H     0.76538   0.68642   0.65817   0.00000  Uiso   1.00
H1546  H     0.74791   0.73641   0.68056   0.00000  Uiso   1.00
H1547  H     0.85841   0.87165   0.80877   0.00000  Uiso   1.00
H1548  H     0.80812   0.79456   0.69163   0.00000  Uiso   1.00
loop_
_geom_bond_atom_site_label_1
_geom_bond_atom_site_label_2
_geom_bond_distance
_geom_bond_site_symmetry_2
_ccdc_geom_bond_type
C1     C12     1.449   .     S
C1     O47     1.290   .     A
C1     O221    1.292   1_455 S
C2     C11     1.449   .     S
C2     O48     1.289   .     A
C2     O136    1.293   .     S
C3     C57     1.529   .     S
C3     C5      1.401   .     A
C3     C32     1.433   .     A
C4     C6      1.403   .     A
C4     C64     1.525   .     S
C4     C31     1.430   .     A
C5     H35     1.082   .     S
C5     C803    1.393   1_554 S
C6     H36     1.085   .     S
C6     C804    1.394   .     S
C7     H41     1.085   .     S
C7     C525    1.389   1_545 S
C7     C98     1.398   .     S
C8     H42     1.085   .     S
C8     C268    1.391   .     S
C8     C183    1.399   1_455 S
C9     C11     1.413   .     A
C9     C71     1.514   .     S
C9     C265    1.389   .     S
C10    C78     1.516   .     S
C10    C12     1.414   .     A
C10    C524    1.391   1_545 S
C11    C94     1.399   .     S
C12    C179    1.398   1_455 S
C13    N46     1.367   .     A
C13    C15     1.416   .     A
C13    H85     1.081   .     S
C14    C16     1.416   .     A
C14    N45     1.367   .     A
C14    H86     1.081   .     S
C15    N45     1.367   .     A
C15    H43     1.082   .     S
C16    H44     1.082   .     S
C16    N46     1.367   .     A
C17    O53     1.299   .     A
C17    C19     1.474   .     S
C17    O137    1.296   .     S
C18    C20     1.470   .     S
C18    O54     1.296   .     A
C18    O224    1.297   1_455 S
C19    C23     1.403   .     A
C19    C25     1.403   .     A
C20    C24     1.400   .     A
C20    C26     1.397   .     A
C21    C23     1.393   .     A
C21    C29     1.402   .     A
C21    H125    1.084   .     S
C22    H40     1.084   .     S
C22    C24     1.396   .     A
C22    C30     1.404   .     A
C23    H124    1.083   .     S
C24    H209    1.081   1_455 S
C25    H56     1.079   .     S
C25    C27     1.407   .     A
C26    H55     1.077   .     S
C26    C28     1.402   .     A
C27    C29     1.413   .     A
C27    C31     1.419   .     A
C28    C32     1.419   .     A
C28    C30     1.413   .     A
C29    C779    1.393   .     S
C30    C780    1.394   1_554 S
C31    C806    1.421   .     S
C32    C805    1.421   1_554 S
Cu33   N45     2.013   .     S
Cu33   O50     1.960   .     S
Cu33   O51     1.923   .     S
Cu33   O47     1.965   .     S
Cu33   O54     1.915   .     S
Cu33   Cu206   2.679   1_455 S
Cu34   N46     2.013   .     S
Cu34   O48     1.965   .     S
Cu34   O49     1.960   .     S
Cu34   O52     1.923   .     S
Cu34   O53     1.915   .     S
Cu34   Cu119   2.679   .     S
H37    C110    1.081   .     S
H38    C195    1.083   1_455 S
H39    C193    1.084   1_455 S
O49    C87     1.292   .     S
O50    C174    1.293   1_455 S
O51    C189    1.296   1_455 S
O52    C104    1.297   .     S
C57    H62     1.100   .     S
C57    H63     1.110   .     S
C57    C58     1.529   .     S
C58    H60     1.111   .     S
C58    H61     1.109   .     S
C58    H59     1.111   .     S
C64    H70     1.112   .     S
C64    H69     1.102   .     S
C64    C65     1.530   .     S
C65    H67     1.110   .     S
C65    H68     1.108   .     S
C65    H66     1.111   .     S
C71    H77     1.109   .     S
C71    C72     1.527   .     S
C71    H76     1.108   .     S
C72    H75     1.111   .     S
C72    H74     1.110   .     S
C72    H73     1.110   .     S
C78    H83     1.112   .     S
C78    C79     1.527   .     S
C78    H84     1.108   .     S
C79    H81     1.111   .     S
C79    H82     1.111   .     S
C79    H80     1.110   .     S
C87    C98     1.449   .     S
C87    O133    1.290   .     A
C88    C97     1.449   .     S
C88    O134    1.289   .     A
C88    O222    1.293   .     S
C89    C143    1.529   .     S
C89    C91     1.401   .     A
C89    C118    1.433   .     A
C90    C92     1.403   .     A
C90    C150    1.525   .     S
C90    C117    1.430   .     A
C91    H121    1.082   .     S
C91    C889    1.393   1_554 S
C92    H122    1.085   .     S
C92    C890    1.394   .     S
C93    H127    1.085   .     S
C93    C611    1.389   1_545 S
C93    C184    1.398   .     S
C94    H128    1.085   .     S
C94    C354    1.391   .     S
C95    C97     1.413   .     A
C95    C157    1.514   .     S
C95    C351    1.389   .     S
C96    C164    1.516   .     S
C96    C98     1.414   .     A
C96    C610    1.391   1_545 S
C97    C180    1.399   .     S
C99    N132    1.367   .     A
C99    C101    1.416   .     A
C99    H171    1.081   .     S
C100   C102    1.416   .     A
C100   N131    1.367   .     A
C100   H172    1.081   .     S
C101   N131    1.367   .     A
C101   H129    1.082   .     S
C102   H130    1.082   .     S
C102   N132    1.367   .     A
C103   O139    1.299   .     A
C103   C105    1.474   .     S
C103   O223    1.296   .     S
C104   C106    1.470   .     S
C104   O140    1.296   .     A
C105   C109    1.403   .     A
C105   C111    1.403   .     A
C106   C110    1.400   .     A
C106   C112    1.397   .     A
C107   C109    1.393   .     A
C107   C115    1.402   .     A
C107   H211    1.084   .     S
C108   H126    1.084   .     S
C108   C110    1.396   .     A
C108   C116    1.404   .     A
C109   H210    1.083   .     S
C111   H142    1.079   .     S
C111   C113    1.407   .     A
C112   H141    1.077   .     S
C112   C114    1.402   .     A
C113   C115    1.413   .     A
C113   C117    1.419   .     A
C114   C118    1.419   .     A
C114   C116    1.413   .     A
C115   C865    1.393   .     S
C116   C866    1.394   1_554 S
C117   C892    1.421   .     S
C118   C891    1.421   1_554 S
Cu119  N131    2.013   .     S
Cu119  O136    1.960   .     S
Cu119  O137    1.923   .     S
Cu119  O133    1.965   .     S
Cu119  O140    1.915   .     S
Cu120  N132    2.013   .     S
Cu120  O134    1.965   .     S
Cu120  O135    1.960   .     S
Cu120  O138    1.923   .     S
Cu120  O139    1.915   .     S
Cu120  Cu205   2.679   .     S
H123   C196    1.081   .     S
O135   C173    1.292   .     S
O138   C190    1.297   .     S
C143   H148    1.100   .     S
C143   H149    1.110   .     S
C143   C144    1.529   .     S
C144   H146    1.111   .     S
C144   H147    1.109   .     S
C144   H145    1.111   .     S
C150   H156    1.112   .     S
C150   H155    1.102   .     S
C150   C151    1.530   .     S
C151   H153    1.110   .     S
C151   H154    1.108   .     S
C151   H152    1.111   .     S
C157   H163    1.109   .     S
C157   C158    1.527   .     S
C157   H162    1.108   .     S
C158   H161    1.111   .     S
C158   H160    1.110   .     S
C158   H159    1.110   .     S
C164   H169    1.112   .     S
C164   C165    1.527   .     S
C164   H170    1.108   .     S
C165   H167    1.111   .     S
C165   H168    1.111   .     S
C165   H166    1.110   .     S
C173   C184    1.449   .     S
C173   O219    1.290   .     A
C174   C183    1.449   .     S
C174   O220    1.289   .     A
C174   O50     1.293   1_655 S
C175   C229    1.529   .     S
C175   C177    1.401   .     A
C175   C204    1.433   .     A
C176   C178    1.403   .     A
C176   C236    1.525   .     S
C176   C203    1.430   .     A
C177   H207    1.082   .     S
C177   C975    1.393   1_554 S
C178   H208    1.085   .     S
C178   C976    1.394   .     S
C179   H213    1.085   .     S
C179   C697    1.389   1_545 S
C179   C12     1.398   1_655 S
C180   H214    1.085   .     S
C180   C440    1.391   .     S
C181   C183    1.413   .     A
C181   C243    1.514   .     S
C181   C437    1.389   .     S
C182   C250    1.516   .     S
C182   C184    1.414   .     A
C182   C696    1.391   1_545 S
C183   C8      1.399   1_655 S
C185   N218    1.367   .     A
C185   C187    1.416   .     A
C185   H257    1.081   .     S
C186   C188    1.416   .     A
C186   N217    1.367   .     A
C186   H258    1.081   .     S
C187   N217    1.367   .     A
C187   H215    1.082   .     S
C188   H216    1.082   .     S
C188   N218    1.367   .     A
C189   O225    1.299   .     A
C189   C191    1.474   .     S
C189   O51     1.296   1_655 S
C190   C192    1.470   .     S
C190   O226    1.296   .     A
C191   C195    1.403   .     A
C191   C197    1.403   .     A
C192   C196    1.400   .     A
C192   C198    1.397   .     A
C193   C195    1.393   .     A
C193   C201    1.402   .     A
C193   H39     1.084   1_655 S
C194   H212    1.084   .     S
C194   C196    1.396   .     A
C194   C202    1.404   .     A
C195   H38     1.083   1_655 S
C197   H228    1.079   .     S
C197   C199    1.407   .     A
C198   H227    1.077   .     S
C198   C200    1.402   .     A
C199   C201    1.413   .     A
C199   C203    1.419   .     A
C200   C204    1.419   .     A
C200   C202    1.413   .     A
C201   C951    1.393   .     S
C202   C952    1.394   1_554 S
C203   C978    1.421   .     S
C204   C977    1.421   1_554 S
Cu205  N217    2.013   .     S
Cu205  O222    1.960   .     S
Cu205  O223    1.923   .     S
Cu205  O219    1.965   .     S
Cu205  O226    1.915   .     S
Cu206  N218    2.013   .     S
Cu206  O220    1.965   .     S
Cu206  O221    1.960   .     S
Cu206  O224    1.923   .     S
Cu206  O225    1.915   .     S
Cu206  Cu33    2.679   1_655 S
H209   C24     1.081   1_655 S
O221   C1      1.292   1_655 S
O224   C18     1.297   1_655 S
C229   H234    1.100   .     S
C229   H235    1.110   .     S
C229   C230    1.529   .     S
C230   H232    1.111   .     S
C230   H233    1.109   .     S
C230   H231    1.111   .     S
C236   H242    1.112   .     S
C236   H241    1.102   .     S
C236   C237    1.530   .     S
C237   H239    1.110   .     S
C237   H240    1.108   .     S
C237   H238    1.111   .     S
C243   H249    1.109   .     S
C243   C244    1.527   .     S
C243   H248    1.108   .     S
C244   H247    1.111   .     S
C244   H246    1.110   .     S
C244   H245    1.110   .     S
C250   H255    1.112   .     S
C250   C251    1.527   .     S
C250   H256    1.108   .     S
C251   H253    1.111   .     S
C251   H254    1.111   .     S
C251   H252    1.110   .     S
C259   C270    1.449   .     S
C259   O305    1.290   .     A
C259   O479    1.292   1_455 S
C260   C269    1.449   .     S
C260   O306    1.289   .     A
C260   O394    1.293   .     S
C261   C315    1.529   .     S
C261   C263    1.401   .     A
C261   C290    1.433   .     A
C262   C264    1.403   .     A
C262   C322    1.525   .     S
C262   C289    1.430   .     A
C263   H293    1.082   .     S
C263   C1061   1.393   1_554 S
C264   H294    1.085   .     S
C264   C1062   1.394   .     S
C265   H299    1.085   .     S
C265   C356    1.398   .     S
C266   H300    1.085   .     S
C266   C526    1.391   .     S
C266   C441    1.399   1_455 S
C267   C269    1.413   .     A
C267   C329    1.514   .     S
C267   C523    1.389   .     S
C268   C336    1.516   .     S
C268   C270    1.414   .     A
C269   C352    1.399   .     S
C270   C437    1.398   1_455 S
C271   N304    1.367   .     A
C271   C273    1.416   .     A
C271   H343    1.081   .     S
C272   C274    1.416   .     A
C272   N303    1.367   .     A
C272   H344    1.081   .     S
C273   N303    1.367   .     A
C273   H301    1.082   .     S
C274   H302    1.082   .     S
C274   N304    1.367   .     A
C275   O311    1.299   .     A
C275   C277    1.474   .     S
C275   O395    1.296   .     S
C276   C278    1.470   .     S
C276   O312    1.296   .     A
C276   O482    1.297   1_455 S
C277   C281    1.403   .     A
C277   C283    1.403   .     A
C278   C282    1.400   .     A
C278   C284    1.397   .     A
C279   C281    1.393   .     A
C279   C287    1.402   .     A
C279   H383    1.084   .     S
C280   H298    1.084   .     S
C280   C282    1.396   .     A
C280   C288    1.404   .     A
C281   H382    1.083   .     S
C282   H467    1.081   1_455 S
C283   H314    1.079   .     S
C283   C285    1.407   .     A
C284   H313    1.077   .     S
C284   C286    1.402   .     A
C285   C287    1.413   .     A
C285   C289    1.419   .     A
C286   C290    1.419   .     A
C286   C288    1.413   .     A
C287   C1037   1.393   .     S
C288   C1038   1.394   1_554 S
C289   C1064   1.421   .     S
C290   C1063   1.421   1_554 S
Cu291  N303    2.013   .     S
Cu291  O308    1.960   .     S
Cu291  O309    1.923   .     S
Cu291  O305    1.965   .     S
Cu291  O312    1.915   .     S
Cu291  Cu464   2.679   1_455 S
Cu292  N304    2.013   .     S
Cu292  O306    1.965   .     S
Cu292  O307    1.960   .     S
Cu292  O310    1.923   .     S
Cu292  O311    1.915   .     S
Cu292  Cu377   2.679   .     S
H295   C368    1.081   .     S
H296   C453    1.083   1_455 S
H297   C451    1.084   1_455 S
O307   C345    1.292   .     S
O308   C432    1.293   1_455 S
O309   C447    1.296   1_455 S
O310   C362    1.297   .     S
C315   H320    1.100   .     S
C315   H321    1.110   .     S
C315   C316    1.529   .     S
C316   H318    1.111   .     S
C316   H319    1.109   .     S
C316   H317    1.111   .     S
C322   H328    1.112   .     S
C322   H327    1.102   .     S
C322   C323    1.530   .     S
C323   H325    1.110   .     S
C323   H326    1.108   .     S
C323   H324    1.111   .     S
C329   H335    1.109   .     S
C329   C330    1.527   .     S
C329   H334    1.108   .     S
C330   H333    1.111   .     S
C330   H332    1.110   .     S
C330   H331    1.110   .     S
C336   H341    1.112   .     S
C336   C337    1.527   .     S
C336   H342    1.108   .     S
C337   H339    1.111   .     S
C337   H340    1.111   .     S
C337   H338    1.110   .     S
C345   C356    1.449   .     S
C345   O391    1.290   .     A
C346   C355    1.449   .     S
C346   O392    1.289   .     A
C346   O480    1.293   .     S
C347   C401    1.529   .     S
C347   C349    1.401   .     A
C347   C376    1.433   .     A
C348   C350    1.403   .     A
C348   C408    1.525   .     S
C348   C375    1.430   .     A
C349   H379    1.082   .     S
C349   C1147   1.393   1_554 S
C350   H380    1.085   .     S
C350   C1148   1.394   .     S
C351   H385    1.085   .     S
C351   C442    1.398   .     S
C352   H386    1.085   .     S
C352   C612    1.391   .     S
C353   C355    1.413   .     A
C353   C415    1.514   .     S
C353   C609    1.389   .     S
C354   C422    1.516   .     S
C354   C356    1.414   .     A
C355   C438    1.399   .     S
C357   N390    1.367   .     A
C357   C359    1.416   .     A
C357   H429    1.081   .     S
C358   C360    1.416   .     A
C358   N389    1.367   .     A
C358   H430    1.081   .     S
C359   N389    1.367   .     A
C359   H387    1.082   .     S
C360   H388    1.082   .     S
C360   N390    1.367   .     A
C361   O397    1.299   .     A
C361   C363    1.474   .     S
C361   O481    1.296   .     S
C362   C364    1.470   .     S
C362   O398    1.296   .     A
C363   C367    1.403   .     A
C363   C369    1.403   .     A
C364   C368    1.400   .     A
C364   C370    1.397   .     A
C365   C367    1.393   .     A
C365   C373    1.402   .     A
C365   H469    1.084   .     S
C366   H384    1.084   .     S
C366   C368    1.396   .     A
C366   C374    1.404   .     A
C367   H468    1.083   .     S
C369   H400    1.079   .     S
C369   C371    1.407   .     A
C370   H399    1.077   .     S
C370   C372    1.402   .     A
C371   C373    1.413   .     A
C371   C375    1.419   .     A
C372   C376    1.419   .     A
C372   C374    1.413   .     A
C373   C1123   1.393   .     S
C374   C1124   1.394   1_554 S
C375   C1150   1.421   .     S
C376   C1149   1.421   1_554 S
Cu377  N389    2.013   .     S
Cu377  O394    1.960   .     S
Cu377  O395    1.923   .     S
Cu377  O391    1.965   .     S
Cu377  O398    1.915   .     S
Cu378  N390    2.013   .     S
Cu378  O392    1.965   .     S
Cu378  O393    1.960   .     S
Cu378  O396    1.923   .     S
Cu378  O397    1.915   .     S
Cu378  Cu463   2.679   .     S
H381   C454    1.081   .     S
O393   C431    1.292   .     S
O396   C448    1.297   .     S
C401   H406    1.100   .     S
C401   H407    1.110   .     S
C401   C402    1.529   .     S
C402   H404    1.111   .     S
C402   H405    1.109   .     S
C402   H403    1.111   .     S
C408   H414    1.112   .     S
C408   H413    1.102   .     S
C408   C409    1.530   .     S
C409   H411    1.110   .     S
C409   H412    1.108   .     S
C409   H410    1.111   .     S
C415   H421    1.109   .     S
C415   C416    1.527   .     S
C415   H420    1.108   .     S
C416   H419    1.111   .     S
C416   H418    1.110   .     S
C416   H417    1.110   .     S
C422   H427    1.112   .     S
C422   C423    1.527   .     S
C422   H428    1.108   .     S
C423   H425    1.111   .     S
C423   H426    1.111   .     S
C423   H424    1.110   .     S
C431   C442    1.449   .     S
C431   O477    1.290   .     A
C432   C441    1.449   .     S
C432   O478    1.289   .     A
C432   O308    1.293   1_655 S
C433   C487    1.529   .     S
C433   C435    1.401   .     A
C433   C462    1.433   .     A
C434   C436    1.403   .     A
C434   C494    1.525   .     S
C434   C461    1.430   .     A
C435   H465    1.082   .     S
C435   C1233   1.393   1_554 S
C436   H466    1.085   .     S
C436   C1234   1.394   .     S
C437   H471    1.085   .     S
C437   C270    1.398   1_655 S
C438   H472    1.085   .     S
C438   C698    1.391   .     S
C439   C441    1.413   .     A
C439   C501    1.514   .     S
C439   C695    1.389   .     S
C440   C508    1.516   .     S
C440   C442    1.414   .     A
C441   C266    1.399   1_655 S
C443   N476    1.367   .     A
C443   C445    1.416   .     A
C443   H515    1.081   .     S
C444   C446    1.416   .     A
C444   N475    1.367   .     A
C444   H516    1.081   .     S
C445   N475    1.367   .     A
C445   H473    1.082   .     S
C446   H474    1.082   .     S
C446   N476    1.367   .     A
C447   O483    1.299   .     A
C447   C449    1.474   .     S
C447   O309    1.296   1_655 S
C448   C450    1.470   .     S
C448   O484    1.296   .     A
C449   C453    1.403   .     A
C449   C455    1.403   .     A
C450   C454    1.400   .     A
C450   C456    1.397   .     A
C451   C453    1.393   .     A
C451   C459    1.402   .     A
C451   H297    1.084   1_655 S
C452   H470    1.084   .     S
C452   C454    1.396   .     A
C452   C460    1.404   .     A
C453   H296    1.083   1_655 S
C455   H486    1.079   .     S
C455   C457    1.407   .     A
C456   H485    1.077   .     S
C456   C458    1.402   .     A
C457   C459    1.413   .     A
C457   C461    1.419   .     A
C458   C462    1.419   .     A
C458   C460    1.413   .     A
C459   C1209   1.393   .     S
C460   C1210   1.394   1_554 S
C461   C1236   1.421   .     S
C462   C1235   1.421   1_554 S
Cu463  N475    2.013   .     S
Cu463  O480    1.960   .     S
Cu463  O481    1.923   .     S
Cu463  O477    1.965   .     S
Cu463  O484    1.915   .     S
Cu464  N476    2.013   .     S
Cu464  O478    1.965   .     S
Cu464  O479    1.960   .     S
Cu464  O482    1.923   .     S
Cu464  O483    1.915   .     S
Cu464  Cu291   2.679   1_655 S
H467   C282    1.081   1_655 S
O479   C259    1.292   1_655 S
O482   C276    1.297   1_655 S
C487   H492    1.100   .     S
C487   H493    1.110   .     S
C487   C488    1.529   .     S
C488   H490    1.111   .     S
C488   H491    1.109   .     S
C488   H489    1.111   .     S
C494   H500    1.112   .     S
C494   H499    1.102   .     S
C494   C495    1.530   .     S
C495   H497    1.110   .     S
C495   H498    1.108   .     S
C495   H496    1.111   .     S
C501   H507    1.109   .     S
C501   C502    1.527   .     S
C501   H506    1.108   .     S
C502   H505    1.111   .     S
C502   H504    1.110   .     S
C502   H503    1.110   .     S
C508   H513    1.112   .     S
C508   C509    1.527   .     S
C508   H514    1.108   .     S
C509   H511    1.111   .     S
C509   H512    1.111   .     S
C509   H510    1.110   .     S
C517   C528    1.449   .     S
C517   O563    1.290   .     A
C517   O737    1.292   1_455 S
C518   C527    1.449   .     S
C518   O564    1.289   .     A
C518   O652    1.293   .     S
C519   C573    1.529   .     S
C519   C521    1.401   .     A
C519   C548    1.433   .     A
C520   C522    1.403   .     A
C520   C580    1.525   .     S
C520   C547    1.430   .     A
C521   H551    1.082   .     S
C521   C1319   1.393   1_554 S
C522   H552    1.085   .     S
C522   C1320   1.394   .     S
C523   H557    1.085   .     S
C523   C614    1.398   .     S
C524   H558    1.085   .     S
C524   C10     1.391   1_565 S
C524   C699    1.399   1_455 S
C525   C527    1.413   .     A
C525   C587    1.514   .     S
C525   C7      1.389   1_565 S
C526   C594    1.516   .     S
C526   C528    1.414   .     A
C527   C610    1.399   .     S
C528   C695    1.398   1_455 S
C529   N562    1.367   .     A
C529   C531    1.416   .     A
C529   H601    1.081   .     S
C530   C532    1.416   .     A
C530   N561    1.367   .     A
C530   H602    1.081   .     S
C531   N561    1.367   .     A
C531   H559    1.082   .     S
C532   H560    1.082   .     S
C532   N562    1.367   .     A
C533   O569    1.299   .     A
C533   C535    1.474   .     S
C533   O653    1.296   .     S
C534   C536    1.470   .     S
C534   O570    1.296   .     A
C534   O740    1.297   1_455 S
C535   C539    1.403   .     A
C535   C541    1.403   .     A
C536   C540    1.400   .     A
C536   C542    1.397   .     A
C537   C539    1.393   .     A
C537   C545    1.402   .     A
C537   H641    1.084   .     S
C538   H556    1.084   .     S
C538   C540    1.396   .     A
C538   C546    1.404   .     A
C539   H640    1.083   .     S
C540   H725    1.081   1_455 S
C541   H572    1.079   .     S
C541   C543    1.407   .     A
C542   H571    1.077   .     S
C542   C544    1.402   .     A
C543   C545    1.413   .     A
C543   C547    1.419   .     A
C544   C548    1.419   .     A
C544   C546    1.413   .     A
C545   C1295   1.393   .     S
C546   C1296   1.394   1_554 S
C547   C1322   1.421   .     S
C548   C1321   1.421   1_554 S
Cu549  N561    2.013   .     S
Cu549  O566    1.960   .     S
Cu549  O567    1.923   .     S
Cu549  O563    1.965   .     S
Cu549  O570    1.915   .     S
Cu549  Cu722   2.679   1_455 S
Cu550  N562    2.013   .     S
Cu550  O564    1.965   .     S
Cu550  O565    1.960   .     S
Cu550  O568    1.923   .     S
Cu550  O569    1.915   .     S
Cu550  Cu635   2.679   .     S
H553   C626    1.081   .     S
H554   C711    1.083   1_455 S
H555   C709    1.084   1_455 S
O565   C603    1.292   .     S
O566   C690    1.293   1_455 S
O567   C705    1.296   1_455 S
O568   C620    1.297   .     S
C573   H578    1.100   .     S
C573   H579    1.110   .     S
C573   C574    1.529   .     S
C574   H576    1.111   .     S
C574   H577    1.109   .     S
C574   H575    1.111   .     S
C580   H586    1.112   .     S
C580   H585    1.102   .     S
C580   C581    1.530   .     S
C581   H583    1.110   .     S
C581   H584    1.108   .     S
C581   H582    1.111   .     S
C587   H593    1.109   .     S
C587   C588    1.527   .     S
C587   H592    1.108   .     S
C588   H591    1.111   .     S
C588   H590    1.110   .     S
C588   H589    1.110   .     S
C594   H599    1.112   .     S
C594   C595    1.527   .     S
C594   H600    1.108   .     S
C595   H597    1.111   .     S
C595   H598    1.111   .     S
C595   H596    1.110   .     S
C603   C614    1.449   .     S
C603   O649    1.290   .     A
C604   C613    1.449   .     S
C604   O650    1.289   .     A
C604   O738    1.293   .     S
C605   C659    1.529   .     S
C605   C607    1.401   .     A
C605   C634    1.433   .     A
C606   C608    1.403   .     A
C606   C666    1.525   .     S
C606   C633    1.430   .     A
C607   H637    1.082   .     S
C607   C1405   1.393   1_554 S
C608   H638    1.085   .     S
C608   C1406   1.394   .     S
C609   H643    1.085   .     S
C609   C700    1.398   .     S
C610   H644    1.085   .     S
C610   C96     1.391   1_565 S
C611   C613    1.413   .     A
C611   C673    1.514   .     S
C611   C93     1.389   1_565 S
C612   C680    1.516   .     S
C612   C614    1.414   .     A
C613   C696    1.399   .     S
C615   N648    1.367   .     A
C615   C617    1.416   .     A
C615   H687    1.081   .     S
C616   C618    1.416   .     A
C616   N647    1.367   .     A
C616   H688    1.081   .     S
C617   N647    1.367   .     A
C617   H645    1.082   .     S
C618   H646    1.082   .     S
C618   N648    1.367   .     A
C619   O655    1.299   .     A
C619   C621    1.474   .     S
C619   O739    1.296   .     S
C620   C622    1.470   .     S
C620   O656    1.296   .     A
C621   C625    1.403   .     A
C621   C627    1.403   .     A
C622   C626    1.400   .     A
C622   C628    1.397   .     A
C623   C625    1.393   .     A
C623   C631    1.402   .     A
C623   H727    1.084   .     S
C624   H642    1.084   .     S
C624   C626    1.396   .     A
C624   C632    1.404   .     A
C625   H726    1.083   .     S
C627   H658    1.079   .     S
C627   C629    1.407   .     A
C628   H657    1.077   .     S
C628   C630    1.402   .     A
C629   C631    1.413   .     A
C629   C633    1.419   .     A
C630   C634    1.419   .     A
C630   C632    1.413   .     A
C631   C1381   1.393   .     S
C632   C1382   1.394   1_554 S
C633   C1408   1.421   .     S
C634   C1407   1.421   1_554 S
Cu635  N647    2.013   .     S
Cu635  O652    1.960   .     S
Cu635  O653    1.923   .     S
Cu635  O649    1.965   .     S
Cu635  O656    1.915   .     S
Cu636  N648    2.013   .     S
Cu636  O650    1.965   .     S
Cu636  O651    1.960   .     S
Cu636  O654    1.923   .     S
Cu636  O655    1.915   .     S
Cu636  Cu721   2.679   .     S
H639   C712    1.081   .     S
O651   C689    1.292   .     S
O654   C706    1.297   .     S
C659   H664    1.100   .     S
C659   H665    1.110   .     S
C659   C660    1.529   .     S
C660   H662    1.111   .     S
C660   H663    1.109   .     S
C660   H661    1.111   .     S
C666   H672    1.112   .     S
C666   H671    1.102   .     S
C666   C667    1.530   .     S
C667   H669    1.110   .     S
C667   H670    1.108   .     S
C667   H668    1.111   .     S
C673   H679    1.109   .     S
C673   C674    1.527   .     S
C673   H678    1.108   .     S
C674   H677    1.111   .     S
C674   H676    1.110   .     S
C674   H675    1.110   .     S
C680   H685    1.112   .     S
C680   C681    1.527   .     S
C680   H686    1.108   .     S
C681   H683    1.111   .     S
C681   H684    1.111   .     S
C681   H682    1.110   .     S
C689   C700    1.449   .     S
C689   O735    1.290   .     A
C690   C699    1.449   .     S
C690   O736    1.289   .     A
C690   O566    1.293   1_655 S
C691   C745    1.529   .     S
C691   C693    1.401   .     A
C691   C720    1.433   .     A
C692   C694    1.403   .     A
C692   C752    1.525   .     S
C692   C719    1.430   .     A
C693   H723    1.082   .     S
C693   C1491   1.393   1_554 S
C694   H724    1.085   .     S
C694   C1492   1.394   .     S
C695   H729    1.085   .     S
C695   C528    1.398   1_655 S
C696   H730    1.085   .     S
C696   C182    1.391   1_565 S
C697   C699    1.413   .     A
C697   C759    1.514   .     S
C697   C179    1.389   1_565 S
C698   C766    1.516   .     S
C698   C700    1.414   .     A
C699   C524    1.399   1_655 S
C701   N734    1.367   .     A
C701   C703    1.416   .     A
C701   H773    1.081   .     S
C702   C704    1.416   .     A
C702   N733    1.367   .     A
C702   H774    1.081   .     S
C703   N733    1.367   .     A
C703   H731    1.082   .     S
C704   H732    1.082   .     S
C704   N734    1.367   .     A
C705   O741    1.299   .     A
C705   C707    1.474   .     S
C705   O567    1.296   1_655 S
C706   C708    1.470   .     S
C706   O742    1.296   .     A
C707   C711    1.403   .     A
C707   C713    1.403   .     A
C708   C712    1.400   .     A
C708   C714    1.397   .     A
C709   C711    1.393   .     A
C709   C717    1.402   .     A
C709   H555    1.084   1_655 S
C710   H728    1.084   .     S
C710   C712    1.396   .     A
C710   C718    1.404   .     A
C711   H554    1.083   1_655 S
C713   H744    1.079   .     S
C713   C715    1.407   .     A
C714   H743    1.077   .     S
C714   C716    1.402   .     A
C715   C717    1.413   .     A
C715   C719    1.419   .     A
C716   C720    1.419   .     A
C716   C718    1.413   .     A
C717   C1467   1.393   .     S
C718   C1468   1.394   1_554 S
C719   C1494   1.421   .     S
C720   C1493   1.421   1_554 S
Cu721  N733    2.013   .     S
Cu721  O738    1.960   .     S
Cu721  O739    1.923   .     S
Cu721  O735    1.965   .     S
Cu721  O742    1.915   .     S
Cu722  N734    2.013   .     S
Cu722  O736    1.965   .     S
Cu722  O737    1.960   .     S
Cu722  O740    1.923   .     S
Cu722  O741    1.915   .     S
Cu722  Cu549   2.679   1_655 S
H725   C540    1.081   1_655 S
O737   C517    1.292   1_655 S
O740   C534    1.297   1_655 S
C745   H750    1.100   .     S
C745   H751    1.110   .     S
C745   C746    1.529   .     S
C746   H748    1.111   .     S
C746   H749    1.109   .     S
C746   H747    1.111   .     S
C752   H758    1.112   .     S
C752   H757    1.102   .     S
C752   C753    1.530   .     S
C753   H755    1.110   .     S
C753   H756    1.108   .     S
C753   H754    1.111   .     S
C759   H765    1.109   .     S
C759   C760    1.527   .     S
C759   H764    1.108   .     S
C760   H763    1.111   .     S
C760   H762    1.110   .     S
C760   H761    1.110   .     S
C766   H771    1.112   .     S
C766   C767    1.527   .     S
C766   H772    1.108   .     S
C767   H769    1.111   .     S
C767   H770    1.111   .     S
C767   H768    1.110   .     S
C775   C786    1.449   .     S
C775   O821    1.290   .     A
C775   O995    1.292   1_455 S
C776   C785    1.449   .     S
C776   O822    1.289   .     A
C776   O910    1.293   .     S
C777   C831    1.529   .     S
C777   C779    1.401   .     A
C777   C806    1.433   .     A
C778   C780    1.403   .     A
C778   C838    1.525   .     S
C778   C805    1.430   .     A
C779   H809    1.082   .     S
C780   H810    1.085   .     S
C780   C30     1.394   1_556 S
C781   H815    1.085   .     S
C781   C1299   1.389   1_545 S
C781   C872    1.398   .     S
C782   H816    1.085   .     S
C782   C1042   1.391   .     S
C782   C957    1.399   1_455 S
C783   C785    1.413   .     A
C783   C845    1.514   .     S
C783   C1039   1.389   .     S
C784   C852    1.516   .     S
C784   C786    1.414   .     A
C784   C1298   1.391   1_545 S
C785   C868    1.399   .     S
C786   C953    1.398   1_455 S
C787   N820    1.367   .     A
C787   C789    1.416   .     A
C787   H859    1.081   .     S
C788   C790    1.416   .     A
C788   N819    1.367   .     A
C788   H860    1.081   .     S
C789   N819    1.367   .     A
C789   H817    1.082   .     S
C790   H818    1.082   .     S
C790   N820    1.367   .     A
C791   O827    1.299   .     A
C791   C793    1.474   .     S
C791   O911    1.296   .     S
C792   C794    1.470   .     S
C792   O828    1.296   .     A
C792   O998    1.297   1_455 S
C793   C797    1.403   .     A
C793   C799    1.403   .     A
C794   C798    1.400   .     A
C794   C800    1.397   .     A
C795   C797    1.393   .     A
C795   C803    1.402   .     A
C795   H899    1.084   .     S
C796   H814    1.084   .     S
C796   C798    1.396   .     A
C796   C804    1.404   .     A
C797   H898    1.083   .     S
C798   H983    1.081   1_455 S
C799   H830    1.079   .     S
C799   C801    1.407   .     A
C800   H829    1.077   .     S
C800   C802    1.402   .     A
C801   C803    1.413   .     A
C801   C805    1.419   .     A
C802   C806    1.419   .     A
C802   C804    1.413   .     A
C803   C5      1.393   1_556 S
C805   C32     1.421   1_556 S
Cu807  N819    2.013   .     S
Cu807  O824    1.960   .     S
Cu807  O825    1.923   .     S
Cu807  O821    1.965   .     S
Cu807  O828    1.915   .     S
Cu807  Cu980   2.679   1_455 S
Cu808  N820    2.013   .     S
Cu808  O822    1.965   .     S
Cu808  O823    1.960   .     S
Cu808  O826    1.923   .     S
Cu808  O827    1.915   .     S
Cu808  Cu893   2.679   .     S
H811   C884    1.081   .     S
H812   C969    1.083   1_455 S
H813   C967    1.084   1_455 S
O823   C861    1.292   .     S
O824   C948    1.293   1_455 S
O825   C963    1.296   1_455 S
O826   C878    1.297   .     S
C831   H836    1.100   .     S
C831   H837    1.110   .     S
C831   C832    1.529   .     S
C832   H834    1.111   .     S
C832   H835    1.109   .     S
C832   H833    1.111   .     S
C838   H844    1.112   .     S
C838   H843    1.102   .     S
C838   C839    1.530   .     S
C839   H841    1.110   .     S
C839   H842    1.108   .     S
C839   H840    1.111   .     S
C845   H851    1.109   .     S
C845   C846    1.527   .     S
C845   H850    1.108   .     S
C846   H849    1.111   .     S
C846   H848    1.110   .     S
C846   H847    1.110   .     S
C852   H857    1.112   .     S
C852   C853    1.527   .     S
C852   H858    1.108   .     S
C853   H855    1.111   .     S
C853   H856    1.111   .     S
C853   H854    1.110   .     S
C861   C872    1.449   .     S
C861   O907    1.290   .     A
C862   C871    1.449   .     S
C862   O908    1.289   .     A
C862   O996    1.293   .     S
C863   C917    1.529   .     S
C863   C865    1.401   .     A
C863   C892    1.433   .     A
C864   C866    1.403   .     A
C864   C924    1.525   .     S
C864   C891    1.430   .     A
C865   H895    1.082   .     S
C866   H896    1.085   .     S
C866   C116    1.394   1_556 S
C867   H901    1.085   .     S
C867   C1385   1.389   1_545 S
C867   C958    1.398   .     S
C868   H902    1.085   .     S
C868   C1128   1.391   .     S
C869   C871    1.413   .     A
C869   C931    1.514   .     S
C869   C1125   1.389   .     S
C870   C938    1.516   .     S
C870   C872    1.414   .     A
C870   C1384   1.391   1_545 S
C871   C954    1.399   .     S
C873   N906    1.367   .     A
C873   C875    1.416   .     A
C873   H945    1.081   .     S
C874   C876    1.416   .     A
C874   N905    1.367   .     A
C874   H946    1.081   .     S
C875   N905    1.367   .     A
C875   H903    1.082   .     S
C876   H904    1.082   .     S
C876   N906    1.367   .     A
C877   O913    1.299   .     A
C877   C879    1.474   .     S
C877   O997    1.296   .     S
C878   C880    1.470   .     S
C878   O914    1.296   .     A
C879   C883    1.403   .     A
C879   C885    1.403   .     A
C880   C884    1.400   .     A
C880   C886    1.397   .     A
C881   C883    1.393   .     A
C881   C889    1.402   .     A
C881   H985    1.084   .     S
C882   H900    1.084   .     S
C882   C884    1.396   .     A
C882   C890    1.404   .     A
C883   H984    1.083   .     S
C885   H916    1.079   .     S
C885   C887    1.407   .     A
C886   H915    1.077   .     S
C886   C888    1.402   .     A
C887   C889    1.413   .     A
C887   C891    1.419   .     A
C888   C892    1.419   .     A
C888   C890    1.413   .     A
C889   C91     1.393   1_556 S
C891   C118    1.421   1_556 S
Cu893  N905    2.013   .     S
Cu893  O910    1.960   .     S
Cu893  O911    1.923   .     S
Cu893  O907    1.965   .     S
Cu893  O914    1.915   .     S
Cu894  N906    2.013   .     S
Cu894  O908    1.965   .     S
Cu894  O909    1.960   .     S
Cu894  O912    1.923   .     S
Cu894  O913    1.915   .     S
Cu894  Cu979   2.679   .     S
H897   C970    1.081   .     S
O909   C947    1.292   .     S
O912   C964    1.297   .     S
C917   H922    1.100   .     S
C917   H923    1.110   .     S
C917   C918    1.529   .     S
C918   H920    1.111   .     S
C918   H921    1.109   .     S
C918   H919    1.111   .     S
C924   H930    1.112   .     S
C924   H929    1.102   .     S
C924   C925    1.530   .     S
C925   H927    1.110   .     S
C925   H928    1.108   .     S
C925   H926    1.111   .     S
C931   H937    1.109   .     S
C931   C932    1.527   .     S
C931   H936    1.108   .     S
C932   H935    1.111   .     S
C932   H934    1.110   .     S
C932   H933    1.110   .     S
C938   H943    1.112   .     S
C938   C939    1.527   .     S
C938   H944    1.108   .     S
C939   H941    1.111   .     S
C939   H942    1.111   .     S
C939   H940    1.110   .     S
C947   C958    1.449   .     S
C947   O993    1.290   .     A
C948   C957    1.449   .     S
C948   O994    1.289   .     A
C948   O824    1.293   1_655 S
C949   C1003   1.529   .     S
C949   C951    1.401   .     A
C949   C978    1.433   .     A
C950   C952    1.403   .     A
C950   C1010   1.525   .     S
C950   C977    1.430   .     A
C951   H981    1.082   .     S
C952   H982    1.085   .     S
C952   C202    1.394   1_556 S
C953   H987    1.085   .     S
C953   C1471   1.389   1_545 S
C953   C786    1.398   1_655 S
C954   H988    1.085   .     S
C954   C1214   1.391   .     S
C955   C957    1.413   .     A
C955   C1017   1.514   .     S
C955   C1211   1.389   .     S
C956   C1024   1.516   .     S
C956   C958    1.414   .     A
C956   C1470   1.391   1_545 S
C957   C782    1.399   1_655 S
C959   N992    1.367   .     A
C959   C961    1.416   .     A
C959   H1031   1.081   .     S
C960   C962    1.416   .     A
C960   N991    1.367   .     A
C960   H1032   1.081   .     S
C961   N991    1.367   .     A
C961   H989    1.082   .     S
C962   H990    1.082   .     S
C962   N992    1.367   .     A
C963   O999    1.299   .     A
C963   C965    1.474   .     S
C963   O825    1.296   1_655 S
C964   C966    1.470   .     S
C964   O1000   1.296   .     A
C965   C969    1.403   .     A
C965   C971    1.403   .     A
C966   C970    1.400   .     A
C966   C972    1.397   .     A
C967   C969    1.393   .     A
C967   C975    1.402   .     A
C967   H813    1.084   1_655 S
C968   H986    1.084   .     S
C968   C970    1.396   .     A
C968   C976    1.404   .     A
C969   H812    1.083   1_655 S
C971   H1002   1.079   .     S
C971   C973    1.407   .     A
C972   H1001   1.077   .     S
C972   C974    1.402   .     A
C973   C975    1.413   .     A
C973   C977    1.419   .     A
C974   C978    1.419   .     A
C974   C976    1.413   .     A
C975   C177    1.393   1_556 S
C977   C204    1.421   1_556 S
Cu979  N991    2.013   .     S
Cu979  O996    1.960   .     S
Cu979  O997    1.923   .     S
Cu979  O993    1.965   .     S
Cu979  O1000   1.915   .     S
Cu980  N992    2.013   .     S
Cu980  O994    1.965   .     S
Cu980  O995    1.960   .     S
Cu980  O998    1.923   .     S
Cu980  O999    1.915   .     S
Cu980  Cu807   2.679   1_655 S
H983   C798    1.081   1_655 S
O995   C775    1.292   1_655 S
O998   C792    1.297   1_655 S
C1003  H1008   1.100   .     S
C1003  H1009   1.110   .     S
C1003  C1004   1.529   .     S
C1004  H1006   1.111   .     S
C1004  H1007   1.109   .     S
C1004  H1005   1.111   .     S
C1010  H1016   1.112   .     S
C1010  H1015   1.102   .     S
C1010  C1011   1.530   .     S
C1011  H1013   1.110   .     S
C1011  H1014   1.108   .     S
C1011  H1012   1.111   .     S
C1017  H1023   1.109   .     S
C1017  C1018   1.527   .     S
C1017  H1022   1.108   .     S
C1018  H1021   1.111   .     S
C1018  H1020   1.110   .     S
C1018  H1019   1.110   .     S
C1024  H1029   1.112   .     S
C1024  C1025   1.527   .     S
C1024  H1030   1.108   .     S
C1025  H1027   1.111   .     S
C1025  H1028   1.111   .     S
C1025  H1026   1.110   .     S
C1033  C1044   1.449   .     S
C1033  O1079   1.290   .     A
C1033  O1253   1.292   1_455 S
C1034  C1043   1.449   .     S
C1034  O1080   1.289   .     A
C1034  O1168   1.293   .     S
C1035  C1089   1.529   .     S
C1035  C1037   1.401   .     A
C1035  C1064   1.433   .     A
C1036  C1038   1.403   .     A
C1036  C1096   1.525   .     S
C1036  C1063   1.430   .     A
C1037  H1067   1.082   .     S
C1038  H1068   1.085   .     S
C1038  C288    1.394   1_556 S
C1039  H1073   1.085   .     S
C1039  C1130   1.398   .     S
C1040  H1074   1.085   .     S
C1040  C1300   1.391   .     S
C1040  C1215   1.399   1_455 S
C1041  C1043   1.413   .     A
C1041  C1103   1.514   .     S
C1041  C1297   1.389   .     S
C1042  C1110   1.516   .     S
C1042  C1044   1.414   .     A
C1043  C1126   1.399   .     S
C1044  C1211   1.398   1_455 S
C1045  N1078   1.367   .     A
C1045  C1047   1.416   .     A
C1045  H1117   1.081   .     S
C1046  C1048   1.416   .     A
C1046  N1077   1.367   .     A
C1046  H1118   1.081   .     S
C1047  N1077   1.367   .     A
C1047  H1075   1.082   .     S
C1048  H1076   1.082   .     S
C1048  N1078   1.367   .     A
C1049  O1085   1.299   .     A
C1049  C1051   1.474   .     S
C1049  O1169   1.296   .     S
C1050  C1052   1.470   .     S
C1050  O1086   1.296   .     A
C1050  O1256   1.297   1_455 S
C1051  C1055   1.403   .     A
C1051  C1057   1.403   .     A
C1052  C1056   1.400   .     A
C1052  C1058   1.397   .     A
C1053  C1055   1.393   .     A
C1053  C1061   1.402   .     A
C1053  H1157   1.084   .     S
C1054  H1072   1.084   .     S
C1054  C1056   1.396   .     A
C1054  C1062   1.404   .     A
C1055  H1156   1.083   .     S
C1056  H1241   1.081   1_455 S
C1057  H1088   1.079   .     S
C1057  C1059   1.407   .     A
C1058  H1087   1.077   .     S
C1058  C1060   1.402   .     A
C1059  C1061   1.413   .     A
C1059  C1063   1.419   .     A
C1060  C1064   1.419   .     A
C1060  C1062   1.413   .     A
C1061  C263    1.393   1_556 S
C1063  C290    1.421   1_556 S
Cu1065 N1077   2.013   .     S
Cu1065 O1082   1.960   .     S
Cu1065 O1083   1.923   .     S
Cu1065 O1079   1.965   .     S
Cu1065 O1086   1.915   .     S
Cu1065 Cu1238  2.679   1_455 S
Cu1066 N1078   2.013   .     S
Cu1066 O1080   1.965   .     S
Cu1066 O1081   1.960   .     S
Cu1066 O1084   1.923   .     S
Cu1066 O1085   1.915   .     S
Cu1066 Cu1151  2.679   .     S
H1069  C1142   1.081   .     S
H1070  C1227   1.083   1_455 S
H1071  C1225   1.084   1_455 S
O1081  C1119   1.292   .     S
O1082  C1206   1.293   1_455 S
O1083  C1221   1.296   1_455 S
O1084  C1136   1.297   .     S
C1089  H1094   1.100   .     S
C1089  H1095   1.110   .     S
C1089  C1090   1.529   .     S
C1090  H1092   1.111   .     S
C1090  H1093   1.109   .     S
C1090  H1091   1.111   .     S
C1096  H1102   1.112   .     S
C1096  H1101   1.102   .     S
C1096  C1097   1.530   .     S
C1097  H1099   1.110   .     S
C1097  H1100   1.108   .     S
C1097  H1098   1.111   .     S
C1103  H1109   1.109   .     S
C1103  C1104   1.527   .     S
C1103  H1108   1.108   .     S
C1104  H1107   1.111   .     S
C1104  H1106   1.110   .     S
C1104  H1105   1.110   .     S
C1110  H1115   1.112   .     S
C1110  C1111   1.527   .     S
C1110  H1116   1.108   .     S
C1111  H1113   1.111   .     S
C1111  H1114   1.111   .     S
C1111  H1112   1.110   .     S
C1119  C1130   1.449   .     S
C1119  O1165   1.290   .     A
C1120  C1129   1.449   .     S
C1120  O1166   1.289   .     A
C1120  O1254   1.293   .     S
C1121  C1175   1.529   .     S
C1121  C1123   1.401   .     A
C1121  C1150   1.433   .     A
C1122  C1124   1.403   .     A
C1122  C1182   1.525   .     S
C1122  C1149   1.430   .     A
C1123  H1153   1.082   .     S
C1124  H1154   1.085   .     S
C1124  C374    1.394   1_556 S
C1125  H1159   1.085   .     S
C1125  C1216   1.398   .     S
C1126  H1160   1.085   .     S
C1126  C1386   1.391   .     S
C1127  C1129   1.413   .     A
C1127  C1189   1.514   .     S
C1127  C1383   1.389   .     S
C1128  C1196   1.516   .     S
C1128  C1130   1.414   .     A
C1129  C1212   1.399   .     S
C1131  N1164   1.367   .     A
C1131  C1133   1.416   .     A
C1131  H1203   1.081   .     S
C1132  C1134   1.416   .     A
C1132  N1163   1.367   .     A
C1132  H1204   1.081   .     S
C1133  N1163   1.367   .     A
C1133  H1161   1.082   .     S
C1134  H1162   1.082   .     S
C1134  N1164   1.367   .     A
C1135  O1171   1.299   .     A
C1135  C1137   1.474   .     S
C1135  O1255   1.296   .     S
C1136  C1138   1.470   .     S
C1136  O1172   1.296   .     A
C1137  C1141   1.403   .     A
C1137  C1143   1.403   .     A
C1138  C1142   1.400   .     A
C1138  C1144   1.397   .     A
C1139  C1141   1.393   .     A
C1139  C1147   1.402   .     A
C1139  H1243   1.084   .     S
C1140  H1158   1.084   .     S
C1140  C1142   1.396   .     A
C1140  C1148   1.404   .     A
C1141  H1242   1.083   .     S
C1143  H1174   1.079   .     S
C1143  C1145   1.407   .     A
C1144  H1173   1.077   .     S
C1144  C1146   1.402   .     A
C1145  C1147   1.413   .     A
C1145  C1149   1.419   .     A
C1146  C1150   1.419   .     A
C1146  C1148   1.413   .     A
C1147  C349    1.393   1_556 S
C1149  C376    1.421   1_556 S
Cu1151 N1163   2.013   .     S
Cu1151 O1168   1.960   .     S
Cu1151 O1169   1.923   .     S
Cu1151 O1165   1.965   .     S
Cu1151 O1172   1.915   .     S
Cu1152 N1164   2.013   .     S
Cu1152 O1166   1.965   .     S
Cu1152 O1167   1.960   .     S
Cu1152 O1170   1.923   .     S
Cu1152 O1171   1.915   .     S
Cu1152 Cu1237  2.679   .     S
H1155  C1228   1.081   .     S
O1167  C1205   1.292   .     S
O1170  C1222   1.297   .     S
C1175  H1180   1.100   .     S
C1175  H1181   1.110   .     S
C1175  C1176   1.529   .     S
C1176  H1178   1.111   .     S
C1176  H1179   1.109   .     S
C1176  H1177   1.111   .     S
C1182  H1188   1.112   .     S
C1182  H1187   1.102   .     S
C1182  C1183   1.530   .     S
C1183  H1185   1.110   .     S
C1183  H1186   1.108   .     S
C1183  H1184   1.111   .     S
C1189  H1195   1.109   .     S
C1189  C1190   1.527   .     S
C1189  H1194   1.108   .     S
C1190  H1193   1.111   .     S
C1190  H1192   1.110   .     S
C1190  H1191   1.110   .     S
C1196  H1201   1.112   .     S
C1196  C1197   1.527   .     S
C1196  H1202   1.108   .     S
C1197  H1199   1.111   .     S
C1197  H1200   1.111   .     S
C1197  H1198   1.110   .     S
C1205  C1216   1.449   .     S
C1205  O1251   1.290   .     A
C1206  C1215   1.449   .     S
C1206  O1252   1.289   .     A
C1206  O1082   1.293   1_655 S
C1207  C1261   1.529   .     S
C1207  C1209   1.401   .     A
C1207  C1236   1.433   .     A
C1208  C1210   1.403   .     A
C1208  C1268   1.525   .     S
C1208  C1235   1.430   .     A
C1209  H1239   1.082   .     S
C1210  H1240   1.085   .     S
C1210  C460    1.394   1_556 S
C1211  H1245   1.085   .     S
C1211  C1044   1.398   1_655 S
C1212  H1246   1.085   .     S
C1212  C1472   1.391   .     S
C1213  C1215   1.413   .     A
C1213  C1275   1.514   .     S
C1213  C1469   1.389   .     S
C1214  C1282   1.516   .     S
C1214  C1216   1.414   .     A
C1215  C1040   1.399   1_655 S
C1217  N1250   1.367   .     A
C1217  C1219   1.416   .     A
C1217  H1289   1.081   .     S
C1218  C1220   1.416   .     A
C1218  N1249   1.367   .     A
C1218  H1290   1.081   .     S
C1219  N1249   1.367   .     A
C1219  H1247   1.082   .     S
C1220  H1248   1.082   .     S
C1220  N1250   1.367   .     A
C1221  O1257   1.299   .     A
C1221  C1223   1.474   .     S
C1221  O1083   1.296   1_655 S
C1222  C1224   1.470   .     S
C1222  O1258   1.296   .     A
C1223  C1227   1.403   .     A
C1223  C1229   1.403   .     A
C1224  C1228   1.400   .     A
C1224  C1230   1.397   .     A
C1225  C1227   1.393   .     A
C1225  C1233   1.402   .     A
C1225  H1071   1.084   1_655 S
C1226  H1244   1.084   .     S
C1226  C1228   1.396   .     A
C1226  C1234   1.404   .     A
C1227  H1070   1.083   1_655 S
C1229  H1260   1.079   .     S
C1229  C1231   1.407   .     A
C1230  H1259   1.077   .     S
C1230  C1232   1.402   .     A
C1231  C1233   1.413   .     A
C1231  C1235   1.419   .     A
C1232  C1236   1.419   .     A
C1232  C1234   1.413   .     A
C1233  C435    1.393   1_556 S
C1235  C462    1.421   1_556 S
Cu1237 N1249   2.013   .     S
Cu1237 O1254   1.960   .     S
Cu1237 O1255   1.923   .     S
Cu1237 O1251   1.965   .     S
Cu1237 O1258   1.915   .     S
Cu1238 N1250   2.013   .     S
Cu1238 O1252   1.965   .     S
Cu1238 O1253   1.960   .     S
Cu1238 O1256   1.923   .     S
Cu1238 O1257   1.915   .     S
Cu1238 Cu1065  2.679   1_655 S
H1241  C1056   1.081   1_655 S
O1253  C1033   1.292   1_655 S
O1256  C1050   1.297   1_655 S
C1261  H1266   1.100   .     S
C1261  H1267   1.110   .     S
C1261  C1262   1.529   .     S
C1262  H1264   1.111   .     S
C1262  H1265   1.109   .     S
C1262  H1263   1.111   .     S
C1268  H1274   1.112   .     S
C1268  H1273   1.102   .     S
C1268  C1269   1.530   .     S
C1269  H1271   1.110   .     S
C1269  H1272   1.108   .     S
C1269  H1270   1.111   .     S
C1275  H1281   1.109   .     S
C1275  C1276   1.527   .     S
C1275  H1280   1.108   .     S
C1276  H1279   1.111   .     S
C1276  H1278   1.110   .     S
C1276  H1277   1.110   .     S
C1282  H1287   1.112   .     S
C1282  C1283   1.527   .     S
C1282  H1288   1.108   .     S
C1283  H1285   1.111   .     S
C1283  H1286   1.111   .     S
C1283  H1284   1.110   .     S
C1291  C1302   1.449   .     S
C1291  O1337   1.290   .     A
C1291  O1511   1.292   1_455 S
C1292  C1301   1.449   .     S
C1292  O1338   1.289   .     A
C1292  O1426   1.293   .     S
C1293  C1347   1.529   .     S
C1293  C1295   1.401   .     A
C1293  C1322   1.433   .     A
C1294  C1296   1.403   .     A
C1294  C1354   1.525   .     S
C1294  C1321   1.430   .     A
C1295  H1325   1.082   .     S
C1296  H1326   1.085   .     S
C1296  C546    1.394   1_556 S
C1297  H1331   1.085   .     S
C1297  C1388   1.398   .     S
C1298  H1332   1.085   .     S
C1298  C784    1.391   1_565 S
C1298  C1473   1.399   1_455 S
C1299  C1301   1.413   .     A
C1299  C1361   1.514   .     S
C1299  C781    1.389   1_565 S
C1300  C1368   1.516   .     S
C1300  C1302   1.414   .     A
C1301  C1384   1.399   .     S
C1302  C1469   1.398   1_455 S
C1303  N1336   1.367   .     A
C1303  C1305   1.416   .     A
C1303  H1375   1.081   .     S
C1304  C1306   1.416   .     A
C1304  N1335   1.367   .     A
C1304  H1376   1.081   .     S
C1305  N1335   1.367   .     A
C1305  H1333   1.082   .     S
C1306  H1334   1.082   .     S
C1306  N1336   1.367   .     A
C1307  O1343   1.299   .     A
C1307  C1309   1.474   .     S
C1307  O1427   1.296   .     S
C1308  C1310   1.470   .     S
C1308  O1344   1.296   .     A
C1308  O1514   1.297   1_455 S
C1309  C1313   1.403   .     A
C1309  C1315   1.403   .     A
C1310  C1314   1.400   .     A
C1310  C1316   1.397   .     A
C1311  C1313   1.393   .     A
C1311  C1319   1.402   .     A
C1311  H1415   1.084   .     S
C1312  H1330   1.084   .     S
C1312  C1314   1.396   .     A
C1312  C1320   1.404   .     A
C1313  H1414   1.083   .     S
C1314  H1499   1.081   1_455 S
C1315  H1346   1.079   .     S
C1315  C1317   1.407   .     A
C1316  H1345   1.077   .     S
C1316  C1318   1.402   .     A
C1317  C1319   1.413   .     A
C1317  C1321   1.419   .     A
C1318  C1322   1.419   .     A
C1318  C1320   1.413   .     A
C1319  C521    1.393   1_556 S
C1321  C548    1.421   1_556 S
Cu1323 N1335   2.013   .     S
Cu1323 O1340   1.960   .     S
Cu1323 O1341   1.923   .     S
Cu1323 O1337   1.965   .     S
Cu1323 O1344   1.915   .     S
Cu1323 Cu1496  2.679   1_455 S
Cu1324 N1336   2.013   .     S
Cu1324 O1338   1.965   .     S
Cu1324 O1339   1.960   .     S
Cu1324 O1342   1.923   .     S
Cu1324 O1343   1.915   .     S
Cu1324 Cu1409  2.679   .     S
H1327  C1400   1.081   .     S
H1328  C1485   1.083   1_455 S
H1329  C1483   1.084   1_455 S
O1339  C1377   1.292   .     S
O1340  C1464   1.293   1_455 S
O1341  C1479   1.296   1_455 S
O1342  C1394   1.297   .     S
C1347  H1352   1.100   .     S
C1347  H1353   1.110   .     S
C1347  C1348   1.529   .     S
C1348  H1350   1.111   .     S
C1348  H1351   1.109   .     S
C1348  H1349   1.111   .     S
C1354  H1360   1.112   .     S
C1354  H1359   1.102   .     S
C1354  C1355   1.530   .     S
C1355  H1357   1.110   .     S
C1355  H1358   1.108   .     S
C1355  H1356   1.111   .     S
C1361  H1367   1.109   .     S
C1361  C1362   1.527   .     S
C1361  H1366   1.108   .     S
C1362  H1365   1.111   .     S
C1362  H1364   1.110   .     S
C1362  H1363   1.110   .     S
C1368  H1373   1.112   .     S
C1368  C1369   1.527   .     S
C1368  H1374   1.108   .     S
C1369  H1371   1.111   .     S
C1369  H1372   1.111   .     S
C1369  H1370   1.110   .     S
C1377  C1388   1.449   .     S
C1377  O1423   1.290   .     A
C1378  C1387   1.449   .     S
C1378  O1424   1.289   .     A
C1378  O1512   1.293   .     S
C1379  C1433   1.529   .     S
C1379  C1381   1.401   .     A
C1379  C1408   1.433   .     A
C1380  C1382   1.403   .     A
C1380  C1440   1.525   .     S
C1380  C1407   1.430   .     A
C1381  H1411   1.082   .     S
C1382  H1412   1.085   .     S
C1382  C632    1.394   1_556 S
C1383  H1417   1.085   .     S
C1383  C1474   1.398   .     S
C1384  H1418   1.085   .     S
C1384  C870    1.391   1_565 S
C1385  C1387   1.413   .     A
C1385  C1447   1.514   .     S
C1385  C867    1.389   1_565 S
C1386  C1454   1.516   .     S
C1386  C1388   1.414   .     A
C1387  C1470   1.399   .     S
C1389  N1422   1.367   .     A
C1389  C1391   1.416   .     A
C1389  H1461   1.081   .     S
C1390  C1392   1.416   .     A
C1390  N1421   1.367   .     A
C1390  H1462   1.081   .     S
C1391  N1421   1.367   .     A
C1391  H1419   1.082   .     S
C1392  H1420   1.082   .     S
C1392  N1422   1.367   .     A
C1393  O1429   1.299   .     A
C1393  C1395   1.474   .     S
C1393  O1513   1.296   .     S
C1394  C1396   1.470   .     S
C1394  O1430   1.296   .     A
C1395  C1399   1.403   .     A
C1395  C1401   1.403   .     A
C1396  C1400   1.400   .     A
C1396  C1402   1.397   .     A
C1397  C1399   1.393   .     A
C1397  C1405   1.402   .     A
C1397  H1501   1.084   .     S
C1398  H1416   1.084   .     S
C1398  C1400   1.396   .     A
C1398  C1406   1.404   .     A
C1399  H1500   1.083   .     S
C1401  H1432   1.079   .     S
C1401  C1403   1.407   .     A
C1402  H1431   1.077   .     S
C1402  C1404   1.402   .     A
C1403  C1405   1.413   .     A
C1403  C1407   1.419   .     A
C1404  C1408   1.419   .     A
C1404  C1406   1.413   .     A
C1405  C607    1.393   1_556 S
C1407  C634    1.421   1_556 S
Cu1409 N1421   2.013   .     S
Cu1409 O1426   1.960   .     S
Cu1409 O1427   1.923   .     S
Cu1409 O1423   1.965   .     S
Cu1409 O1430   1.915   .     S
Cu1410 N1422   2.013   .     S
Cu1410 O1424   1.965   .     S
Cu1410 O1425   1.960   .     S
Cu1410 O1428   1.923   .     S
Cu1410 O1429   1.915   .     S
Cu1410 Cu1495  2.679   .     S
H1413  C1486   1.081   .     S
O1425  C1463   1.292   .     S
O1428  C1480   1.297   .     S
C1433  H1438   1.100   .     S
C1433  H1439   1.110   .     S
C1433  C1434   1.529   .     S
C1434  H1436   1.111   .     S
C1434  H1437   1.109   .     S
C1434  H1435   1.111   .     S
C1440  H1446   1.112   .     S
C1440  H1445   1.102   .     S
C1440  C1441   1.530   .     S
C1441  H1443   1.110   .     S
C1441  H1444   1.108   .     S
C1441  H1442   1.111   .     S
C1447  H1453   1.109   .     S
C1447  C1448   1.527   .     S
C1447  H1452   1.108   .     S
C1448  H1451   1.111   .     S
C1448  H1450   1.110   .     S
C1448  H1449   1.110   .     S
C1454  H1459   1.112   .     S
C1454  C1455   1.527   .     S
C1454  H1460   1.108   .     S
C1455  H1457   1.111   .     S
C1455  H1458   1.111   .     S
C1455  H1456   1.110   .     S
C1463  C1474   1.449   .     S
C1463  O1509   1.290   .     A
C1464  C1473   1.449   .     S
C1464  O1510   1.289   .     A
C1464  O1340   1.293   1_655 S
C1465  C1519   1.529   .     S
C1465  C1467   1.401   .     A
C1465  C1494   1.433   .     A
C1466  C1468   1.403   .     A
C1466  C1526   1.525   .     S
C1466  C1493   1.430   .     A
C1467  H1497   1.082   .     S
C1468  H1498   1.085   .     S
C1468  C718    1.394   1_556 S
C1469  H1503   1.085   .     S
C1469  C1302   1.398   1_655 S
C1470  H1504   1.085   .     S
C1470  C956    1.391   1_565 S
C1471  C1473   1.413   .     A
C1471  C1533   1.514   .     S
C1471  C953    1.389   1_565 S
C1472  C1540   1.516   .     S
C1472  C1474   1.414   .     A
C1473  C1298   1.399   1_655 S
C1475  N1508   1.367   .     A
C1475  C1477   1.416   .     A
C1475  H1547   1.081   .     S
C1476  C1478   1.416   .     A
C1476  N1507   1.367   .     A
C1476  H1548   1.081   .     S
C1477  N1507   1.367   .     A
C1477  H1505   1.082   .     S
C1478  H1506   1.082   .     S
C1478  N1508   1.367   .     A
C1479  O1515   1.299   .     A
C1479  C1481   1.474   .     S
C1479  O1341   1.296   1_655 S
C1480  C1482   1.470   .     S
C1480  O1516   1.296   .     A
C1481  C1485   1.403   .     A
C1481  C1487   1.403   .     A
C1482  C1486   1.400   .     A
C1482  C1488   1.397   .     A
C1483  C1485   1.393   .     A
C1483  C1491   1.402   .     A
C1483  H1329   1.084   1_655 S
C1484  H1502   1.084   .     S
C1484  C1486   1.396   .     A
C1484  C1492   1.404   .     A
C1485  H1328   1.083   1_655 S
C1487  H1518   1.079   .     S
C1487  C1489   1.407   .     A
C1488  H1517   1.077   .     S
C1488  C1490   1.402   .     A
C1489  C1491   1.413   .     A
C1489  C1493   1.419   .     A
C1490  C1494   1.419   .     A
C1490  C1492   1.413   .     A
C1491  C693    1.393   1_556 S
C1493  C720    1.421   1_556 S
Cu1495 N1507   2.013   .     S
Cu1495 O1512   1.960   .     S
Cu1495 O1513   1.923   .     S
Cu1495 O1509   1.965   .     S
Cu1495 O1516   1.915   .     S
Cu1496 N1508   2.013   .     S
Cu1496 O1510   1.965   .     S
Cu1496 O1511   1.960   .     S
Cu1496 O1514   1.923   .     S
Cu1496 O1515   1.915   .     S
Cu1496 Cu1323  2.679   1_655 S
H1499  C1314   1.081   1_655 S
O1511  C1291   1.292   1_655 S
O1514  C1308   1.297   1_655 S
C1519  H1524   1.100   .     S
C1519  H1525   1.110   .     S
C1519  C1520   1.529   .     S
C1520  H1522   1.111   .     S
C1520  H1523   1.109   .     S
C1520  H1521   1.111   .     S
C1526  H1532   1.112   .     S
C1526  H1531   1.102   .     S
C1526  C1527   1.530   .     S
C1527  H1529   1.110   .     S
C1527  H1530   1.108   .     S
C1527  H1528   1.111   .     S
C1533  H1539   1.109   .     S
C1533  C1534   1.527   .     S
C1533  H1538   1.108   .     S
C1534  H1537   1.111   .     S
C1534  H1536   1.110   .     S
C1534  H1535   1.110   .     S
C1540  H1545   1.112   .     S
C1540  C1541   1.527   .     S
C1540  H1546   1.108   .     S
C1541  H1543   1.111   .     S
C1541  H1544   1.111   .     S
C1541  H1542   1.110   .     S
