data_str_m1_o1_o17_pcu_sym.45
_audit_creation_date              2020-01-03
_audit_creation_method            'Materials Studio'
_symmetry_space_group_name_H-M    'P1'
_symmetry_Int_Tables_number       1
_symmetry_cell_setting            triclinic
loop_
_symmetry_equiv_pos_as_xyz
  x,y,z
_cell_length_a                    36.6459
_cell_length_b                    36.6468
_cell_length_c                    34.4408
_cell_angle_alpha                 89.9997
_cell_angle_beta                  89.9997
_cell_angle_gamma                 89.9974
loop_
_atom_site_label
_atom_site_type_symbol
_atom_site_fract_x
_atom_site_fract_y
_atom_site_fract_z
_atom_site_U_iso_or_equiv
_atom_site_adp_type
_atom_site_occupancy
Zn1    Zn    0.20659  -0.00000   0.21735   0.00000  Uiso   1.00
Zn2    Zn    0.29340  -0.00000   0.78265   0.00000  Uiso   1.00
Zn3    Zn    0.00000   0.20659   0.21735   0.00000  Uiso   1.00
Zn4    Zn   -0.00000   0.29340   0.78265   0.00000  Uiso   1.00
Zn5    Zn    0.29340  -0.00000   0.21735   0.00000  Uiso   1.00
Zn6    Zn    0.20659  -0.00000   0.78265   0.00000  Uiso   1.00
Zn7    Zn   -0.00000   0.29340   0.21735   0.00000  Uiso   1.00
Zn8    Zn   -0.00000   0.20659   0.78265   0.00000  Uiso   1.00
Zn9    Zn    0.45659   0.25000   0.71735   0.00000  Uiso   1.00
Zn10   Zn    0.04340   0.25000   0.28265   0.00000  Uiso   1.00
Zn11   Zn    0.25000   0.45659   0.71735   0.00000  Uiso   1.00
Zn12   Zn    0.25000   0.04340   0.28265   0.00000  Uiso   1.00
Zn13   Zn    0.04340   0.25000   0.71735   0.00000  Uiso   1.00
Zn14   Zn    0.45659   0.25000   0.28265   0.00000  Uiso   1.00
Zn15   Zn    0.25000   0.04340   0.71735   0.00000  Uiso   1.00
Zn16   Zn    0.25000   0.45659   0.28265   0.00000  Uiso   1.00
C17    C     0.00601   0.28311   0.41784   0.00000  Uiso   1.00
C18    C     0.49399   0.21689   0.58216   0.00000  Uiso   1.00
C19    C     0.21689   0.49399   0.41784   0.00000  Uiso   1.00
C20    C     0.28311   0.00600   0.58216   0.00000  Uiso   1.00
C21    C     0.49399   0.21689   0.41784   0.00000  Uiso   1.00
C22    C     0.00601   0.28311   0.58216   0.00000  Uiso   1.00
C23    C     0.28311   0.00601   0.41784   0.00000  Uiso   1.00
C24    C     0.21689   0.49400   0.58216   0.00000  Uiso   1.00
C25    C     0.25596   0.03312   0.91784   0.00000  Uiso   1.00
C26    C     0.24404   0.46688   0.08216   0.00000  Uiso   1.00
C27    C     0.46682   0.24437   0.91784   0.00000  Uiso   1.00
C28    C     0.03318   0.25563   0.08216   0.00000  Uiso   1.00
C29    C     0.24404   0.46688   0.91784   0.00000  Uiso   1.00
C30    C     0.25596   0.03312   0.08215   0.00000  Uiso   1.00
C31    C     0.03318   0.25563   0.91784   0.00000  Uiso   1.00
C32    C     0.46683   0.24436   0.08216   0.00000  Uiso   1.00
C33    C    -0.00000   0.25000   0.39783   0.00000  Uiso   1.00
C34    C     0.00000   0.25000   0.60217   0.00000  Uiso   1.00
C35    C     0.25000  -0.00000   0.39783   0.00000  Uiso   1.00
C36    C     0.25000   0.00000   0.60217   0.00000  Uiso   1.00
C37    C     0.25000  -0.00000   0.89783   0.00000  Uiso   1.00
C38    C     0.25000  -0.00000   0.10217   0.00000  Uiso   1.00
C39    C     0.00000   0.25000   0.89783   0.00000  Uiso   1.00
C40    C     0.00000   0.25000   0.10217   0.00000  Uiso   1.00
O41    O     0.25000  -0.00000   0.25000   0.00000  Uiso   1.00
O42    O     0.25000  -0.00000   0.75000   0.00000  Uiso   1.00
O43    O    -0.00000   0.25000   0.25000   0.00000  Uiso   1.00
O44    O     0.00000   0.25000   0.75000   0.00000  Uiso   1.00
O45    O     0.25000   0.46963   0.33755   0.00000  Uiso   1.00
O46    O     0.25000   0.03036   0.66245   0.00000  Uiso   1.00
O47    O     0.03036   0.25000   0.33755   0.00000  Uiso   1.00
O48    O     0.46963   0.25000   0.66245   0.00000  Uiso   1.00
O49    O     0.25000   0.03036   0.33755   0.00000  Uiso   1.00
O50    O     0.25000   0.46963   0.66245   0.00000  Uiso   1.00
O51    O     0.46963   0.25000   0.33755   0.00000  Uiso   1.00
O52    O     0.03036   0.25000   0.66245   0.00000  Uiso   1.00
O53    O    -0.00000   0.21963   0.83755   0.00000  Uiso   1.00
O54    O     0.00000   0.28036   0.16245   0.00000  Uiso   1.00
O55    O     0.28036  -0.00000   0.83755   0.00000  Uiso   1.00
O56    O     0.21963  -0.00000   0.16245   0.00000  Uiso   1.00
O57    O    -0.00000   0.28036   0.83755   0.00000  Uiso   1.00
O58    O    -0.00000   0.21963   0.16245   0.00000  Uiso   1.00
O59    O     0.21963  -0.00000   0.83755   0.00000  Uiso   1.00
O60    O     0.28036  -0.00000   0.16245   0.00000  Uiso   1.00
H61    H     0.48205   0.15906   0.46580   0.00000  Uiso   1.00
H62    H     0.01795   0.34094   0.53420   0.00000  Uiso   1.00
H63    H     0.34095   0.01794   0.46580   0.00000  Uiso   1.00
H64    H     0.15905   0.48206   0.53420   0.00000  Uiso   1.00
H65    H     0.01795   0.34094   0.46580   0.00000  Uiso   1.00
H66    H     0.48205   0.15906   0.53420   0.00000  Uiso   1.00
H67    H     0.15905   0.48206   0.46580   0.00000  Uiso   1.00
H68    H     0.34095   0.01794   0.53420   0.00000  Uiso   1.00
H69    H     0.23221   0.40903   0.96580   0.00000  Uiso   1.00
H70    H     0.26779   0.09097   0.03420   0.00000  Uiso   1.00
H71    H     0.09117   0.26675   0.96580   0.00000  Uiso   1.00
H72    H     0.40883   0.23324   0.03420   0.00000  Uiso   1.00
H73    H     0.26779   0.09097   0.96580   0.00000  Uiso   1.00
H74    H     0.23221   0.40903   0.03420   0.00000  Uiso   1.00
H75    H     0.40883   0.23324   0.96580   0.00000  Uiso   1.00
H76    H     0.09117   0.26676   0.03420   0.00000  Uiso   1.00
O77    O     0.20724   0.07307   0.27302   0.00000  Uiso   1.00
O78    O     0.29275   0.42692   0.72698   0.00000  Uiso   1.00
O79    O     0.42692   0.20724   0.27302   0.00000  Uiso   1.00
O80    O     0.07307   0.29275   0.72698   0.00000  Uiso   1.00
O81    O     0.29275   0.42692   0.27302   0.00000  Uiso   1.00
O82    O     0.20724   0.07307   0.72698   0.00000  Uiso   1.00
O83    O     0.07307   0.29275   0.27302   0.00000  Uiso   1.00
O84    O     0.42692   0.20724   0.72698   0.00000  Uiso   1.00
O85    O     0.20724   0.42692   0.72698   0.00000  Uiso   1.00
O86    O     0.29275   0.07307   0.27302   0.00000  Uiso   1.00
O87    O     0.42692   0.29275   0.72698   0.00000  Uiso   1.00
O88    O     0.07307   0.20724   0.27302   0.00000  Uiso   1.00
O89    O     0.29275   0.07307   0.72698   0.00000  Uiso   1.00
O90    O     0.20724   0.42692   0.27302   0.00000  Uiso   1.00
O91    O     0.07307   0.20724   0.72698   0.00000  Uiso   1.00
O92    O     0.42692   0.29275   0.27302   0.00000  Uiso   1.00
O93    O     0.45724   0.32307   0.77302   0.00000  Uiso   1.00
O94    O     0.04275   0.17692   0.22698   0.00000  Uiso   1.00
O95    O     0.17692   0.45724   0.77302   0.00000  Uiso   1.00
O96    O     0.32307   0.04275   0.22698   0.00000  Uiso   1.00
O97    O     0.04275   0.17692   0.77302   0.00000  Uiso   1.00
O98    O     0.45724   0.32307   0.22698   0.00000  Uiso   1.00
O99    O     0.32307   0.04275   0.77302   0.00000  Uiso   1.00
O100   O     0.17692   0.45724   0.22698   0.00000  Uiso   1.00
O101   O     0.45724   0.17692   0.22698   0.00000  Uiso   1.00
O102   O     0.04275   0.32307   0.77302   0.00000  Uiso   1.00
O103   O     0.17692   0.04275   0.22698   0.00000  Uiso   1.00
O104   O     0.32307   0.45724   0.77302   0.00000  Uiso   1.00
O105   O     0.04275   0.32307   0.22698   0.00000  Uiso   1.00
O106   O     0.45724   0.17692   0.77302   0.00000  Uiso   1.00
O107   O     0.32307   0.45724   0.22698   0.00000  Uiso   1.00
O108   O     0.17692   0.04275   0.77302   0.00000  Uiso   1.00
C109   C     0.48725   0.18488   0.47992   0.00000  Uiso   1.00
C110   C     0.01275   0.31512   0.52008   0.00000  Uiso   1.00
C111   C     0.31512   0.01274   0.47992   0.00000  Uiso   1.00
C112   C     0.18488   0.48726   0.52008   0.00000  Uiso   1.00
C113   C     0.01275   0.31512   0.47992   0.00000  Uiso   1.00
C114   C     0.48725   0.18488   0.52008   0.00000  Uiso   1.00
C115   C     0.18488   0.48726   0.47992   0.00000  Uiso   1.00
C116   C     0.31512   0.01274   0.52008   0.00000  Uiso   1.00
C117   C     0.23737   0.43486   0.97992   0.00000  Uiso   1.00
C118   C     0.26263   0.06514   0.02008   0.00000  Uiso   1.00
C119   C     0.06528   0.26190   0.97992   0.00000  Uiso   1.00
C120   C     0.43472   0.23809   0.02008   0.00000  Uiso   1.00
C121   C     0.26263   0.06514   0.97992   0.00000  Uiso   1.00
C122   C     0.23737   0.43486   0.02008   0.00000  Uiso   1.00
C123   C     0.43472   0.23809   0.97992   0.00000  Uiso   1.00
C124   C     0.06528   0.26190   0.02008   0.00000  Uiso   1.00
C125   C     0.25000  -0.00000   0.35566   0.00000  Uiso   1.00
C126   C     0.25000  -0.00000   0.64434   0.00000  Uiso   1.00
C127   C    -0.00000   0.25000   0.35566   0.00000  Uiso   1.00
C128   C     0.00000   0.25000   0.64434   0.00000  Uiso   1.00
C129   C    -0.00000   0.25000   0.85566   0.00000  Uiso   1.00
C130   C     0.00000   0.25000   0.14434   0.00000  Uiso   1.00
C131   C     0.25000  -0.00000   0.85566   0.00000  Uiso   1.00
C132   C     0.25000  -0.00000   0.14434   0.00000  Uiso   1.00
C133   C     0.18004   0.06996   0.25000   0.00000  Uiso   1.00
C134   C     0.31996   0.43004   0.75000   0.00000  Uiso   1.00
C135   C     0.43004   0.18004   0.25000   0.00000  Uiso   1.00
C136   C     0.06996   0.31996   0.75000   0.00000  Uiso   1.00
C137   C     0.31996   0.43004   0.25000   0.00000  Uiso   1.00
C138   C     0.18004   0.06996   0.75000   0.00000  Uiso   1.00
C139   C     0.06996   0.31996   0.25000   0.00000  Uiso   1.00
C140   C     0.43004   0.18004   0.75000   0.00000  Uiso   1.00
C141   C     0.18004   0.43004   0.75000   0.00000  Uiso   1.00
C142   C     0.31996   0.06996   0.25000   0.00000  Uiso   1.00
C143   C     0.43004   0.31996   0.75000   0.00000  Uiso   1.00
C144   C     0.06996   0.18004   0.25000   0.00000  Uiso   1.00
C145   C     0.31996   0.06996   0.75000   0.00000  Uiso   1.00
C146   C     0.18004   0.43004   0.25000   0.00000  Uiso   1.00
C147   C     0.06996   0.18004   0.75000   0.00000  Uiso   1.00
C148   C     0.43004   0.31996   0.25000   0.00000  Uiso   1.00
C149   C     0.11503   0.41198   0.25449   0.00000  Uiso   1.00
C150   C     0.38497   0.08802   0.74551   0.00000  Uiso   1.00
C151   C     0.11456   0.14157   0.21469   0.00000  Uiso   1.00
C152   C     0.38544   0.35843   0.78531   0.00000  Uiso   1.00
C153   C     0.38497   0.08802   0.25449   0.00000  Uiso   1.00
C154   C     0.11503   0.41198   0.74551   0.00000  Uiso   1.00
C155   C     0.38544   0.35843   0.21469   0.00000  Uiso   1.00
C156   C     0.11455   0.14156   0.78531   0.00000  Uiso   1.00
C157   C     0.14156   0.11455   0.78531   0.00000  Uiso   1.00
C158   C     0.35843   0.38544   0.21469   0.00000  Uiso   1.00
C159   C     0.08802   0.38497   0.74551   0.00000  Uiso   1.00
C160   C     0.41198   0.11503   0.25449   0.00000  Uiso   1.00
C161   C     0.35843   0.38544   0.78531   0.00000  Uiso   1.00
C162   C     0.14157   0.11456   0.21469   0.00000  Uiso   1.00
C163   C     0.41198   0.11503   0.74551   0.00000  Uiso   1.00
C164   C     0.08802   0.38497   0.25449   0.00000  Uiso   1.00
C165   C     0.36503   0.16198   0.75449   0.00000  Uiso   1.00
C166   C     0.13497   0.33802   0.24551   0.00000  Uiso   1.00
C167   C     0.36456   0.39158   0.71469   0.00000  Uiso   1.00
C168   C     0.13543   0.10842   0.28531   0.00000  Uiso   1.00
C169   C     0.13497   0.33802   0.75449   0.00000  Uiso   1.00
C170   C     0.36503   0.16198   0.24551   0.00000  Uiso   1.00
C171   C     0.13544   0.10843   0.71469   0.00000  Uiso   1.00
C172   C     0.36457   0.39158   0.28531   0.00000  Uiso   1.00
C173   C     0.39158   0.36456   0.28531   0.00000  Uiso   1.00
C174   C     0.10843   0.13544   0.71469   0.00000  Uiso   1.00
C175   C     0.33802   0.13497   0.24551   0.00000  Uiso   1.00
C176   C     0.16198   0.36503   0.75449   0.00000  Uiso   1.00
C177   C     0.10842   0.13543   0.28531   0.00000  Uiso   1.00
C178   C     0.39158   0.36456   0.71469   0.00000  Uiso   1.00
C179   C     0.16198   0.36503   0.24551   0.00000  Uiso   1.00
C180   C     0.33802   0.13497   0.75449   0.00000  Uiso   1.00
C181   C     0.49368   0.21708   0.45884   0.00000  Uiso   1.00
C182   C     0.00632   0.28292   0.54115   0.00000  Uiso   1.00
C183   C     0.28292   0.00631   0.45884   0.00000  Uiso   1.00
C184   C     0.21707   0.49369   0.54116   0.00000  Uiso   1.00
C185   C     0.00632   0.28292   0.45884   0.00000  Uiso   1.00
C186   C     0.49368   0.21708   0.54115   0.00000  Uiso   1.00
C187   C     0.21708   0.49369   0.45884   0.00000  Uiso   1.00
C188   C     0.28292   0.00631   0.54115   0.00000  Uiso   1.00
C189   C     0.24374   0.46707   0.95884   0.00000  Uiso   1.00
C190   C     0.25626   0.03293   0.04115   0.00000  Uiso   1.00
C191   C     0.03300   0.25590   0.95884   0.00000  Uiso   1.00
C192   C     0.46700   0.24409   0.04116   0.00000  Uiso   1.00
C193   C     0.25626   0.03293   0.95884   0.00000  Uiso   1.00
C194   C     0.24374   0.46707   0.04115   0.00000  Uiso   1.00
C195   C     0.46700   0.24409   0.95884   0.00000  Uiso   1.00
C196   C     0.03300   0.25591   0.04115   0.00000  Uiso   1.00
C197   C     0.09807   0.34807   0.25000   0.00000  Uiso   1.00
C198   C     0.40193   0.15193   0.75000   0.00000  Uiso   1.00
C199   C     0.15193   0.09806   0.25000   0.00000  Uiso   1.00
C200   C     0.34807   0.40194   0.75000   0.00000  Uiso   1.00
C201   C     0.40193   0.15193   0.25000   0.00000  Uiso   1.00
C202   C     0.09807   0.34807   0.75000   0.00000  Uiso   1.00
C203   C     0.34807   0.40194   0.25000   0.00000  Uiso   1.00
C204   C     0.15193   0.09806   0.75000   0.00000  Uiso   1.00
C205   C     0.09806   0.15193   0.75000   0.00000  Uiso   1.00
C206   C     0.40193   0.34807   0.25000   0.00000  Uiso   1.00
C207   C     0.15193   0.40193   0.75000   0.00000  Uiso   1.00
C208   C     0.34807   0.09807   0.25000   0.00000  Uiso   1.00
C209   C     0.40193   0.34807   0.75000   0.00000  Uiso   1.00
C210   C     0.09806   0.15193   0.25000   0.00000  Uiso   1.00
C211   C     0.34807   0.09807   0.75000   0.00000  Uiso   1.00
C212   C     0.15193   0.40193   0.25000   0.00000  Uiso   1.00
C213   C     0.00000   0.25000   0.47936   0.00000  Uiso   1.00
C214   C     0.00000   0.25000   0.52064   0.00000  Uiso   1.00
C215   C     0.25000   0.00000   0.47936   0.00000  Uiso   1.00
C216   C     0.25000   0.00000   0.52064   0.00000  Uiso   1.00
C217   C     0.25000  -0.00000   0.97936   0.00000  Uiso   1.00
C218   C     0.25000  -0.00000   0.02064   0.00000  Uiso   1.00
C219   C     0.00000   0.25000   0.97936   0.00000  Uiso   1.00
C220   C     0.00000   0.25000   0.02064   0.00000  Uiso   1.00
C221   C     0.10496   0.44992   0.26047   0.00000  Uiso   1.00
N222   N     0.09697   0.48015   0.26524   0.00000  Uiso   1.00
C223   C     0.39504   0.05008   0.73954   0.00000  Uiso   1.00
N224   N     0.40303   0.01985   0.73477   0.00000  Uiso   1.00
C225   C     0.10466   0.15952   0.17858   0.00000  Uiso   1.00
N226   N     0.09676   0.17383   0.14982   0.00000  Uiso   1.00
C227   C     0.39535   0.34048   0.82142   0.00000  Uiso   1.00
N228   N     0.40324   0.32617   0.85018   0.00000  Uiso   1.00
C229   C     0.39504   0.05008   0.26047   0.00000  Uiso   1.00
N230   N     0.40303   0.01985   0.26523   0.00000  Uiso   1.00
C231   C     0.10496   0.44992   0.73954   0.00000  Uiso   1.00
N232   N     0.09697   0.48015   0.73477   0.00000  Uiso   1.00
C233   C     0.39535   0.34048   0.17858   0.00000  Uiso   1.00
N234   N     0.40324   0.32617   0.14982   0.00000  Uiso   1.00
C235   C     0.10464   0.15951   0.82142   0.00000  Uiso   1.00
N236   N     0.09674   0.17381   0.85018   0.00000  Uiso   1.00
C237   C     0.15953   0.10465   0.82142   0.00000  Uiso   1.00
N238   N     0.17385   0.09676   0.85017   0.00000  Uiso   1.00
C239   C     0.34046   0.39533   0.17858   0.00000  Uiso   1.00
N240   N     0.32613   0.40322   0.14983   0.00000  Uiso   1.00
C241   C     0.05008   0.39504   0.73953   0.00000  Uiso   1.00
N242   N     0.01985   0.40303   0.73476   0.00000  Uiso   1.00
C243   C     0.44992   0.10496   0.26047   0.00000  Uiso   1.00
N244   N     0.48015   0.09697   0.26524   0.00000  Uiso   1.00
C245   C     0.34046   0.39534   0.82142   0.00000  Uiso   1.00
N246   N     0.32614   0.40322   0.85017   0.00000  Uiso   1.00
C247   C     0.15954   0.10467   0.17858   0.00000  Uiso   1.00
N248   N     0.17387   0.09678   0.14983   0.00000  Uiso   1.00
C249   C     0.44992   0.10496   0.73953   0.00000  Uiso   1.00
N250   N     0.48015   0.09697   0.73477   0.00000  Uiso   1.00
C251   C     0.05008   0.39504   0.26047   0.00000  Uiso   1.00
N252   N     0.01985   0.40303   0.26524   0.00000  Uiso   1.00
C253   C     0.35496   0.19992   0.76046   0.00000  Uiso   1.00
N254   N     0.34696   0.23015   0.76523   0.00000  Uiso   1.00
C255   C     0.14504   0.30008   0.23953   0.00000  Uiso   1.00
N256   N     0.15303   0.26985   0.23476   0.00000  Uiso   1.00
C257   C     0.35468   0.40955   0.67858   0.00000  Uiso   1.00
N258   N     0.34680   0.42388   0.64983   0.00000  Uiso   1.00
C259   C     0.14532   0.09044   0.32142   0.00000  Uiso   1.00
N260   N     0.15320   0.07611   0.35017   0.00000  Uiso   1.00
C261   C     0.14504   0.30008   0.76046   0.00000  Uiso   1.00
N262   N     0.15303   0.26985   0.76523   0.00000  Uiso   1.00
C263   C     0.35496   0.19992   0.23953   0.00000  Uiso   1.00
N264   N     0.34697   0.23015   0.23477   0.00000  Uiso   1.00
C265   C     0.14533   0.09046   0.67858   0.00000  Uiso   1.00
N266   N     0.15322   0.07614   0.64983   0.00000  Uiso   1.00
C267   C     0.35468   0.40955   0.32142   0.00000  Uiso   1.00
N268   N     0.34680   0.42389   0.35017   0.00000  Uiso   1.00
C269   C     0.40955   0.35468   0.32142   0.00000  Uiso   1.00
N270   N     0.42388   0.34679   0.35017   0.00000  Uiso   1.00
C271   C     0.09046   0.14534   0.67858   0.00000  Uiso   1.00
N272   N     0.07614   0.15323   0.64983   0.00000  Uiso   1.00
C273   C     0.30008   0.14504   0.23953   0.00000  Uiso   1.00
N274   N     0.26985   0.15303   0.23476   0.00000  Uiso   1.00
C275   C     0.19992   0.35496   0.76047   0.00000  Uiso   1.00
N276   N     0.23015   0.34697   0.76523   0.00000  Uiso   1.00
C277   C     0.09045   0.14532   0.32142   0.00000  Uiso   1.00
N278   N     0.07612   0.15321   0.35017   0.00000  Uiso   1.00
C279   C     0.40955   0.35467   0.67858   0.00000  Uiso   1.00
N280   N     0.42387   0.34679   0.64983   0.00000  Uiso   1.00
C281   C     0.19992   0.35496   0.23953   0.00000  Uiso   1.00
N282   N     0.23015   0.34697   0.23476   0.00000  Uiso   1.00
C283   C     0.30008   0.14504   0.76046   0.00000  Uiso   1.00
N284   N     0.26985   0.15303   0.76523   0.00000  Uiso   1.00
C285   C     0.01169   0.31873   0.39583   0.00000  Uiso   1.00
H286   H     0.00978   0.31626   0.36386   0.00000  Uiso   1.00
H287   H     0.49051   0.33878   0.40459   0.00000  Uiso   1.00
H288   H     0.03918   0.32986   0.40243   0.00000  Uiso   1.00
C289   C     0.48832   0.18127   0.60417   0.00000  Uiso   1.00
H290   H     0.49022   0.18374   0.63614   0.00000  Uiso   1.00
H291   H     0.46083   0.17014   0.59757   0.00000  Uiso   1.00
H292   H     0.00949   0.16122   0.59541   0.00000  Uiso   1.00
C293   C     0.18126   0.48832   0.39583   0.00000  Uiso   1.00
H294   H     0.18374   0.49022   0.36386   0.00000  Uiso   1.00
H295   H     0.17013   0.46083   0.40244   0.00000  Uiso   1.00
H296   H     0.16122   0.00950   0.40459   0.00000  Uiso   1.00
C297   C     0.31874   0.01168   0.60417   0.00000  Uiso   1.00
H298   H     0.31626   0.00977   0.63614   0.00000  Uiso   1.00
H299   H     0.33878   0.49050   0.59541   0.00000  Uiso   1.00
H300   H     0.32987   0.03916   0.59756   0.00000  Uiso   1.00
C301   C     0.48831   0.18127   0.39583   0.00000  Uiso   1.00
H302   H     0.49022   0.18374   0.36386   0.00000  Uiso   1.00
H303   H     0.00949   0.16122   0.40459   0.00000  Uiso   1.00
H304   H     0.46082   0.17014   0.40244   0.00000  Uiso   1.00
C305   C     0.01169   0.31873   0.60417   0.00000  Uiso   1.00
H306   H     0.00978   0.31626   0.63614   0.00000  Uiso   1.00
H307   H     0.03917   0.32986   0.59756   0.00000  Uiso   1.00
H308   H     0.49051   0.33878   0.59541   0.00000  Uiso   1.00
C309   C     0.31874   0.01168   0.39583   0.00000  Uiso   1.00
H310   H     0.31626   0.00977   0.36386   0.00000  Uiso   1.00
H311   H     0.32987   0.03916   0.40243   0.00000  Uiso   1.00
H312   H     0.33878   0.49050   0.40459   0.00000  Uiso   1.00
C313   C     0.18126   0.48833   0.60417   0.00000  Uiso   1.00
H314   H     0.18374   0.49023   0.63614   0.00000  Uiso   1.00
H315   H     0.16122   0.00951   0.59541   0.00000  Uiso   1.00
H316   H     0.17013   0.46084   0.59756   0.00000  Uiso   1.00
C317   C     0.26159   0.06875   0.89583   0.00000  Uiso   1.00
H318   H     0.25970   0.06627   0.86386   0.00000  Uiso   1.00
H319   H     0.24038   0.08876   0.90458   0.00000  Uiso   1.00
H320   H     0.28906   0.07992   0.90244   0.00000  Uiso   1.00
C321   C     0.23841   0.43125   0.10417   0.00000  Uiso   1.00
H322   H     0.24030   0.43373   0.13614   0.00000  Uiso   1.00
H323   H     0.21094   0.42008   0.09755   0.00000  Uiso   1.00
H324   H     0.25962   0.41124   0.09542   0.00000  Uiso   1.00
C325   C     0.43115   0.23903   0.89582   0.00000  Uiso   1.00
H326   H     0.43367   0.24079   0.86385   0.00000  Uiso   1.00
H327   H     0.41971   0.21169   0.90252   0.00000  Uiso   1.00
H328   H     0.41134   0.26046   0.90450   0.00000  Uiso   1.00
C329   C     0.06885   0.26098   0.10418   0.00000  Uiso   1.00
H330   H     0.06633   0.25922   0.13615   0.00000  Uiso   1.00
H331   H     0.08866   0.23955   0.09550   0.00000  Uiso   1.00
H332   H     0.08029   0.28832   0.09747   0.00000  Uiso   1.00
C333   C     0.23841   0.43125   0.89583   0.00000  Uiso   1.00
H334   H     0.24030   0.43373   0.86386   0.00000  Uiso   1.00
H335   H     0.25962   0.41124   0.90458   0.00000  Uiso   1.00
H336   H     0.21094   0.42008   0.90245   0.00000  Uiso   1.00
C337   C     0.26159   0.06875   0.10417   0.00000  Uiso   1.00
H338   H     0.25970   0.06627   0.13614   0.00000  Uiso   1.00
H339   H     0.28906   0.07992   0.09755   0.00000  Uiso   1.00
H340   H     0.24038   0.08876   0.09542   0.00000  Uiso   1.00
C341   C     0.06885   0.26097   0.89582   0.00000  Uiso   1.00
H342   H     0.08030   0.28831   0.90252   0.00000  Uiso   1.00
H343   H     0.08866   0.23954   0.90450   0.00000  Uiso   1.00
H344   H     0.06633   0.25921   0.86385   0.00000  Uiso   1.00
C345   C     0.43115   0.23902   0.10418   0.00000  Uiso   1.00
H346   H     0.41971   0.21168   0.09748   0.00000  Uiso   1.00
H347   H     0.43367   0.24078   0.13615   0.00000  Uiso   1.00
H348   H     0.41134   0.26045   0.09550   0.00000  Uiso   1.00
Zn349  Zn    0.70659  -0.00000   0.21735   0.00000  Uiso   1.00
Zn350  Zn    0.79340  -0.00000   0.78265   0.00000  Uiso   1.00
Zn351  Zn    0.50000   0.20659   0.21735   0.00000  Uiso   1.00
Zn352  Zn    0.50000   0.29340   0.78265   0.00000  Uiso   1.00
Zn353  Zn    0.79340  -0.00000   0.21735   0.00000  Uiso   1.00
Zn354  Zn    0.70659  -0.00000   0.78265   0.00000  Uiso   1.00
Zn355  Zn    0.50000   0.29340   0.21735   0.00000  Uiso   1.00
Zn356  Zn    0.50000   0.20659   0.78265   0.00000  Uiso   1.00
Zn357  Zn    0.95659   0.25000   0.71735   0.00000  Uiso   1.00
Zn358  Zn    0.54340   0.25000   0.28265   0.00000  Uiso   1.00
Zn359  Zn    0.75000   0.45659   0.71735   0.00000  Uiso   1.00
Zn360  Zn    0.75000   0.04340   0.28265   0.00000  Uiso   1.00
Zn361  Zn    0.54340   0.25000   0.71735   0.00000  Uiso   1.00
Zn362  Zn    0.95659   0.25000   0.28265   0.00000  Uiso   1.00
Zn363  Zn    0.75000   0.04340   0.71735   0.00000  Uiso   1.00
Zn364  Zn    0.75000   0.45659   0.28265   0.00000  Uiso   1.00
C365   C     0.50601   0.28311   0.41784   0.00000  Uiso   1.00
C366   C     0.99399   0.21689   0.58216   0.00000  Uiso   1.00
C367   C     0.71689   0.49399   0.41784   0.00000  Uiso   1.00
C368   C     0.78311   0.00600   0.58216   0.00000  Uiso   1.00
C369   C     0.99399   0.21689   0.41784   0.00000  Uiso   1.00
C370   C     0.50601   0.28311   0.58216   0.00000  Uiso   1.00
C371   C     0.78311   0.00601   0.41784   0.00000  Uiso   1.00
C372   C     0.71689   0.49400   0.58216   0.00000  Uiso   1.00
C373   C     0.75596   0.03312   0.91784   0.00000  Uiso   1.00
C374   C     0.74404   0.46688   0.08216   0.00000  Uiso   1.00
C375   C     0.96682   0.24437   0.91784   0.00000  Uiso   1.00
C376   C     0.53318   0.25563   0.08216   0.00000  Uiso   1.00
C377   C     0.74404   0.46688   0.91784   0.00000  Uiso   1.00
C378   C     0.75596   0.03312   0.08215   0.00000  Uiso   1.00
C379   C     0.53318   0.25563   0.91784   0.00000  Uiso   1.00
C380   C     0.96683   0.24436   0.08216   0.00000  Uiso   1.00
C381   C     0.50000   0.25000   0.39783   0.00000  Uiso   1.00
C382   C     0.50000   0.25000   0.60217   0.00000  Uiso   1.00
C383   C     0.75000  -0.00000   0.39783   0.00000  Uiso   1.00
C384   C     0.75000   0.00000   0.60217   0.00000  Uiso   1.00
C385   C     0.75000  -0.00000   0.89783   0.00000  Uiso   1.00
C386   C     0.75000  -0.00000   0.10217   0.00000  Uiso   1.00
C387   C     0.50000   0.25000   0.89783   0.00000  Uiso   1.00
C388   C     0.50000   0.25000   0.10217   0.00000  Uiso   1.00
O389   O     0.75000  -0.00000   0.25000   0.00000  Uiso   1.00
O390   O     0.75000  -0.00000   0.75000   0.00000  Uiso   1.00
O391   O     0.50000   0.25000   0.25000   0.00000  Uiso   1.00
O392   O     0.50000   0.25000   0.75000   0.00000  Uiso   1.00
O393   O     0.75000   0.46963   0.33755   0.00000  Uiso   1.00
O394   O     0.75000   0.03036   0.66245   0.00000  Uiso   1.00
O395   O     0.53036   0.25000   0.33755   0.00000  Uiso   1.00
O396   O     0.96963   0.25000   0.66245   0.00000  Uiso   1.00
O397   O     0.75000   0.03036   0.33755   0.00000  Uiso   1.00
O398   O     0.75000   0.46963   0.66245   0.00000  Uiso   1.00
O399   O     0.96963   0.25000   0.33755   0.00000  Uiso   1.00
O400   O     0.53036   0.25000   0.66245   0.00000  Uiso   1.00
O401   O     0.50000   0.21963   0.83755   0.00000  Uiso   1.00
O402   O     0.50000   0.28036   0.16245   0.00000  Uiso   1.00
O403   O     0.78036  -0.00000   0.83755   0.00000  Uiso   1.00
O404   O     0.71963  -0.00000   0.16245   0.00000  Uiso   1.00
O405   O     0.50000   0.28036   0.83755   0.00000  Uiso   1.00
O406   O     0.50000   0.21963   0.16245   0.00000  Uiso   1.00
O407   O     0.71963  -0.00000   0.83755   0.00000  Uiso   1.00
O408   O     0.78036  -0.00000   0.16245   0.00000  Uiso   1.00
H409   H     0.98205   0.15906   0.46580   0.00000  Uiso   1.00
H410   H     0.51795   0.34094   0.53420   0.00000  Uiso   1.00
H411   H     0.84095   0.01794   0.46580   0.00000  Uiso   1.00
H412   H     0.65905   0.48206   0.53420   0.00000  Uiso   1.00
H413   H     0.51795   0.34094   0.46580   0.00000  Uiso   1.00
H414   H     0.98205   0.15906   0.53420   0.00000  Uiso   1.00
H415   H     0.65905   0.48206   0.46580   0.00000  Uiso   1.00
H416   H     0.84095   0.01794   0.53420   0.00000  Uiso   1.00
H417   H     0.73221   0.40903   0.96580   0.00000  Uiso   1.00
H418   H     0.76779   0.09097   0.03420   0.00000  Uiso   1.00
H419   H     0.59117   0.26675   0.96580   0.00000  Uiso   1.00
H420   H     0.90883   0.23324   0.03420   0.00000  Uiso   1.00
H421   H     0.76779   0.09097   0.96580   0.00000  Uiso   1.00
H422   H     0.73221   0.40903   0.03420   0.00000  Uiso   1.00
H423   H     0.90883   0.23324   0.96580   0.00000  Uiso   1.00
H424   H     0.59117   0.26676   0.03420   0.00000  Uiso   1.00
O425   O     0.70724   0.07307   0.27302   0.00000  Uiso   1.00
O426   O     0.79275   0.42692   0.72698   0.00000  Uiso   1.00
O427   O     0.92692   0.20724   0.27302   0.00000  Uiso   1.00
O428   O     0.57307   0.29275   0.72698   0.00000  Uiso   1.00
O429   O     0.79275   0.42692   0.27302   0.00000  Uiso   1.00
O430   O     0.70724   0.07307   0.72698   0.00000  Uiso   1.00
O431   O     0.57307   0.29275   0.27302   0.00000  Uiso   1.00
O432   O     0.92692   0.20724   0.72698   0.00000  Uiso   1.00
O433   O     0.70724   0.42692   0.72698   0.00000  Uiso   1.00
O434   O     0.79275   0.07307   0.27302   0.00000  Uiso   1.00
O435   O     0.92692   0.29275   0.72698   0.00000  Uiso   1.00
O436   O     0.57307   0.20724   0.27302   0.00000  Uiso   1.00
O437   O     0.79275   0.07307   0.72698   0.00000  Uiso   1.00
O438   O     0.70724   0.42692   0.27302   0.00000  Uiso   1.00
O439   O     0.57307   0.20724   0.72698   0.00000  Uiso   1.00
O440   O     0.92692   0.29275   0.27302   0.00000  Uiso   1.00
O441   O     0.95724   0.32307   0.77302   0.00000  Uiso   1.00
O442   O     0.54275   0.17692   0.22698   0.00000  Uiso   1.00
O443   O     0.67692   0.45724   0.77302   0.00000  Uiso   1.00
O444   O     0.82307   0.04275   0.22698   0.00000  Uiso   1.00
O445   O     0.54275   0.17692   0.77302   0.00000  Uiso   1.00
O446   O     0.95724   0.32307   0.22698   0.00000  Uiso   1.00
O447   O     0.82307   0.04275   0.77302   0.00000  Uiso   1.00
O448   O     0.67692   0.45724   0.22698   0.00000  Uiso   1.00
O449   O     0.95724   0.17692   0.22698   0.00000  Uiso   1.00
O450   O     0.54275   0.32307   0.77302   0.00000  Uiso   1.00
O451   O     0.67692   0.04275   0.22698   0.00000  Uiso   1.00
O452   O     0.82307   0.45724   0.77302   0.00000  Uiso   1.00
O453   O     0.54275   0.32307   0.22698   0.00000  Uiso   1.00
O454   O     0.95724   0.17692   0.77302   0.00000  Uiso   1.00
O455   O     0.82307   0.45724   0.22698   0.00000  Uiso   1.00
O456   O     0.67692   0.04275   0.77302   0.00000  Uiso   1.00
C457   C     0.98725   0.18488   0.47992   0.00000  Uiso   1.00
C458   C     0.51275   0.31512   0.52008   0.00000  Uiso   1.00
C459   C     0.81512   0.01274   0.47992   0.00000  Uiso   1.00
C460   C     0.68488   0.48726   0.52008   0.00000  Uiso   1.00
C461   C     0.51275   0.31512   0.47992   0.00000  Uiso   1.00
C462   C     0.98725   0.18488   0.52008   0.00000  Uiso   1.00
C463   C     0.68488   0.48726   0.47992   0.00000  Uiso   1.00
C464   C     0.81512   0.01274   0.52008   0.00000  Uiso   1.00
C465   C     0.73737   0.43486   0.97992   0.00000  Uiso   1.00
C466   C     0.76263   0.06514   0.02008   0.00000  Uiso   1.00
C467   C     0.56528   0.26190   0.97992   0.00000  Uiso   1.00
C468   C     0.93472   0.23809   0.02008   0.00000  Uiso   1.00
C469   C     0.76263   0.06514   0.97992   0.00000  Uiso   1.00
C470   C     0.73737   0.43486   0.02008   0.00000  Uiso   1.00
C471   C     0.93472   0.23809   0.97992   0.00000  Uiso   1.00
C472   C     0.56528   0.26190   0.02008   0.00000  Uiso   1.00
C473   C     0.75000  -0.00000   0.35566   0.00000  Uiso   1.00
C474   C     0.75000  -0.00000   0.64434   0.00000  Uiso   1.00
C475   C     0.50000   0.25000   0.35566   0.00000  Uiso   1.00
C476   C     0.50000   0.25000   0.64434   0.00000  Uiso   1.00
C477   C     0.50000   0.25000   0.85566   0.00000  Uiso   1.00
C478   C     0.50000   0.25000   0.14434   0.00000  Uiso   1.00
C479   C     0.75000  -0.00000   0.85566   0.00000  Uiso   1.00
C480   C     0.75000  -0.00000   0.14434   0.00000  Uiso   1.00
C481   C     0.68004   0.06996   0.25000   0.00000  Uiso   1.00
C482   C     0.81996   0.43004   0.75000   0.00000  Uiso   1.00
C483   C     0.93004   0.18004   0.25000   0.00000  Uiso   1.00
C484   C     0.56996   0.31996   0.75000   0.00000  Uiso   1.00
C485   C     0.81996   0.43004   0.25000   0.00000  Uiso   1.00
C486   C     0.68004   0.06996   0.75000   0.00000  Uiso   1.00
C487   C     0.56996   0.31996   0.25000   0.00000  Uiso   1.00
C488   C     0.93004   0.18004   0.75000   0.00000  Uiso   1.00
C489   C     0.68004   0.43004   0.75000   0.00000  Uiso   1.00
C490   C     0.81996   0.06996   0.25000   0.00000  Uiso   1.00
C491   C     0.93004   0.31996   0.75000   0.00000  Uiso   1.00
C492   C     0.56996   0.18004   0.25000   0.00000  Uiso   1.00
C493   C     0.81996   0.06996   0.75000   0.00000  Uiso   1.00
C494   C     0.68004   0.43004   0.25000   0.00000  Uiso   1.00
C495   C     0.56996   0.18004   0.75000   0.00000  Uiso   1.00
C496   C     0.93004   0.31996   0.25000   0.00000  Uiso   1.00
C497   C     0.61503   0.41198   0.25449   0.00000  Uiso   1.00
C498   C     0.88497   0.08802   0.74551   0.00000  Uiso   1.00
C499   C     0.61456   0.14157   0.21469   0.00000  Uiso   1.00
C500   C     0.88544   0.35843   0.78531   0.00000  Uiso   1.00
C501   C     0.88497   0.08802   0.25449   0.00000  Uiso   1.00
C502   C     0.61503   0.41198   0.74551   0.00000  Uiso   1.00
C503   C     0.88544   0.35843   0.21469   0.00000  Uiso   1.00
C504   C     0.61455   0.14156   0.78531   0.00000  Uiso   1.00
C505   C     0.64156   0.11455   0.78531   0.00000  Uiso   1.00
C506   C     0.85843   0.38544   0.21469   0.00000  Uiso   1.00
C507   C     0.58802   0.38497   0.74551   0.00000  Uiso   1.00
C508   C     0.91198   0.11503   0.25449   0.00000  Uiso   1.00
C509   C     0.85843   0.38544   0.78531   0.00000  Uiso   1.00
C510   C     0.64157   0.11456   0.21469   0.00000  Uiso   1.00
C511   C     0.91198   0.11503   0.74551   0.00000  Uiso   1.00
C512   C     0.58802   0.38497   0.25449   0.00000  Uiso   1.00
C513   C     0.86503   0.16198   0.75449   0.00000  Uiso   1.00
C514   C     0.63497   0.33802   0.24551   0.00000  Uiso   1.00
C515   C     0.86456   0.39158   0.71469   0.00000  Uiso   1.00
C516   C     0.63543   0.10842   0.28531   0.00000  Uiso   1.00
C517   C     0.63497   0.33802   0.75449   0.00000  Uiso   1.00
C518   C     0.86503   0.16198   0.24551   0.00000  Uiso   1.00
C519   C     0.63544   0.10843   0.71469   0.00000  Uiso   1.00
C520   C     0.86457   0.39158   0.28531   0.00000  Uiso   1.00
C521   C     0.89158   0.36456   0.28531   0.00000  Uiso   1.00
C522   C     0.60843   0.13544   0.71469   0.00000  Uiso   1.00
C523   C     0.83802   0.13497   0.24551   0.00000  Uiso   1.00
C524   C     0.66198   0.36503   0.75449   0.00000  Uiso   1.00
C525   C     0.60842   0.13543   0.28531   0.00000  Uiso   1.00
C526   C     0.89158   0.36456   0.71469   0.00000  Uiso   1.00
C527   C     0.66198   0.36503   0.24551   0.00000  Uiso   1.00
C528   C     0.83802   0.13497   0.75449   0.00000  Uiso   1.00
C529   C     0.99368   0.21708   0.45884   0.00000  Uiso   1.00
C530   C     0.50632   0.28292   0.54115   0.00000  Uiso   1.00
C531   C     0.78292   0.00631   0.45884   0.00000  Uiso   1.00
C532   C     0.71707   0.49369   0.54116   0.00000  Uiso   1.00
C533   C     0.50632   0.28292   0.45884   0.00000  Uiso   1.00
C534   C     0.99368   0.21708   0.54115   0.00000  Uiso   1.00
C535   C     0.71708   0.49369   0.45884   0.00000  Uiso   1.00
C536   C     0.78292   0.00631   0.54115   0.00000  Uiso   1.00
C537   C     0.74374   0.46707   0.95884   0.00000  Uiso   1.00
C538   C     0.75626   0.03293   0.04115   0.00000  Uiso   1.00
C539   C     0.53300   0.25590   0.95884   0.00000  Uiso   1.00
C540   C     0.96700   0.24409   0.04116   0.00000  Uiso   1.00
C541   C     0.75626   0.03293   0.95884   0.00000  Uiso   1.00
C542   C     0.74374   0.46707   0.04115   0.00000  Uiso   1.00
C543   C     0.96700   0.24409   0.95884   0.00000  Uiso   1.00
C544   C     0.53300   0.25591   0.04115   0.00000  Uiso   1.00
C545   C     0.59807   0.34807   0.25000   0.00000  Uiso   1.00
C546   C     0.90193   0.15193   0.75000   0.00000  Uiso   1.00
C547   C     0.65193   0.09806   0.25000   0.00000  Uiso   1.00
C548   C     0.84807   0.40194   0.75000   0.00000  Uiso   1.00
C549   C     0.90193   0.15193   0.25000   0.00000  Uiso   1.00
C550   C     0.59807   0.34807   0.75000   0.00000  Uiso   1.00
C551   C     0.84807   0.40194   0.25000   0.00000  Uiso   1.00
C552   C     0.65193   0.09806   0.75000   0.00000  Uiso   1.00
C553   C     0.59806   0.15193   0.75000   0.00000  Uiso   1.00
C554   C     0.90193   0.34807   0.25000   0.00000  Uiso   1.00
C555   C     0.65193   0.40193   0.75000   0.00000  Uiso   1.00
C556   C     0.84807   0.09807   0.25000   0.00000  Uiso   1.00
C557   C     0.90193   0.34807   0.75000   0.00000  Uiso   1.00
C558   C     0.59806   0.15193   0.25000   0.00000  Uiso   1.00
C559   C     0.84807   0.09807   0.75000   0.00000  Uiso   1.00
C560   C     0.65193   0.40193   0.25000   0.00000  Uiso   1.00
C561   C     0.50000   0.25000   0.47936   0.00000  Uiso   1.00
C562   C     0.50000   0.25000   0.52064   0.00000  Uiso   1.00
C563   C     0.75000   0.00000   0.47936   0.00000  Uiso   1.00
C564   C     0.75000   0.00000   0.52064   0.00000  Uiso   1.00
C565   C     0.75000  -0.00000   0.97936   0.00000  Uiso   1.00
C566   C     0.75000  -0.00000   0.02064   0.00000  Uiso   1.00
C567   C     0.50000   0.25000   0.97936   0.00000  Uiso   1.00
C568   C     0.50000   0.25000   0.02064   0.00000  Uiso   1.00
C569   C     0.60496   0.44992   0.26047   0.00000  Uiso   1.00
N570   N     0.59697   0.48015   0.26524   0.00000  Uiso   1.00
C571   C     0.89504   0.05008   0.73954   0.00000  Uiso   1.00
N572   N     0.90303   0.01985   0.73477   0.00000  Uiso   1.00
C573   C     0.60466   0.15952   0.17858   0.00000  Uiso   1.00
N574   N     0.59676   0.17383   0.14982   0.00000  Uiso   1.00
C575   C     0.89535   0.34048   0.82142   0.00000  Uiso   1.00
N576   N     0.90324   0.32617   0.85018   0.00000  Uiso   1.00
C577   C     0.89504   0.05008   0.26047   0.00000  Uiso   1.00
N578   N     0.90303   0.01985   0.26523   0.00000  Uiso   1.00
C579   C     0.60496   0.44992   0.73954   0.00000  Uiso   1.00
N580   N     0.59697   0.48015   0.73477   0.00000  Uiso   1.00
C581   C     0.89535   0.34048   0.17858   0.00000  Uiso   1.00
N582   N     0.90324   0.32617   0.14982   0.00000  Uiso   1.00
C583   C     0.60464   0.15951   0.82142   0.00000  Uiso   1.00
N584   N     0.59674   0.17381   0.85018   0.00000  Uiso   1.00
C585   C     0.65953   0.10465   0.82142   0.00000  Uiso   1.00
N586   N     0.67385   0.09676   0.85017   0.00000  Uiso   1.00
C587   C     0.84046   0.39533   0.17858   0.00000  Uiso   1.00
N588   N     0.82613   0.40322   0.14983   0.00000  Uiso   1.00
C589   C     0.55008   0.39504   0.73953   0.00000  Uiso   1.00
N590   N     0.51985   0.40303   0.73476   0.00000  Uiso   1.00
C591   C     0.94992   0.10496   0.26047   0.00000  Uiso   1.00
N592   N     0.98015   0.09697   0.26524   0.00000  Uiso   1.00
C593   C     0.84046   0.39534   0.82142   0.00000  Uiso   1.00
N594   N     0.82614   0.40322   0.85017   0.00000  Uiso   1.00
C595   C     0.65954   0.10467   0.17858   0.00000  Uiso   1.00
N596   N     0.67387   0.09678   0.14983   0.00000  Uiso   1.00
C597   C     0.94992   0.10496   0.73953   0.00000  Uiso   1.00
N598   N     0.98015   0.09697   0.73477   0.00000  Uiso   1.00
C599   C     0.55008   0.39504   0.26047   0.00000  Uiso   1.00
N600   N     0.51985   0.40303   0.26524   0.00000  Uiso   1.00
C601   C     0.85496   0.19992   0.76046   0.00000  Uiso   1.00
N602   N     0.84696   0.23015   0.76523   0.00000  Uiso   1.00
C603   C     0.64504   0.30008   0.23953   0.00000  Uiso   1.00
N604   N     0.65303   0.26985   0.23476   0.00000  Uiso   1.00
C605   C     0.85468   0.40955   0.67858   0.00000  Uiso   1.00
N606   N     0.84680   0.42388   0.64983   0.00000  Uiso   1.00
C607   C     0.64532   0.09044   0.32142   0.00000  Uiso   1.00
N608   N     0.65320   0.07611   0.35017   0.00000  Uiso   1.00
C609   C     0.64504   0.30008   0.76046   0.00000  Uiso   1.00
N610   N     0.65303   0.26985   0.76523   0.00000  Uiso   1.00
C611   C     0.85496   0.19992   0.23953   0.00000  Uiso   1.00
N612   N     0.84697   0.23015   0.23477   0.00000  Uiso   1.00
C613   C     0.64533   0.09046   0.67858   0.00000  Uiso   1.00
N614   N     0.65322   0.07614   0.64983   0.00000  Uiso   1.00
C615   C     0.85468   0.40955   0.32142   0.00000  Uiso   1.00
N616   N     0.84680   0.42389   0.35017   0.00000  Uiso   1.00
C617   C     0.90955   0.35468   0.32142   0.00000  Uiso   1.00
N618   N     0.92388   0.34679   0.35017   0.00000  Uiso   1.00
C619   C     0.59046   0.14534   0.67858   0.00000  Uiso   1.00
N620   N     0.57614   0.15323   0.64983   0.00000  Uiso   1.00
C621   C     0.80008   0.14504   0.23953   0.00000  Uiso   1.00
N622   N     0.76985   0.15303   0.23476   0.00000  Uiso   1.00
C623   C     0.69992   0.35496   0.76047   0.00000  Uiso   1.00
N624   N     0.73015   0.34697   0.76523   0.00000  Uiso   1.00
C625   C     0.59045   0.14532   0.32142   0.00000  Uiso   1.00
N626   N     0.57612   0.15321   0.35017   0.00000  Uiso   1.00
C627   C     0.90955   0.35467   0.67858   0.00000  Uiso   1.00
N628   N     0.92387   0.34679   0.64983   0.00000  Uiso   1.00
C629   C     0.69992   0.35496   0.23953   0.00000  Uiso   1.00
N630   N     0.73015   0.34697   0.23476   0.00000  Uiso   1.00
C631   C     0.80008   0.14504   0.76046   0.00000  Uiso   1.00
N632   N     0.76985   0.15303   0.76523   0.00000  Uiso   1.00
C633   C     0.51169   0.31873   0.39583   0.00000  Uiso   1.00
H634   H     0.50978   0.31626   0.36386   0.00000  Uiso   1.00
H635   H     0.99051   0.33878   0.40459   0.00000  Uiso   1.00
H636   H     0.53918   0.32986   0.40243   0.00000  Uiso   1.00
C637   C     0.98832   0.18127   0.60417   0.00000  Uiso   1.00
H638   H     0.99022   0.18374   0.63614   0.00000  Uiso   1.00
H639   H     0.96083   0.17014   0.59757   0.00000  Uiso   1.00
H640   H     0.50949   0.16122   0.59541   0.00000  Uiso   1.00
C641   C     0.68126   0.48832   0.39583   0.00000  Uiso   1.00
H642   H     0.68374   0.49022   0.36386   0.00000  Uiso   1.00
H643   H     0.67013   0.46083   0.40244   0.00000  Uiso   1.00
H644   H     0.66122   0.00950   0.40459   0.00000  Uiso   1.00
C645   C     0.81874   0.01168   0.60417   0.00000  Uiso   1.00
H646   H     0.81626   0.00977   0.63614   0.00000  Uiso   1.00
H647   H     0.83878   0.49050   0.59541   0.00000  Uiso   1.00
H648   H     0.82987   0.03916   0.59756   0.00000  Uiso   1.00
C649   C     0.98831   0.18127   0.39583   0.00000  Uiso   1.00
H650   H     0.99022   0.18374   0.36386   0.00000  Uiso   1.00
H651   H     0.50949   0.16122   0.40459   0.00000  Uiso   1.00
H652   H     0.96082   0.17014   0.40244   0.00000  Uiso   1.00
C653   C     0.51169   0.31873   0.60417   0.00000  Uiso   1.00
H654   H     0.50978   0.31626   0.63614   0.00000  Uiso   1.00
H655   H     0.53917   0.32986   0.59756   0.00000  Uiso   1.00
H656   H     0.99051   0.33878   0.59541   0.00000  Uiso   1.00
C657   C     0.81874   0.01168   0.39583   0.00000  Uiso   1.00
H658   H     0.81626   0.00977   0.36386   0.00000  Uiso   1.00
H659   H     0.82987   0.03916   0.40243   0.00000  Uiso   1.00
H660   H     0.83878   0.49050   0.40459   0.00000  Uiso   1.00
C661   C     0.68126   0.48833   0.60417   0.00000  Uiso   1.00
H662   H     0.68374   0.49023   0.63614   0.00000  Uiso   1.00
H663   H     0.66122   0.00951   0.59541   0.00000  Uiso   1.00
H664   H     0.67013   0.46084   0.59756   0.00000  Uiso   1.00
C665   C     0.76159   0.06875   0.89583   0.00000  Uiso   1.00
H666   H     0.75970   0.06627   0.86386   0.00000  Uiso   1.00
H667   H     0.74038   0.08876   0.90458   0.00000  Uiso   1.00
H668   H     0.78906   0.07992   0.90244   0.00000  Uiso   1.00
C669   C     0.73841   0.43125   0.10417   0.00000  Uiso   1.00
H670   H     0.74030   0.43373   0.13614   0.00000  Uiso   1.00
H671   H     0.71094   0.42008   0.09755   0.00000  Uiso   1.00
H672   H     0.75962   0.41124   0.09542   0.00000  Uiso   1.00
C673   C     0.93115   0.23903   0.89582   0.00000  Uiso   1.00
H674   H     0.93367   0.24079   0.86385   0.00000  Uiso   1.00
H675   H     0.91971   0.21169   0.90252   0.00000  Uiso   1.00
H676   H     0.91134   0.26046   0.90450   0.00000  Uiso   1.00
C677   C     0.56885   0.26098   0.10418   0.00000  Uiso   1.00
H678   H     0.56633   0.25922   0.13615   0.00000  Uiso   1.00
H679   H     0.58866   0.23955   0.09550   0.00000  Uiso   1.00
H680   H     0.58029   0.28832   0.09747   0.00000  Uiso   1.00
C681   C     0.73841   0.43125   0.89583   0.00000  Uiso   1.00
H682   H     0.74030   0.43373   0.86386   0.00000  Uiso   1.00
H683   H     0.75962   0.41124   0.90458   0.00000  Uiso   1.00
H684   H     0.71094   0.42008   0.90245   0.00000  Uiso   1.00
C685   C     0.76159   0.06875   0.10417   0.00000  Uiso   1.00
H686   H     0.75970   0.06627   0.13614   0.00000  Uiso   1.00
H687   H     0.78906   0.07992   0.09755   0.00000  Uiso   1.00
H688   H     0.74038   0.08876   0.09542   0.00000  Uiso   1.00
C689   C     0.56885   0.26097   0.89582   0.00000  Uiso   1.00
H690   H     0.58030   0.28831   0.90252   0.00000  Uiso   1.00
H691   H     0.58866   0.23954   0.90450   0.00000  Uiso   1.00
H692   H     0.56633   0.25921   0.86385   0.00000  Uiso   1.00
C693   C     0.93115   0.23902   0.10418   0.00000  Uiso   1.00
H694   H     0.91971   0.21168   0.09748   0.00000  Uiso   1.00
H695   H     0.93367   0.24078   0.13615   0.00000  Uiso   1.00
H696   H     0.91134   0.26045   0.09550   0.00000  Uiso   1.00
Zn697  Zn    0.20659   0.50000   0.21735   0.00000  Uiso   1.00
Zn698  Zn    0.29340   0.50000   0.78265   0.00000  Uiso   1.00
Zn699  Zn    0.00000   0.70659   0.21735   0.00000  Uiso   1.00
Zn700  Zn   -0.00000   0.79340   0.78265   0.00000  Uiso   1.00
Zn701  Zn    0.29340   0.50000   0.21735   0.00000  Uiso   1.00
Zn702  Zn    0.20659   0.50000   0.78265   0.00000  Uiso   1.00
Zn703  Zn   -0.00000   0.79340   0.21735   0.00000  Uiso   1.00
Zn704  Zn   -0.00000   0.70659   0.78265   0.00000  Uiso   1.00
Zn705  Zn    0.45659   0.75000   0.71735   0.00000  Uiso   1.00
Zn706  Zn    0.04340   0.75000   0.28265   0.00000  Uiso   1.00
Zn707  Zn    0.25000   0.95659   0.71735   0.00000  Uiso   1.00
Zn708  Zn    0.25000   0.54340   0.28265   0.00000  Uiso   1.00
Zn709  Zn    0.04340   0.75000   0.71735   0.00000  Uiso   1.00
Zn710  Zn    0.45659   0.75000   0.28265   0.00000  Uiso   1.00
Zn711  Zn    0.25000   0.54340   0.71735   0.00000  Uiso   1.00
Zn712  Zn    0.25000   0.95659   0.28265   0.00000  Uiso   1.00
C713   C     0.00601   0.78311   0.41784   0.00000  Uiso   1.00
C714   C     0.49399   0.71689   0.58216   0.00000  Uiso   1.00
C715   C     0.21689   0.99399   0.41784   0.00000  Uiso   1.00
C716   C     0.28311   0.50600   0.58216   0.00000  Uiso   1.00
C717   C     0.49399   0.71689   0.41784   0.00000  Uiso   1.00
C718   C     0.00601   0.78311   0.58216   0.00000  Uiso   1.00
C719   C     0.28311   0.50601   0.41784   0.00000  Uiso   1.00
C720   C     0.21689   0.99400   0.58216   0.00000  Uiso   1.00
C721   C     0.25596   0.53312   0.91784   0.00000  Uiso   1.00
C722   C     0.24404   0.96688   0.08216   0.00000  Uiso   1.00
C723   C     0.46682   0.74437   0.91784   0.00000  Uiso   1.00
C724   C     0.03318   0.75563   0.08216   0.00000  Uiso   1.00
C725   C     0.24404   0.96688   0.91784   0.00000  Uiso   1.00
C726   C     0.25596   0.53312   0.08215   0.00000  Uiso   1.00
C727   C     0.03318   0.75563   0.91784   0.00000  Uiso   1.00
C728   C     0.46683   0.74436   0.08216   0.00000  Uiso   1.00
C729   C    -0.00000   0.75000   0.39783   0.00000  Uiso   1.00
C730   C     0.00000   0.75000   0.60217   0.00000  Uiso   1.00
C731   C     0.25000   0.50000   0.39783   0.00000  Uiso   1.00
C732   C     0.25000   0.50000   0.60217   0.00000  Uiso   1.00
C733   C     0.25000   0.50000   0.89783   0.00000  Uiso   1.00
C734   C     0.25000   0.50000   0.10217   0.00000  Uiso   1.00
C735   C     0.00000   0.75000   0.89783   0.00000  Uiso   1.00
C736   C     0.00000   0.75000   0.10217   0.00000  Uiso   1.00
O737   O     0.25000   0.50000   0.25000   0.00000  Uiso   1.00
O738   O     0.25000   0.50000   0.75000   0.00000  Uiso   1.00
O739   O    -0.00000   0.75000   0.25000   0.00000  Uiso   1.00
O740   O     0.00000   0.75000   0.75000   0.00000  Uiso   1.00
O741   O     0.25000   0.96963   0.33755   0.00000  Uiso   1.00
O742   O     0.25000   0.53036   0.66245   0.00000  Uiso   1.00
O743   O     0.03036   0.75000   0.33755   0.00000  Uiso   1.00
O744   O     0.46963   0.75000   0.66245   0.00000  Uiso   1.00
O745   O     0.25000   0.53036   0.33755   0.00000  Uiso   1.00
O746   O     0.25000   0.96963   0.66245   0.00000  Uiso   1.00
O747   O     0.46963   0.75000   0.33755   0.00000  Uiso   1.00
O748   O     0.03036   0.75000   0.66245   0.00000  Uiso   1.00
O749   O    -0.00000   0.71963   0.83755   0.00000  Uiso   1.00
O750   O     0.00000   0.78036   0.16245   0.00000  Uiso   1.00
O751   O     0.28036   0.50000   0.83755   0.00000  Uiso   1.00
O752   O     0.21963   0.50000   0.16245   0.00000  Uiso   1.00
O753   O    -0.00000   0.78036   0.83755   0.00000  Uiso   1.00
O754   O    -0.00000   0.71963   0.16245   0.00000  Uiso   1.00
O755   O     0.21963   0.50000   0.83755   0.00000  Uiso   1.00
O756   O     0.28036   0.50000   0.16245   0.00000  Uiso   1.00
H757   H     0.48205   0.65906   0.46580   0.00000  Uiso   1.00
H758   H     0.01795   0.84094   0.53420   0.00000  Uiso   1.00
H759   H     0.34095   0.51794   0.46580   0.00000  Uiso   1.00
H760   H     0.15905   0.98206   0.53420   0.00000  Uiso   1.00
H761   H     0.01795   0.84094   0.46580   0.00000  Uiso   1.00
H762   H     0.48205   0.65906   0.53420   0.00000  Uiso   1.00
H763   H     0.15905   0.98206   0.46580   0.00000  Uiso   1.00
H764   H     0.34095   0.51794   0.53420   0.00000  Uiso   1.00
H765   H     0.23221   0.90903   0.96580   0.00000  Uiso   1.00
H766   H     0.26779   0.59097   0.03420   0.00000  Uiso   1.00
H767   H     0.09117   0.76675   0.96580   0.00000  Uiso   1.00
H768   H     0.40883   0.73324   0.03420   0.00000  Uiso   1.00
H769   H     0.26779   0.59097   0.96580   0.00000  Uiso   1.00
H770   H     0.23221   0.90903   0.03420   0.00000  Uiso   1.00
H771   H     0.40883   0.73324   0.96580   0.00000  Uiso   1.00
H772   H     0.09117   0.76676   0.03420   0.00000  Uiso   1.00
O773   O     0.20724   0.57307   0.27302   0.00000  Uiso   1.00
O774   O     0.29275   0.92692   0.72698   0.00000  Uiso   1.00
O775   O     0.42692   0.70724   0.27302   0.00000  Uiso   1.00
O776   O     0.07307   0.79275   0.72698   0.00000  Uiso   1.00
O777   O     0.29275   0.92692   0.27302   0.00000  Uiso   1.00
O778   O     0.20724   0.57307   0.72698   0.00000  Uiso   1.00
O779   O     0.07307   0.79275   0.27302   0.00000  Uiso   1.00
O780   O     0.42692   0.70724   0.72698   0.00000  Uiso   1.00
O781   O     0.20724   0.92692   0.72698   0.00000  Uiso   1.00
O782   O     0.29275   0.57307   0.27302   0.00000  Uiso   1.00
O783   O     0.42692   0.79275   0.72698   0.00000  Uiso   1.00
O784   O     0.07307   0.70724   0.27302   0.00000  Uiso   1.00
O785   O     0.29275   0.57307   0.72698   0.00000  Uiso   1.00
O786   O     0.20724   0.92692   0.27302   0.00000  Uiso   1.00
O787   O     0.07307   0.70724   0.72698   0.00000  Uiso   1.00
O788   O     0.42692   0.79275   0.27302   0.00000  Uiso   1.00
O789   O     0.45724   0.82307   0.77302   0.00000  Uiso   1.00
O790   O     0.04275   0.67692   0.22698   0.00000  Uiso   1.00
O791   O     0.17692   0.95724   0.77302   0.00000  Uiso   1.00
O792   O     0.32307   0.54275   0.22698   0.00000  Uiso   1.00
O793   O     0.04275   0.67692   0.77302   0.00000  Uiso   1.00
O794   O     0.45724   0.82307   0.22698   0.00000  Uiso   1.00
O795   O     0.32307   0.54275   0.77302   0.00000  Uiso   1.00
O796   O     0.17692   0.95724   0.22698   0.00000  Uiso   1.00
O797   O     0.45724   0.67692   0.22698   0.00000  Uiso   1.00
O798   O     0.04275   0.82307   0.77302   0.00000  Uiso   1.00
O799   O     0.17692   0.54275   0.22698   0.00000  Uiso   1.00
O800   O     0.32307   0.95724   0.77302   0.00000  Uiso   1.00
O801   O     0.04275   0.82307   0.22698   0.00000  Uiso   1.00
O802   O     0.45724   0.67692   0.77302   0.00000  Uiso   1.00
O803   O     0.32307   0.95724   0.22698   0.00000  Uiso   1.00
O804   O     0.17692   0.54275   0.77302   0.00000  Uiso   1.00
C805   C     0.48725   0.68488   0.47992   0.00000  Uiso   1.00
C806   C     0.01275   0.81512   0.52008   0.00000  Uiso   1.00
C807   C     0.31512   0.51274   0.47992   0.00000  Uiso   1.00
C808   C     0.18488   0.98726   0.52008   0.00000  Uiso   1.00
C809   C     0.01275   0.81512   0.47992   0.00000  Uiso   1.00
C810   C     0.48725   0.68488   0.52008   0.00000  Uiso   1.00
C811   C     0.18488   0.98726   0.47992   0.00000  Uiso   1.00
C812   C     0.31512   0.51274   0.52008   0.00000  Uiso   1.00
C813   C     0.23737   0.93486   0.97992   0.00000  Uiso   1.00
C814   C     0.26263   0.56514   0.02008   0.00000  Uiso   1.00
C815   C     0.06528   0.76190   0.97992   0.00000  Uiso   1.00
C816   C     0.43472   0.73809   0.02008   0.00000  Uiso   1.00
C817   C     0.26263   0.56514   0.97992   0.00000  Uiso   1.00
C818   C     0.23737   0.93486   0.02008   0.00000  Uiso   1.00
C819   C     0.43472   0.73809   0.97992   0.00000  Uiso   1.00
C820   C     0.06528   0.76190   0.02008   0.00000  Uiso   1.00
C821   C     0.25000   0.50000   0.35566   0.00000  Uiso   1.00
C822   C     0.25000   0.50000   0.64434   0.00000  Uiso   1.00
C823   C    -0.00000   0.75000   0.35566   0.00000  Uiso   1.00
C824   C     0.00000   0.75000   0.64434   0.00000  Uiso   1.00
C825   C    -0.00000   0.75000   0.85566   0.00000  Uiso   1.00
C826   C     0.00000   0.75000   0.14434   0.00000  Uiso   1.00
C827   C     0.25000   0.50000   0.85566   0.00000  Uiso   1.00
C828   C     0.25000   0.50000   0.14434   0.00000  Uiso   1.00
C829   C     0.18004   0.56996   0.25000   0.00000  Uiso   1.00
C830   C     0.31996   0.93004   0.75000   0.00000  Uiso   1.00
C831   C     0.43004   0.68004   0.25000   0.00000  Uiso   1.00
C832   C     0.06996   0.81996   0.75000   0.00000  Uiso   1.00
C833   C     0.31996   0.93004   0.25000   0.00000  Uiso   1.00
C834   C     0.18004   0.56996   0.75000   0.00000  Uiso   1.00
C835   C     0.06996   0.81996   0.25000   0.00000  Uiso   1.00
C836   C     0.43004   0.68004   0.75000   0.00000  Uiso   1.00
C837   C     0.18004   0.93004   0.75000   0.00000  Uiso   1.00
C838   C     0.31996   0.56996   0.25000   0.00000  Uiso   1.00
C839   C     0.43004   0.81996   0.75000   0.00000  Uiso   1.00
C840   C     0.06996   0.68004   0.25000   0.00000  Uiso   1.00
C841   C     0.31996   0.56996   0.75000   0.00000  Uiso   1.00
C842   C     0.18004   0.93004   0.25000   0.00000  Uiso   1.00
C843   C     0.06996   0.68004   0.75000   0.00000  Uiso   1.00
C844   C     0.43004   0.81996   0.25000   0.00000  Uiso   1.00
C845   C     0.11503   0.91198   0.25449   0.00000  Uiso   1.00
C846   C     0.38497   0.58802   0.74551   0.00000  Uiso   1.00
C847   C     0.11456   0.64157   0.21469   0.00000  Uiso   1.00
C848   C     0.38544   0.85843   0.78531   0.00000  Uiso   1.00
C849   C     0.38497   0.58802   0.25449   0.00000  Uiso   1.00
C850   C     0.11503   0.91198   0.74551   0.00000  Uiso   1.00
C851   C     0.38544   0.85843   0.21469   0.00000  Uiso   1.00
C852   C     0.11455   0.64156   0.78531   0.00000  Uiso   1.00
C853   C     0.14156   0.61455   0.78531   0.00000  Uiso   1.00
C854   C     0.35843   0.88544   0.21469   0.00000  Uiso   1.00
C855   C     0.08802   0.88497   0.74551   0.00000  Uiso   1.00
C856   C     0.41198   0.61503   0.25449   0.00000  Uiso   1.00
C857   C     0.35843   0.88544   0.78531   0.00000  Uiso   1.00
C858   C     0.14157   0.61456   0.21469   0.00000  Uiso   1.00
C859   C     0.41198   0.61503   0.74551   0.00000  Uiso   1.00
C860   C     0.08802   0.88497   0.25449   0.00000  Uiso   1.00
C861   C     0.36503   0.66198   0.75449   0.00000  Uiso   1.00
C862   C     0.13497   0.83802   0.24551   0.00000  Uiso   1.00
C863   C     0.36456   0.89158   0.71469   0.00000  Uiso   1.00
C864   C     0.13543   0.60842   0.28531   0.00000  Uiso   1.00
C865   C     0.13497   0.83802   0.75449   0.00000  Uiso   1.00
C866   C     0.36503   0.66198   0.24551   0.00000  Uiso   1.00
C867   C     0.13544   0.60843   0.71469   0.00000  Uiso   1.00
C868   C     0.36457   0.89158   0.28531   0.00000  Uiso   1.00
C869   C     0.39158   0.86456   0.28531   0.00000  Uiso   1.00
C870   C     0.10843   0.63544   0.71469   0.00000  Uiso   1.00
C871   C     0.33802   0.63497   0.24551   0.00000  Uiso   1.00
C872   C     0.16198   0.86503   0.75449   0.00000  Uiso   1.00
C873   C     0.10842   0.63543   0.28531   0.00000  Uiso   1.00
C874   C     0.39158   0.86456   0.71469   0.00000  Uiso   1.00
C875   C     0.16198   0.86503   0.24551   0.00000  Uiso   1.00
C876   C     0.33802   0.63497   0.75449   0.00000  Uiso   1.00
C877   C     0.49368   0.71708   0.45884   0.00000  Uiso   1.00
C878   C     0.00632   0.78292   0.54115   0.00000  Uiso   1.00
C879   C     0.28292   0.50631   0.45884   0.00000  Uiso   1.00
C880   C     0.21707   0.99369   0.54116   0.00000  Uiso   1.00
C881   C     0.00632   0.78292   0.45884   0.00000  Uiso   1.00
C882   C     0.49368   0.71708   0.54115   0.00000  Uiso   1.00
C883   C     0.21708   0.99369   0.45884   0.00000  Uiso   1.00
C884   C     0.28292   0.50631   0.54115   0.00000  Uiso   1.00
C885   C     0.24374   0.96707   0.95884   0.00000  Uiso   1.00
C886   C     0.25626   0.53293   0.04115   0.00000  Uiso   1.00
C887   C     0.03300   0.75590   0.95884   0.00000  Uiso   1.00
C888   C     0.46700   0.74409   0.04116   0.00000  Uiso   1.00
C889   C     0.25626   0.53293   0.95884   0.00000  Uiso   1.00
C890   C     0.24374   0.96707   0.04115   0.00000  Uiso   1.00
C891   C     0.46700   0.74409   0.95884   0.00000  Uiso   1.00
C892   C     0.03300   0.75591   0.04115   0.00000  Uiso   1.00
C893   C     0.09807   0.84807   0.25000   0.00000  Uiso   1.00
C894   C     0.40193   0.65193   0.75000   0.00000  Uiso   1.00
C895   C     0.15193   0.59806   0.25000   0.00000  Uiso   1.00
C896   C     0.34807   0.90194   0.75000   0.00000  Uiso   1.00
C897   C     0.40193   0.65193   0.25000   0.00000  Uiso   1.00
C898   C     0.09807   0.84807   0.75000   0.00000  Uiso   1.00
C899   C     0.34807   0.90194   0.25000   0.00000  Uiso   1.00
C900   C     0.15193   0.59806   0.75000   0.00000  Uiso   1.00
C901   C     0.09806   0.65193   0.75000   0.00000  Uiso   1.00
C902   C     0.40193   0.84807   0.25000   0.00000  Uiso   1.00
C903   C     0.15193   0.90193   0.75000   0.00000  Uiso   1.00
C904   C     0.34807   0.59807   0.25000   0.00000  Uiso   1.00
C905   C     0.40193   0.84807   0.75000   0.00000  Uiso   1.00
C906   C     0.09806   0.65193   0.25000   0.00000  Uiso   1.00
C907   C     0.34807   0.59807   0.75000   0.00000  Uiso   1.00
C908   C     0.15193   0.90193   0.25000   0.00000  Uiso   1.00
C909   C     0.00000   0.75000   0.47936   0.00000  Uiso   1.00
C910   C     0.00000   0.75000   0.52064   0.00000  Uiso   1.00
C911   C     0.25000   0.50000   0.47936   0.00000  Uiso   1.00
C912   C     0.25000   0.50000   0.52064   0.00000  Uiso   1.00
C913   C     0.25000   0.50000   0.97936   0.00000  Uiso   1.00
C914   C     0.25000   0.50000   0.02064   0.00000  Uiso   1.00
C915   C     0.00000   0.75000   0.97936   0.00000  Uiso   1.00
C916   C     0.00000   0.75000   0.02064   0.00000  Uiso   1.00
C917   C     0.10496   0.94992   0.26047   0.00000  Uiso   1.00
N918   N     0.09697   0.98015   0.26524   0.00000  Uiso   1.00
C919   C     0.39504   0.55008   0.73954   0.00000  Uiso   1.00
N920   N     0.40303   0.51985   0.73477   0.00000  Uiso   1.00
C921   C     0.10466   0.65952   0.17858   0.00000  Uiso   1.00
N922   N     0.09676   0.67383   0.14982   0.00000  Uiso   1.00
C923   C     0.39535   0.84048   0.82142   0.00000  Uiso   1.00
N924   N     0.40324   0.82617   0.85018   0.00000  Uiso   1.00
C925   C     0.39504   0.55008   0.26047   0.00000  Uiso   1.00
N926   N     0.40303   0.51985   0.26523   0.00000  Uiso   1.00
C927   C     0.10496   0.94992   0.73954   0.00000  Uiso   1.00
N928   N     0.09697   0.98015   0.73477   0.00000  Uiso   1.00
C929   C     0.39535   0.84048   0.17858   0.00000  Uiso   1.00
N930   N     0.40324   0.82617   0.14982   0.00000  Uiso   1.00
C931   C     0.10464   0.65951   0.82142   0.00000  Uiso   1.00
N932   N     0.09674   0.67381   0.85018   0.00000  Uiso   1.00
C933   C     0.15953   0.60465   0.82142   0.00000  Uiso   1.00
N934   N     0.17385   0.59676   0.85017   0.00000  Uiso   1.00
C935   C     0.34046   0.89533   0.17858   0.00000  Uiso   1.00
N936   N     0.32613   0.90322   0.14983   0.00000  Uiso   1.00
C937   C     0.05008   0.89504   0.73953   0.00000  Uiso   1.00
N938   N     0.01985   0.90303   0.73476   0.00000  Uiso   1.00
C939   C     0.44992   0.60496   0.26047   0.00000  Uiso   1.00
N940   N     0.48015   0.59697   0.26524   0.00000  Uiso   1.00
C941   C     0.34046   0.89534   0.82142   0.00000  Uiso   1.00
N942   N     0.32614   0.90322   0.85017   0.00000  Uiso   1.00
C943   C     0.15954   0.60467   0.17858   0.00000  Uiso   1.00
N944   N     0.17387   0.59678   0.14983   0.00000  Uiso   1.00
C945   C     0.44992   0.60496   0.73953   0.00000  Uiso   1.00
N946   N     0.48015   0.59697   0.73477   0.00000  Uiso   1.00
C947   C     0.05008   0.89504   0.26047   0.00000  Uiso   1.00
N948   N     0.01985   0.90303   0.26524   0.00000  Uiso   1.00
C949   C     0.35496   0.69992   0.76046   0.00000  Uiso   1.00
N950   N     0.34696   0.73015   0.76523   0.00000  Uiso   1.00
C951   C     0.14504   0.80008   0.23953   0.00000  Uiso   1.00
N952   N     0.15303   0.76985   0.23476   0.00000  Uiso   1.00
C953   C     0.35468   0.90955   0.67858   0.00000  Uiso   1.00
N954   N     0.34680   0.92388   0.64983   0.00000  Uiso   1.00
C955   C     0.14532   0.59044   0.32142   0.00000  Uiso   1.00
N956   N     0.15320   0.57611   0.35017   0.00000  Uiso   1.00
C957   C     0.14504   0.80008   0.76046   0.00000  Uiso   1.00
N958   N     0.15303   0.76985   0.76523   0.00000  Uiso   1.00
C959   C     0.35496   0.69992   0.23953   0.00000  Uiso   1.00
N960   N     0.34697   0.73015   0.23477   0.00000  Uiso   1.00
C961   C     0.14533   0.59046   0.67858   0.00000  Uiso   1.00
N962   N     0.15322   0.57614   0.64983   0.00000  Uiso   1.00
C963   C     0.35468   0.90955   0.32142   0.00000  Uiso   1.00
N964   N     0.34680   0.92389   0.35017   0.00000  Uiso   1.00
C965   C     0.40955   0.85468   0.32142   0.00000  Uiso   1.00
N966   N     0.42388   0.84679   0.35017   0.00000  Uiso   1.00
C967   C     0.09046   0.64534   0.67858   0.00000  Uiso   1.00
N968   N     0.07614   0.65323   0.64983   0.00000  Uiso   1.00
C969   C     0.30008   0.64504   0.23953   0.00000  Uiso   1.00
N970   N     0.26985   0.65303   0.23476   0.00000  Uiso   1.00
C971   C     0.19992   0.85496   0.76047   0.00000  Uiso   1.00
N972   N     0.23015   0.84697   0.76523   0.00000  Uiso   1.00
C973   C     0.09045   0.64532   0.32142   0.00000  Uiso   1.00
N974   N     0.07612   0.65321   0.35017   0.00000  Uiso   1.00
C975   C     0.40955   0.85467   0.67858   0.00000  Uiso   1.00
N976   N     0.42387   0.84679   0.64983   0.00000  Uiso   1.00
C977   C     0.19992   0.85496   0.23953   0.00000  Uiso   1.00
N978   N     0.23015   0.84697   0.23476   0.00000  Uiso   1.00
C979   C     0.30008   0.64504   0.76046   0.00000  Uiso   1.00
N980   N     0.26985   0.65303   0.76523   0.00000  Uiso   1.00
C981   C     0.01169   0.81873   0.39583   0.00000  Uiso   1.00
H982   H     0.00978   0.81626   0.36386   0.00000  Uiso   1.00
H983   H     0.49051   0.83878   0.40459   0.00000  Uiso   1.00
H984   H     0.03918   0.82986   0.40243   0.00000  Uiso   1.00
C985   C     0.48832   0.68127   0.60417   0.00000  Uiso   1.00
H986   H     0.49022   0.68374   0.63614   0.00000  Uiso   1.00
H987   H     0.46083   0.67014   0.59757   0.00000  Uiso   1.00
H988   H     0.00949   0.66122   0.59541   0.00000  Uiso   1.00
C989   C     0.18126   0.98832   0.39583   0.00000  Uiso   1.00
H990   H     0.18374   0.99022   0.36386   0.00000  Uiso   1.00
H991   H     0.17013   0.96083   0.40244   0.00000  Uiso   1.00
H992   H     0.16122   0.50950   0.40459   0.00000  Uiso   1.00
C993   C     0.31874   0.51168   0.60417   0.00000  Uiso   1.00
H994   H     0.31626   0.50977   0.63614   0.00000  Uiso   1.00
H995   H     0.33878   0.99050   0.59541   0.00000  Uiso   1.00
H996   H     0.32987   0.53916   0.59756   0.00000  Uiso   1.00
C997   C     0.48831   0.68127   0.39583   0.00000  Uiso   1.00
H998   H     0.49022   0.68374   0.36386   0.00000  Uiso   1.00
H999   H     0.00949   0.66122   0.40459   0.00000  Uiso   1.00
H1000  H     0.46082   0.67014   0.40244   0.00000  Uiso   1.00
C1001  C     0.01169   0.81873   0.60417   0.00000  Uiso   1.00
H1002  H     0.00978   0.81626   0.63614   0.00000  Uiso   1.00
H1003  H     0.03917   0.82986   0.59756   0.00000  Uiso   1.00
H1004  H     0.49051   0.83878   0.59541   0.00000  Uiso   1.00
C1005  C     0.31874   0.51168   0.39583   0.00000  Uiso   1.00
H1006  H     0.31626   0.50977   0.36386   0.00000  Uiso   1.00
H1007  H     0.32987   0.53916   0.40243   0.00000  Uiso   1.00
H1008  H     0.33878   0.99050   0.40459   0.00000  Uiso   1.00
C1009  C     0.18126   0.98833   0.60417   0.00000  Uiso   1.00
H1010  H     0.18374   0.99023   0.63614   0.00000  Uiso   1.00
H1011  H     0.16122   0.50951   0.59541   0.00000  Uiso   1.00
H1012  H     0.17013   0.96084   0.59756   0.00000  Uiso   1.00
C1013  C     0.26159   0.56875   0.89583   0.00000  Uiso   1.00
H1014  H     0.25970   0.56627   0.86386   0.00000  Uiso   1.00
H1015  H     0.24038   0.58876   0.90458   0.00000  Uiso   1.00
H1016  H     0.28906   0.57992   0.90244   0.00000  Uiso   1.00
C1017  C     0.23841   0.93125   0.10417   0.00000  Uiso   1.00
H1018  H     0.24030   0.93373   0.13614   0.00000  Uiso   1.00
H1019  H     0.21094   0.92008   0.09755   0.00000  Uiso   1.00
H1020  H     0.25962   0.91124   0.09542   0.00000  Uiso   1.00
C1021  C     0.43115   0.73903   0.89582   0.00000  Uiso   1.00
H1022  H     0.43367   0.74079   0.86385   0.00000  Uiso   1.00
H1023  H     0.41971   0.71169   0.90252   0.00000  Uiso   1.00
H1024  H     0.41134   0.76046   0.90450   0.00000  Uiso   1.00
C1025  C     0.06885   0.76098   0.10418   0.00000  Uiso   1.00
H1026  H     0.06633   0.75922   0.13615   0.00000  Uiso   1.00
H1027  H     0.08866   0.73955   0.09550   0.00000  Uiso   1.00
H1028  H     0.08029   0.78832   0.09747   0.00000  Uiso   1.00
C1029  C     0.23841   0.93125   0.89583   0.00000  Uiso   1.00
H1030  H     0.24030   0.93373   0.86386   0.00000  Uiso   1.00
H1031  H     0.25962   0.91124   0.90458   0.00000  Uiso   1.00
H1032  H     0.21094   0.92008   0.90245   0.00000  Uiso   1.00
C1033  C     0.26159   0.56875   0.10417   0.00000  Uiso   1.00
H1034  H     0.25970   0.56627   0.13614   0.00000  Uiso   1.00
H1035  H     0.28906   0.57992   0.09755   0.00000  Uiso   1.00
H1036  H     0.24038   0.58876   0.09542   0.00000  Uiso   1.00
C1037  C     0.06885   0.76097   0.89582   0.00000  Uiso   1.00
H1038  H     0.08030   0.78831   0.90252   0.00000  Uiso   1.00
H1039  H     0.08866   0.73954   0.90450   0.00000  Uiso   1.00
H1040  H     0.06633   0.75921   0.86385   0.00000  Uiso   1.00
C1041  C     0.43115   0.73902   0.10418   0.00000  Uiso   1.00
H1042  H     0.41971   0.71168   0.09748   0.00000  Uiso   1.00
H1043  H     0.43367   0.74078   0.13615   0.00000  Uiso   1.00
H1044  H     0.41134   0.76045   0.09550   0.00000  Uiso   1.00
Zn1045 Zn    0.70659   0.50000   0.21735   0.00000  Uiso   1.00
Zn1046 Zn    0.79340   0.50000   0.78265   0.00000  Uiso   1.00
Zn1047 Zn    0.50000   0.70659   0.21735   0.00000  Uiso   1.00
Zn1048 Zn    0.50000   0.79340   0.78265   0.00000  Uiso   1.00
Zn1049 Zn    0.79340   0.50000   0.21735   0.00000  Uiso   1.00
Zn1050 Zn    0.70659   0.50000   0.78265   0.00000  Uiso   1.00
Zn1051 Zn    0.50000   0.79340   0.21735   0.00000  Uiso   1.00
Zn1052 Zn    0.50000   0.70659   0.78265   0.00000  Uiso   1.00
Zn1053 Zn    0.95659   0.75000   0.71735   0.00000  Uiso   1.00
Zn1054 Zn    0.54340   0.75000   0.28265   0.00000  Uiso   1.00
Zn1055 Zn    0.75000   0.95659   0.71735   0.00000  Uiso   1.00
Zn1056 Zn    0.75000   0.54340   0.28265   0.00000  Uiso   1.00
Zn1057 Zn    0.54340   0.75000   0.71735   0.00000  Uiso   1.00
Zn1058 Zn    0.95659   0.75000   0.28265   0.00000  Uiso   1.00
Zn1059 Zn    0.75000   0.54340   0.71735   0.00000  Uiso   1.00
Zn1060 Zn    0.75000   0.95659   0.28265   0.00000  Uiso   1.00
C1061  C     0.50601   0.78311   0.41784   0.00000  Uiso   1.00
C1062  C     0.99399   0.71689   0.58216   0.00000  Uiso   1.00
C1063  C     0.71689   0.99399   0.41784   0.00000  Uiso   1.00
C1064  C     0.78311   0.50600   0.58216   0.00000  Uiso   1.00
C1065  C     0.99399   0.71689   0.41784   0.00000  Uiso   1.00
C1066  C     0.50601   0.78311   0.58216   0.00000  Uiso   1.00
C1067  C     0.78311   0.50601   0.41784   0.00000  Uiso   1.00
C1068  C     0.71689   0.99400   0.58216   0.00000  Uiso   1.00
C1069  C     0.75596   0.53312   0.91784   0.00000  Uiso   1.00
C1070  C     0.74404   0.96688   0.08216   0.00000  Uiso   1.00
C1071  C     0.96682   0.74437   0.91784   0.00000  Uiso   1.00
C1072  C     0.53318   0.75563   0.08216   0.00000  Uiso   1.00
C1073  C     0.74404   0.96688   0.91784   0.00000  Uiso   1.00
C1074  C     0.75596   0.53312   0.08215   0.00000  Uiso   1.00
C1075  C     0.53318   0.75563   0.91784   0.00000  Uiso   1.00
C1076  C     0.96683   0.74436   0.08216   0.00000  Uiso   1.00
C1077  C     0.50000   0.75000   0.39783   0.00000  Uiso   1.00
C1078  C     0.50000   0.75000   0.60217   0.00000  Uiso   1.00
C1079  C     0.75000   0.50000   0.39783   0.00000  Uiso   1.00
C1080  C     0.75000   0.50000   0.60217   0.00000  Uiso   1.00
C1081  C     0.75000   0.50000   0.89783   0.00000  Uiso   1.00
C1082  C     0.75000   0.50000   0.10217   0.00000  Uiso   1.00
C1083  C     0.50000   0.75000   0.89783   0.00000  Uiso   1.00
C1084  C     0.50000   0.75000   0.10217   0.00000  Uiso   1.00
O1085  O     0.75000   0.50000   0.25000   0.00000  Uiso   1.00
O1086  O     0.75000   0.50000   0.75000   0.00000  Uiso   1.00
O1087  O     0.50000   0.75000   0.25000   0.00000  Uiso   1.00
O1088  O     0.50000   0.75000   0.75000   0.00000  Uiso   1.00
O1089  O     0.75000   0.96963   0.33755   0.00000  Uiso   1.00
O1090  O     0.75000   0.53036   0.66245   0.00000  Uiso   1.00
O1091  O     0.53036   0.75000   0.33755   0.00000  Uiso   1.00
O1092  O     0.96963   0.75000   0.66245   0.00000  Uiso   1.00
O1093  O     0.75000   0.53036   0.33755   0.00000  Uiso   1.00
O1094  O     0.75000   0.96963   0.66245   0.00000  Uiso   1.00
O1095  O     0.96963   0.75000   0.33755   0.00000  Uiso   1.00
O1096  O     0.53036   0.75000   0.66245   0.00000  Uiso   1.00
O1097  O     0.50000   0.71963   0.83755   0.00000  Uiso   1.00
O1098  O     0.50000   0.78036   0.16245   0.00000  Uiso   1.00
O1099  O     0.78036   0.50000   0.83755   0.00000  Uiso   1.00
O1100  O     0.71963   0.50000   0.16245   0.00000  Uiso   1.00
O1101  O     0.50000   0.78036   0.83755   0.00000  Uiso   1.00
O1102  O     0.50000   0.71963   0.16245   0.00000  Uiso   1.00
O1103  O     0.71963   0.50000   0.83755   0.00000  Uiso   1.00
O1104  O     0.78036   0.50000   0.16245   0.00000  Uiso   1.00
H1105  H     0.98205   0.65906   0.46580   0.00000  Uiso   1.00
H1106  H     0.51795   0.84094   0.53420   0.00000  Uiso   1.00
H1107  H     0.84095   0.51794   0.46580   0.00000  Uiso   1.00
H1108  H     0.65905   0.98206   0.53420   0.00000  Uiso   1.00
H1109  H     0.51795   0.84094   0.46580   0.00000  Uiso   1.00
H1110  H     0.98205   0.65906   0.53420   0.00000  Uiso   1.00
H1111  H     0.65905   0.98206   0.46580   0.00000  Uiso   1.00
H1112  H     0.84095   0.51794   0.53420   0.00000  Uiso   1.00
H1113  H     0.73221   0.90903   0.96580   0.00000  Uiso   1.00
H1114  H     0.76779   0.59097   0.03420   0.00000  Uiso   1.00
H1115  H     0.59117   0.76675   0.96580   0.00000  Uiso   1.00
H1116  H     0.90883   0.73324   0.03420   0.00000  Uiso   1.00
H1117  H     0.76779   0.59097   0.96580   0.00000  Uiso   1.00
H1118  H     0.73221   0.90903   0.03420   0.00000  Uiso   1.00
H1119  H     0.90883   0.73324   0.96580   0.00000  Uiso   1.00
H1120  H     0.59117   0.76676   0.03420   0.00000  Uiso   1.00
O1121  O     0.70724   0.57307   0.27302   0.00000  Uiso   1.00
O1122  O     0.79275   0.92692   0.72698   0.00000  Uiso   1.00
O1123  O     0.92692   0.70724   0.27302   0.00000  Uiso   1.00
O1124  O     0.57307   0.79275   0.72698   0.00000  Uiso   1.00
O1125  O     0.79275   0.92692   0.27302   0.00000  Uiso   1.00
O1126  O     0.70724   0.57307   0.72698   0.00000  Uiso   1.00
O1127  O     0.57307   0.79275   0.27302   0.00000  Uiso   1.00
O1128  O     0.92692   0.70724   0.72698   0.00000  Uiso   1.00
O1129  O     0.70724   0.92692   0.72698   0.00000  Uiso   1.00
O1130  O     0.79275   0.57307   0.27302   0.00000  Uiso   1.00
O1131  O     0.92692   0.79275   0.72698   0.00000  Uiso   1.00
O1132  O     0.57307   0.70724   0.27302   0.00000  Uiso   1.00
O1133  O     0.79275   0.57307   0.72698   0.00000  Uiso   1.00
O1134  O     0.70724   0.92692   0.27302   0.00000  Uiso   1.00
O1135  O     0.57307   0.70724   0.72698   0.00000  Uiso   1.00
O1136  O     0.92692   0.79275   0.27302   0.00000  Uiso   1.00
O1137  O     0.95724   0.82307   0.77302   0.00000  Uiso   1.00
O1138  O     0.54275   0.67692   0.22698   0.00000  Uiso   1.00
O1139  O     0.67692   0.95724   0.77302   0.00000  Uiso   1.00
O1140  O     0.82307   0.54275   0.22698   0.00000  Uiso   1.00
O1141  O     0.54275   0.67692   0.77302   0.00000  Uiso   1.00
O1142  O     0.95724   0.82307   0.22698   0.00000  Uiso   1.00
O1143  O     0.82307   0.54275   0.77302   0.00000  Uiso   1.00
O1144  O     0.67692   0.95724   0.22698   0.00000  Uiso   1.00
O1145  O     0.95724   0.67692   0.22698   0.00000  Uiso   1.00
O1146  O     0.54275   0.82307   0.77302   0.00000  Uiso   1.00
O1147  O     0.67692   0.54275   0.22698   0.00000  Uiso   1.00
O1148  O     0.82307   0.95724   0.77302   0.00000  Uiso   1.00
O1149  O     0.54275   0.82307   0.22698   0.00000  Uiso   1.00
O1150  O     0.95724   0.67692   0.77302   0.00000  Uiso   1.00
O1151  O     0.82307   0.95724   0.22698   0.00000  Uiso   1.00
O1152  O     0.67692   0.54275   0.77302   0.00000  Uiso   1.00
C1153  C     0.98725   0.68488   0.47992   0.00000  Uiso   1.00
C1154  C     0.51275   0.81512   0.52008   0.00000  Uiso   1.00
C1155  C     0.81512   0.51274   0.47992   0.00000  Uiso   1.00
C1156  C     0.68488   0.98726   0.52008   0.00000  Uiso   1.00
C1157  C     0.51275   0.81512   0.47992   0.00000  Uiso   1.00
C1158  C     0.98725   0.68488   0.52008   0.00000  Uiso   1.00
C1159  C     0.68488   0.98726   0.47992   0.00000  Uiso   1.00
C1160  C     0.81512   0.51274   0.52008   0.00000  Uiso   1.00
C1161  C     0.73737   0.93486   0.97992   0.00000  Uiso   1.00
C1162  C     0.76263   0.56514   0.02008   0.00000  Uiso   1.00
C1163  C     0.56528   0.76190   0.97992   0.00000  Uiso   1.00
C1164  C     0.93472   0.73809   0.02008   0.00000  Uiso   1.00
C1165  C     0.76263   0.56514   0.97992   0.00000  Uiso   1.00
C1166  C     0.73737   0.93486   0.02008   0.00000  Uiso   1.00
C1167  C     0.93472   0.73809   0.97992   0.00000  Uiso   1.00
C1168  C     0.56528   0.76190   0.02008   0.00000  Uiso   1.00
C1169  C     0.75000   0.50000   0.35566   0.00000  Uiso   1.00
C1170  C     0.75000   0.50000   0.64434   0.00000  Uiso   1.00
C1171  C     0.50000   0.75000   0.35566   0.00000  Uiso   1.00
C1172  C     0.50000   0.75000   0.64434   0.00000  Uiso   1.00
C1173  C     0.50000   0.75000   0.85566   0.00000  Uiso   1.00
C1174  C     0.50000   0.75000   0.14434   0.00000  Uiso   1.00
C1175  C     0.75000   0.50000   0.85566   0.00000  Uiso   1.00
C1176  C     0.75000   0.50000   0.14434   0.00000  Uiso   1.00
C1177  C     0.68004   0.56996   0.25000   0.00000  Uiso   1.00
C1178  C     0.81996   0.93004   0.75000   0.00000  Uiso   1.00
C1179  C     0.93004   0.68004   0.25000   0.00000  Uiso   1.00
C1180  C     0.56996   0.81996   0.75000   0.00000  Uiso   1.00
C1181  C     0.81996   0.93004   0.25000   0.00000  Uiso   1.00
C1182  C     0.68004   0.56996   0.75000   0.00000  Uiso   1.00
C1183  C     0.56996   0.81996   0.25000   0.00000  Uiso   1.00
C1184  C     0.93004   0.68004   0.75000   0.00000  Uiso   1.00
C1185  C     0.68004   0.93004   0.75000   0.00000  Uiso   1.00
C1186  C     0.81996   0.56996   0.25000   0.00000  Uiso   1.00
C1187  C     0.93004   0.81996   0.75000   0.00000  Uiso   1.00
C1188  C     0.56996   0.68004   0.25000   0.00000  Uiso   1.00
C1189  C     0.81996   0.56996   0.75000   0.00000  Uiso   1.00
C1190  C     0.68004   0.93004   0.25000   0.00000  Uiso   1.00
C1191  C     0.56996   0.68004   0.75000   0.00000  Uiso   1.00
C1192  C     0.93004   0.81996   0.25000   0.00000  Uiso   1.00
C1193  C     0.61503   0.91198   0.25449   0.00000  Uiso   1.00
C1194  C     0.88497   0.58802   0.74551   0.00000  Uiso   1.00
C1195  C     0.61456   0.64157   0.21469   0.00000  Uiso   1.00
C1196  C     0.88544   0.85843   0.78531   0.00000  Uiso   1.00
C1197  C     0.88497   0.58802   0.25449   0.00000  Uiso   1.00
C1198  C     0.61503   0.91198   0.74551   0.00000  Uiso   1.00
C1199  C     0.88544   0.85843   0.21469   0.00000  Uiso   1.00
C1200  C     0.61455   0.64156   0.78531   0.00000  Uiso   1.00
C1201  C     0.64156   0.61455   0.78531   0.00000  Uiso   1.00
C1202  C     0.85843   0.88544   0.21469   0.00000  Uiso   1.00
C1203  C     0.58802   0.88497   0.74551   0.00000  Uiso   1.00
C1204  C     0.91198   0.61503   0.25449   0.00000  Uiso   1.00
C1205  C     0.85843   0.88544   0.78531   0.00000  Uiso   1.00
C1206  C     0.64157   0.61456   0.21469   0.00000  Uiso   1.00
C1207  C     0.91198   0.61503   0.74551   0.00000  Uiso   1.00
C1208  C     0.58802   0.88497   0.25449   0.00000  Uiso   1.00
C1209  C     0.86503   0.66198   0.75449   0.00000  Uiso   1.00
C1210  C     0.63497   0.83802   0.24551   0.00000  Uiso   1.00
C1211  C     0.86456   0.89158   0.71469   0.00000  Uiso   1.00
C1212  C     0.63543   0.60842   0.28531   0.00000  Uiso   1.00
C1213  C     0.63497   0.83802   0.75449   0.00000  Uiso   1.00
C1214  C     0.86503   0.66198   0.24551   0.00000  Uiso   1.00
C1215  C     0.63544   0.60843   0.71469   0.00000  Uiso   1.00
C1216  C     0.86457   0.89158   0.28531   0.00000  Uiso   1.00
C1217  C     0.89158   0.86456   0.28531   0.00000  Uiso   1.00
C1218  C     0.60843   0.63544   0.71469   0.00000  Uiso   1.00
C1219  C     0.83802   0.63497   0.24551   0.00000  Uiso   1.00
C1220  C     0.66198   0.86503   0.75449   0.00000  Uiso   1.00
C1221  C     0.60842   0.63543   0.28531   0.00000  Uiso   1.00
C1222  C     0.89158   0.86456   0.71469   0.00000  Uiso   1.00
C1223  C     0.66198   0.86503   0.24551   0.00000  Uiso   1.00
C1224  C     0.83802   0.63497   0.75449   0.00000  Uiso   1.00
C1225  C     0.99368   0.71708   0.45884   0.00000  Uiso   1.00
C1226  C     0.50632   0.78292   0.54115   0.00000  Uiso   1.00
C1227  C     0.78292   0.50631   0.45884   0.00000  Uiso   1.00
C1228  C     0.71707   0.99369   0.54116   0.00000  Uiso   1.00
C1229  C     0.50632   0.78292   0.45884   0.00000  Uiso   1.00
C1230  C     0.99368   0.71708   0.54115   0.00000  Uiso   1.00
C1231  C     0.71708   0.99369   0.45884   0.00000  Uiso   1.00
C1232  C     0.78292   0.50631   0.54115   0.00000  Uiso   1.00
C1233  C     0.74374   0.96707   0.95884   0.00000  Uiso   1.00
C1234  C     0.75626   0.53293   0.04115   0.00000  Uiso   1.00
C1235  C     0.53300   0.75590   0.95884   0.00000  Uiso   1.00
C1236  C     0.96700   0.74409   0.04116   0.00000  Uiso   1.00
C1237  C     0.75626   0.53293   0.95884   0.00000  Uiso   1.00
C1238  C     0.74374   0.96707   0.04115   0.00000  Uiso   1.00
C1239  C     0.96700   0.74409   0.95884   0.00000  Uiso   1.00
C1240  C     0.53300   0.75591   0.04115   0.00000  Uiso   1.00
C1241  C     0.59807   0.84807   0.25000   0.00000  Uiso   1.00
C1242  C     0.90193   0.65193   0.75000   0.00000  Uiso   1.00
C1243  C     0.65193   0.59806   0.25000   0.00000  Uiso   1.00
C1244  C     0.84807   0.90194   0.75000   0.00000  Uiso   1.00
C1245  C     0.90193   0.65193   0.25000   0.00000  Uiso   1.00
C1246  C     0.59807   0.84807   0.75000   0.00000  Uiso   1.00
C1247  C     0.84807   0.90194   0.25000   0.00000  Uiso   1.00
C1248  C     0.65193   0.59806   0.75000   0.00000  Uiso   1.00
C1249  C     0.59806   0.65193   0.75000   0.00000  Uiso   1.00
C1250  C     0.90193   0.84807   0.25000   0.00000  Uiso   1.00
C1251  C     0.65193   0.90193   0.75000   0.00000  Uiso   1.00
C1252  C     0.84807   0.59807   0.25000   0.00000  Uiso   1.00
C1253  C     0.90193   0.84807   0.75000   0.00000  Uiso   1.00
C1254  C     0.59806   0.65193   0.25000   0.00000  Uiso   1.00
C1255  C     0.84807   0.59807   0.75000   0.00000  Uiso   1.00
C1256  C     0.65193   0.90193   0.25000   0.00000  Uiso   1.00
C1257  C     0.50000   0.75000   0.47936   0.00000  Uiso   1.00
C1258  C     0.50000   0.75000   0.52064   0.00000  Uiso   1.00
C1259  C     0.75000   0.50000   0.47936   0.00000  Uiso   1.00
C1260  C     0.75000   0.50000   0.52064   0.00000  Uiso   1.00
C1261  C     0.75000   0.50000   0.97936   0.00000  Uiso   1.00
C1262  C     0.75000   0.50000   0.02064   0.00000  Uiso   1.00
C1263  C     0.50000   0.75000   0.97936   0.00000  Uiso   1.00
C1264  C     0.50000   0.75000   0.02064   0.00000  Uiso   1.00
C1265  C     0.60496   0.94992   0.26047   0.00000  Uiso   1.00
N1266  N     0.59697   0.98015   0.26524   0.00000  Uiso   1.00
C1267  C     0.89504   0.55008   0.73954   0.00000  Uiso   1.00
N1268  N     0.90303   0.51985   0.73477   0.00000  Uiso   1.00
C1269  C     0.60466   0.65952   0.17858   0.00000  Uiso   1.00
N1270  N     0.59676   0.67383   0.14982   0.00000  Uiso   1.00
C1271  C     0.89535   0.84048   0.82142   0.00000  Uiso   1.00
N1272  N     0.90324   0.82617   0.85018   0.00000  Uiso   1.00
C1273  C     0.89504   0.55008   0.26047   0.00000  Uiso   1.00
N1274  N     0.90303   0.51985   0.26523   0.00000  Uiso   1.00
C1275  C     0.60496   0.94992   0.73954   0.00000  Uiso   1.00
N1276  N     0.59697   0.98015   0.73477   0.00000  Uiso   1.00
C1277  C     0.89535   0.84048   0.17858   0.00000  Uiso   1.00
N1278  N     0.90324   0.82617   0.14982   0.00000  Uiso   1.00
C1279  C     0.60464   0.65951   0.82142   0.00000  Uiso   1.00
N1280  N     0.59674   0.67381   0.85018   0.00000  Uiso   1.00
C1281  C     0.65953   0.60465   0.82142   0.00000  Uiso   1.00
N1282  N     0.67385   0.59676   0.85017   0.00000  Uiso   1.00
C1283  C     0.84046   0.89533   0.17858   0.00000  Uiso   1.00
N1284  N     0.82613   0.90322   0.14983   0.00000  Uiso   1.00
C1285  C     0.55008   0.89504   0.73953   0.00000  Uiso   1.00
N1286  N     0.51985   0.90303   0.73476   0.00000  Uiso   1.00
C1287  C     0.94992   0.60496   0.26047   0.00000  Uiso   1.00
N1288  N     0.98015   0.59697   0.26524   0.00000  Uiso   1.00
C1289  C     0.84046   0.89534   0.82142   0.00000  Uiso   1.00
N1290  N     0.82614   0.90322   0.85017   0.00000  Uiso   1.00
C1291  C     0.65954   0.60467   0.17858   0.00000  Uiso   1.00
N1292  N     0.67387   0.59678   0.14983   0.00000  Uiso   1.00
C1293  C     0.94992   0.60496   0.73953   0.00000  Uiso   1.00
N1294  N     0.98015   0.59697   0.73477   0.00000  Uiso   1.00
C1295  C     0.55008   0.89504   0.26047   0.00000  Uiso   1.00
N1296  N     0.51985   0.90303   0.26524   0.00000  Uiso   1.00
C1297  C     0.85496   0.69992   0.76046   0.00000  Uiso   1.00
N1298  N     0.84696   0.73015   0.76523   0.00000  Uiso   1.00
C1299  C     0.64504   0.80008   0.23953   0.00000  Uiso   1.00
N1300  N     0.65303   0.76985   0.23476   0.00000  Uiso   1.00
C1301  C     0.85468   0.90955   0.67858   0.00000  Uiso   1.00
N1302  N     0.84680   0.92388   0.64983   0.00000  Uiso   1.00
C1303  C     0.64532   0.59044   0.32142   0.00000  Uiso   1.00
N1304  N     0.65320   0.57611   0.35017   0.00000  Uiso   1.00
C1305  C     0.64504   0.80008   0.76046   0.00000  Uiso   1.00
N1306  N     0.65303   0.76985   0.76523   0.00000  Uiso   1.00
C1307  C     0.85496   0.69992   0.23953   0.00000  Uiso   1.00
N1308  N     0.84697   0.73015   0.23477   0.00000  Uiso   1.00
C1309  C     0.64533   0.59046   0.67858   0.00000  Uiso   1.00
N1310  N     0.65322   0.57614   0.64983   0.00000  Uiso   1.00
C1311  C     0.85468   0.90955   0.32142   0.00000  Uiso   1.00
N1312  N     0.84680   0.92389   0.35017   0.00000  Uiso   1.00
C1313  C     0.90955   0.85468   0.32142   0.00000  Uiso   1.00
N1314  N     0.92388   0.84679   0.35017   0.00000  Uiso   1.00
C1315  C     0.59046   0.64534   0.67858   0.00000  Uiso   1.00
N1316  N     0.57614   0.65323   0.64983   0.00000  Uiso   1.00
C1317  C     0.80008   0.64504   0.23953   0.00000  Uiso   1.00
N1318  N     0.76985   0.65303   0.23476   0.00000  Uiso   1.00
C1319  C     0.69992   0.85496   0.76047   0.00000  Uiso   1.00
N1320  N     0.73015   0.84697   0.76523   0.00000  Uiso   1.00
C1321  C     0.59045   0.64532   0.32142   0.00000  Uiso   1.00
N1322  N     0.57612   0.65321   0.35017   0.00000  Uiso   1.00
C1323  C     0.90955   0.85467   0.67858   0.00000  Uiso   1.00
N1324  N     0.92387   0.84679   0.64983   0.00000  Uiso   1.00
C1325  C     0.69992   0.85496   0.23953   0.00000  Uiso   1.00
N1326  N     0.73015   0.84697   0.23476   0.00000  Uiso   1.00
C1327  C     0.80008   0.64504   0.76046   0.00000  Uiso   1.00
N1328  N     0.76985   0.65303   0.76523   0.00000  Uiso   1.00
C1329  C     0.51169   0.81873   0.39583   0.00000  Uiso   1.00
H1330  H     0.50978   0.81626   0.36386   0.00000  Uiso   1.00
H1331  H     0.99051   0.83878   0.40459   0.00000  Uiso   1.00
H1332  H     0.53918   0.82986   0.40243   0.00000  Uiso   1.00
C1333  C     0.98832   0.68127   0.60417   0.00000  Uiso   1.00
H1334  H     0.99022   0.68374   0.63614   0.00000  Uiso   1.00
H1335  H     0.96083   0.67014   0.59757   0.00000  Uiso   1.00
H1336  H     0.50949   0.66122   0.59541   0.00000  Uiso   1.00
C1337  C     0.68126   0.98832   0.39583   0.00000  Uiso   1.00
H1338  H     0.68374   0.99022   0.36386   0.00000  Uiso   1.00
H1339  H     0.67013   0.96083   0.40244   0.00000  Uiso   1.00
H1340  H     0.66122   0.50950   0.40459   0.00000  Uiso   1.00
C1341  C     0.81874   0.51168   0.60417   0.00000  Uiso   1.00
H1342  H     0.81626   0.50977   0.63614   0.00000  Uiso   1.00
H1343  H     0.83878   0.99050   0.59541   0.00000  Uiso   1.00
H1344  H     0.82987   0.53916   0.59756   0.00000  Uiso   1.00
C1345  C     0.98831   0.68127   0.39583   0.00000  Uiso   1.00
H1346  H     0.99022   0.68374   0.36386   0.00000  Uiso   1.00
H1347  H     0.50949   0.66122   0.40459   0.00000  Uiso   1.00
H1348  H     0.96082   0.67014   0.40244   0.00000  Uiso   1.00
C1349  C     0.51169   0.81873   0.60417   0.00000  Uiso   1.00
H1350  H     0.50978   0.81626   0.63614   0.00000  Uiso   1.00
H1351  H     0.53917   0.82986   0.59756   0.00000  Uiso   1.00
H1352  H     0.99051   0.83878   0.59541   0.00000  Uiso   1.00
C1353  C     0.81874   0.51168   0.39583   0.00000  Uiso   1.00
H1354  H     0.81626   0.50977   0.36386   0.00000  Uiso   1.00
H1355  H     0.82987   0.53916   0.40243   0.00000  Uiso   1.00
H1356  H     0.83878   0.99050   0.40459   0.00000  Uiso   1.00
C1357  C     0.68126   0.98833   0.60417   0.00000  Uiso   1.00
H1358  H     0.68374   0.99023   0.63614   0.00000  Uiso   1.00
H1359  H     0.66122   0.50951   0.59541   0.00000  Uiso   1.00
H1360  H     0.67013   0.96084   0.59756   0.00000  Uiso   1.00
C1361  C     0.76159   0.56875   0.89583   0.00000  Uiso   1.00
H1362  H     0.75970   0.56627   0.86386   0.00000  Uiso   1.00
H1363  H     0.74038   0.58876   0.90458   0.00000  Uiso   1.00
H1364  H     0.78906   0.57992   0.90244   0.00000  Uiso   1.00
C1365  C     0.73841   0.93125   0.10417   0.00000  Uiso   1.00
H1366  H     0.74030   0.93373   0.13614   0.00000  Uiso   1.00
H1367  H     0.71094   0.92008   0.09755   0.00000  Uiso   1.00
H1368  H     0.75962   0.91124   0.09542   0.00000  Uiso   1.00
C1369  C     0.93115   0.73903   0.89582   0.00000  Uiso   1.00
H1370  H     0.93367   0.74079   0.86385   0.00000  Uiso   1.00
H1371  H     0.91971   0.71169   0.90252   0.00000  Uiso   1.00
H1372  H     0.91134   0.76046   0.90450   0.00000  Uiso   1.00
C1373  C     0.56885   0.76098   0.10418   0.00000  Uiso   1.00
H1374  H     0.56633   0.75922   0.13615   0.00000  Uiso   1.00
H1375  H     0.58866   0.73955   0.09550   0.00000  Uiso   1.00
H1376  H     0.58029   0.78832   0.09747   0.00000  Uiso   1.00
C1377  C     0.73841   0.93125   0.89583   0.00000  Uiso   1.00
H1378  H     0.74030   0.93373   0.86386   0.00000  Uiso   1.00
H1379  H     0.75962   0.91124   0.90458   0.00000  Uiso   1.00
H1380  H     0.71094   0.92008   0.90245   0.00000  Uiso   1.00
C1381  C     0.76159   0.56875   0.10417   0.00000  Uiso   1.00
H1382  H     0.75970   0.56627   0.13614   0.00000  Uiso   1.00
H1383  H     0.78906   0.57992   0.09755   0.00000  Uiso   1.00
H1384  H     0.74038   0.58876   0.09542   0.00000  Uiso   1.00
C1385  C     0.56885   0.76097   0.89582   0.00000  Uiso   1.00
H1386  H     0.58030   0.78831   0.90252   0.00000  Uiso   1.00
H1387  H     0.58866   0.73954   0.90450   0.00000  Uiso   1.00
H1388  H     0.56633   0.75921   0.86385   0.00000  Uiso   1.00
C1389  C     0.93115   0.73902   0.10418   0.00000  Uiso   1.00
H1390  H     0.91971   0.71168   0.09748   0.00000  Uiso   1.00
H1391  H     0.93367   0.74078   0.13615   0.00000  Uiso   1.00
H1392  H     0.91134   0.76045   0.09550   0.00000  Uiso   1.00
loop_
_geom_bond_atom_site_label_1
_geom_bond_atom_site_label_2
_geom_bond_distance
_geom_bond_site_symmetry_2
_ccdc_geom_bond_type
Zn1    O56     1.950   .     S
Zn1    O41     1.948   .     S
Zn1    O103    1.936   .     S
Zn1    O796    1.936   1_545 S
Zn2    O55     1.950   .     S
Zn2    O99     1.936   .     S
Zn2    O42     1.948   .     S
Zn2    O800    1.936   1_545 S
Zn3    O94     1.936   .     S
Zn3    O43     1.948   .     S
Zn3    O58     1.950   .     S
Zn3    O449    1.936   1_455 S
Zn4    O441    1.936   1_455 S
Zn4    O57     1.950   .     S
Zn4    O44     1.948   .     S
Zn4    O102    1.936   .     S
Zn5    O60     1.950   .     S
Zn5    O96     1.936   .     S
Zn5    O41     1.948   .     S
Zn5    O803    1.936   1_545 S
Zn6    O42     1.948   .     S
Zn6    O59     1.950   .     S
Zn6    O108    1.936   .     S
Zn6    O791    1.936   1_545 S
Zn7    O43     1.948   .     S
Zn7    O446    1.936   1_455 S
Zn7    O54     1.950   .     S
Zn7    O105    1.936   .     S
Zn8    O53     1.950   .     S
Zn8    O454    1.936   1_455 S
Zn8    O44     1.948   .     S
Zn8    O97     1.936   .     S
Zn9    O48     1.950   .     S
Zn9    O87     1.936   .     S
Zn9    O84     1.936   .     S
Zn9    O392    1.948   .     S
Zn10   O47     1.950   .     S
Zn10   O88     1.936   .     S
Zn10   O83     1.936   .     S
Zn10   O43     1.948   .     S
Zn11   O85     1.936   .     S
Zn11   O50     1.950   .     S
Zn11   O78     1.936   .     S
Zn11   O738    1.948   .     S
Zn12   O49     1.950   .     S
Zn12   O86     1.936   .     S
Zn12   O77     1.936   .     S
Zn12   O41     1.948   .     S
Zn13   O91     1.936   .     S
Zn13   O44     1.948   .     S
Zn13   O80     1.936   .     S
Zn13   O52     1.950   .     S
Zn14   O391    1.948   .     S
Zn14   O79     1.936   .     S
Zn14   O51     1.950   .     S
Zn14   O92     1.936   .     S
Zn15   O42     1.948   .     S
Zn15   O89     1.936   .     S
Zn15   O82     1.936   .     S
Zn15   O46     1.950   .     S
Zn16   O45     1.950   .     S
Zn16   O81     1.936   .     S
Zn16   O90     1.936   .     S
Zn16   O737    1.948   .     S
C17    C185    1.412   .     A
C17    C285    1.524   .     S
C17    C33     1.413   .     S
C18    C289    1.524   .     S
C18    C186    1.412   .     A
C18    C382    1.413   .     S
C19    C731    1.413   .     A
C19    C293    1.524   .     S
C19    C187    1.412   .     A
C20    C188    1.412   .     A
C20    C297    1.524   .     S
C20    C36     1.413   .     A
C21    C381    1.413   .     A
C21    C181    1.412   .     A
C21    C301    1.524   .     S
C22    C34     1.413   .     A
C22    C182    1.412   .     A
C22    C305    1.524   .     S
C23    C183    1.412   .     A
C23    C309    1.524   .     S
C23    C35     1.413   .     S
C24    C184    1.412   .     A
C24    C313    1.524   .     S
C24    C732    1.413   .     S
C25    C317    1.524   .     S
C25    C193    1.412   .     A
C25    C37     1.413   .     S
C26    C194    1.412   .     A
C26    C321    1.524   .     S
C26    C734    1.413   .     S
C27    C325    1.524   .     S
C27    C195    1.412   .     A
C27    C387    1.413   .     S
C28    C40     1.413   .     A
C28    C329    1.524   .     S
C28    C196    1.412   .     A
C29    C333    1.524   .     S
C29    C189    1.412   .     A
C29    C733    1.413   .     A
C30    C38     1.413   .     A
C30    C337    1.524   .     S
C30    C190    1.412   .     A
C31    C191    1.412   .     A
C31    C341    1.524   .     S
C31    C39     1.413   .     A
C32    C345    1.524   .     S
C32    C192    1.412   .     A
C32    C388    1.413   .     S
C33    C369    1.413   1_455 A
C33    C127    1.452   .     S
C34    C128    1.452   .     S
C34    C366    1.413   1_455 S
C35    C715    1.413   1_545 A
C35    C125    1.452   .     S
C36    C126    1.452   .     S
C36    C720    1.413   1_545 S
C37    C131    1.452   .     S
C37    C725    1.413   1_545 A
C38    C132    1.452   .     S
C38    C722    1.413   1_545 S
C39    C375    1.413   1_455 S
C39    C129    1.452   .     S
C40    C130    1.452   .     S
C40    C380    1.413   1_455 S
O41    Zn712   1.948   1_545 S
O42    Zn707   1.948   1_545 S
O43    Zn362   1.948   1_455 S
O44    Zn357   1.948   1_455 S
O45    C821    1.276   .     A
O46    C126    1.276   .     A
O47    C127    1.276   .     S
O48    C476    1.276   .     S
O49    C125    1.276   .     S
O50    C822    1.276   .     S
O51    C475    1.276   .     A
O52    C128    1.276   .     A
O53    C129    1.276   .     A
O54    C130    1.276   .     A
O55    C131    1.276   .     S
O56    C132    1.276   .     A
O57    C129    1.276   .     A
O58    C130    1.276   .     S
O59    C131    1.276   .     S
O60    C132    1.276   .     A
H61    C109    1.081   .     S
H62    C110    1.081   .     S
H63    C111    1.081   .     S
H64    C112    1.081   .     S
H65    C113    1.081   .     S
H66    C114    1.081   .     S
H67    C115    1.081   .     S
H68    C116    1.081   .     S
H69    C117    1.081   .     S
H70    C118    1.081   .     S
H71    C119    1.081   .     S
H72    C120    1.081   .     S
H73    C121    1.081   .     S
H74    C122    1.081   .     S
H75    C123    1.081   .     S
H76    C124    1.081   .     S
O77    C133    1.279   .     A
O78    C134    1.279   .     A
O79    C135    1.279   .     A
O80    C136    1.279   .     A
O81    C137    1.279   .     A
O82    C138    1.279   .     A
O83    C139    1.279   .     A
O84    C140    1.279   .     A
O85    C141    1.279   .     A
O86    C142    1.279   .     A
O87    C143    1.279   .     A
O88    C144    1.279   .     A
O89    C145    1.279   .     A
O90    C146    1.279   .     A
O91    C147    1.279   .     A
O92    C148    1.279   .     A
O93    Zn352   1.936   .     S
O93    C143    1.279   .     A
O94    C144    1.279   .     A
O95    C141    1.279   .     A
O95    Zn702   1.936   .     S
O96    C142    1.279   .     A
O97    C147    1.279   .     A
O98    C148    1.279   .     A
O98    Zn355   1.936   .     S
O99    C145    1.279   .     A
O100   C146    1.279   .     A
O100   Zn697   1.936   .     S
O101   C135    1.279   .     A
O101   Zn351   1.936   .     S
O102   C136    1.279   .     A
O103   C133    1.279   .     A
O104   C134    1.279   .     A
O104   Zn698   1.936   .     S
O105   C139    1.279   .     A
O106   C140    1.279   .     A
O106   Zn356   1.936   .     S
O107   C137    1.279   .     A
O107   Zn701   1.936   .     S
O108   C138    1.279   .     A
C109   C114    1.383   .     A
C109   C181    1.405   .     A
C110   C182    1.405   .     A
C110   C113    1.383   .     A
C111   C183    1.405   .     A
C111   C116    1.383   .     A
C112   C184    1.405   .     A
C112   C115    1.383   .     A
C113   C185    1.405   .     A
C114   C186    1.405   .     A
C115   C187    1.405   .     A
C116   C188    1.405   .     A
C117   C189    1.405   .     A
C117   C122    1.383   1_556 S
C118   C190    1.405   .     A
C118   C121    1.383   1_554 S
C119   C191    1.405   .     A
C119   C124    1.383   1_556 S
C120   C192    1.405   .     A
C120   C123    1.383   1_554 S
C121   C193    1.405   .     A
C121   C118    1.383   1_556 S
C122   C194    1.405   .     A
C122   C117    1.383   1_554 S
C123   C195    1.405   .     A
C123   C120    1.383   1_556 S
C124   C196    1.405   .     A
C124   C119    1.383   1_554 S
C125   O741    1.276   1_545 A
C126   O746    1.276   1_545 S
C127   O399    1.276   1_455 A
C128   O396    1.276   1_455 S
C133   C199    1.456   .     S
C134   C200    1.456   .     S
C135   C201    1.457   .     S
C136   C202    1.457   .     S
C137   C203    1.456   .     S
C138   C204    1.456   .     S
C139   C197    1.457   .     S
C140   C198    1.457   .     S
C141   C207    1.457   .     S
C142   C208    1.457   .     S
C143   C209    1.456   .     S
C144   C210    1.456   .     S
C145   C211    1.457   .     S
C146   C212    1.457   .     S
C147   C205    1.456   .     S
C148   C206    1.457   .     S
C149   C221    1.453   .     S
C149   C212    1.410   .     A
C149   C164    1.400   .     A
C150   C223    1.453   .     S
C150   C163    1.400   .     A
C150   C211    1.410   .     A
C151   C225    1.453   .     S
C151   C210    1.410   .     A
C151   C162    1.400   .     A
C152   C209    1.410   .     A
C152   C161    1.400   .     A
C152   C227    1.453   .     S
C153   C208    1.410   .     A
C153   C229    1.453   .     S
C153   C160    1.400   .     A
C154   C231    1.453   .     S
C154   C207    1.410   .     A
C154   C159    1.400   .     A
C155   C233    1.453   .     S
C155   C158    1.400   .     A
C155   C206    1.410   .     A
C156   C235    1.453   .     S
C156   C205    1.410   .     A
C156   C157    1.400   .     A
C157   C204    1.410   .     A
C157   C237    1.453   .     S
C158   C203    1.410   .     A
C158   C239    1.453   .     S
C159   C202    1.410   .     A
C159   C241    1.453   .     S
C160   C201    1.410   .     A
C160   C243    1.453   .     S
C161   C245    1.453   .     S
C161   C200    1.410   .     A
C162   C247    1.453   .     S
C162   C199    1.410   .     A
C163   C198    1.410   .     A
C163   C249    1.453   .     S
C164   C197    1.410   .     A
C164   C251    1.453   .     S
C165   C198    1.410   .     A
C165   C253    1.453   .     S
C165   C180    1.400   .     A
C166   C255    1.453   .     S
C166   C197    1.410   .     A
C166   C179    1.400   .     A
C167   C200    1.410   .     A
C167   C178    1.400   .     A
C167   C257    1.453   .     S
C168   C177    1.400   .     A
C168   C199    1.410   .     A
C168   C259    1.453   .     S
C169   C261    1.453   .     S
C169   C176    1.400   .     A
C169   C202    1.410   .     A
C170   C175    1.400   .     A
C170   C201    1.410   .     A
C170   C263    1.453   .     S
C171   C265    1.453   .     S
C171   C174    1.400   .     A
C171   C204    1.410   .     A
C172   C203    1.410   .     A
C172   C267    1.453   .     S
C172   C173    1.400   .     A
C173   C269    1.453   .     S
C173   C206    1.410   .     A
C174   C205    1.410   .     A
C174   C271    1.453   .     S
C175   C273    1.453   .     S
C175   C208    1.410   .     A
C176   C275    1.453   .     S
C176   C207    1.410   .     A
C177   C210    1.410   .     A
C177   C277    1.453   .     S
C178   C279    1.453   .     S
C178   C209    1.410   .     A
C179   C212    1.410   .     A
C179   C281    1.453   .     S
C180   C211    1.410   .     A
C180   C283    1.453   .     S
C181   C561    1.417   .     S
C182   C214    1.417   .     A
C183   C215    1.417   .     A
C184   C912    1.417   .     S
C185   C213    1.417   .     A
C186   C562    1.417   .     S
C187   C911    1.417   .     S
C188   C216    1.417   .     A
C189   C913    1.417   .     A
C190   C218    1.417   .     A
C191   C219    1.417   .     A
C192   C568    1.417   .     S
C193   C217    1.417   .     S
C194   C914    1.417   .     S
C195   C567    1.417   .     S
C196   C220    1.417   .     A
C213   C214    1.422   .     A
C213   C529    1.417   1_455 S
C214   C534    1.417   1_455 S
C215   C216    1.422   .     A
C215   C883    1.417   1_545 S
C216   C880    1.417   1_545 S
C217   C885    1.417   1_545 A
C217   C218    1.422   1_556 S
C218   C890    1.417   1_545 S
C218   C217    1.422   1_554 S
C219   C543    1.417   1_455 S
C219   C220    1.422   1_556 S
C220   C540    1.417   1_455 S
C220   C219    1.422   1_554 S
C221   N222    1.157   .     T
C223   N224    1.157   .     T
C225   N226    1.157   .     T
C227   N228    1.157   .     T
C229   N230    1.157   .     T
C231   N232    1.157   .     T
C233   N234    1.157   .     T
C235   N236    1.157   .     T
C237   N238    1.157   .     T
C239   N240    1.157   .     T
C241   N242    1.157   .     T
C243   N244    1.157   .     T
C245   N246    1.157   .     T
C247   N248    1.157   .     T
C249   N250    1.157   .     T
C251   N252    1.157   .     T
C253   N254    1.157   .     T
C255   N256    1.157   .     T
C257   N258    1.157   .     T
C259   N260    1.157   .     T
C261   N262    1.157   .     T
C263   N264    1.157   .     T
C265   N266    1.157   .     T
C267   N268    1.157   .     T
C269   N270    1.157   .     T
C271   N272    1.157   .     T
C273   N274    1.157   .     T
C275   N276    1.157   .     T
C277   N278    1.157   .     T
C279   N280    1.157   .     T
C281   N282    1.157   .     T
C283   N284    1.157   .     T
C285   H286    1.107   .     S
C285   H288    1.110   .     S
C285   H635    1.110   1_455 S
H287   C633    1.110   .     S
C289   H290    1.107   .     S
C289   H291    1.110   .     S
C289   H640    1.110   .     S
H292   C637    1.110   1_455 S
C293   H294    1.107   .     S
C293   H295    1.110   .     S
C293   H992    1.110   .     S
H296   C989    1.110   1_545 S
C297   H298    1.107   .     S
C297   H300    1.110   .     S
C297   H995    1.110   1_545 S
H299   C993    1.110   .     S
C301   H302    1.107   .     S
C301   H304    1.110   .     S
C301   H651    1.110   .     S
H303   C649    1.110   1_455 S
C305   H307    1.110   .     S
C305   H306    1.107   .     S
C305   H656    1.110   1_455 S
H308   C653    1.110   .     S
C309   H311    1.110   .     S
C309   H310    1.107   .     S
C309   H1008   1.110   1_545 S
H312   C1005   1.110   .     S
C313   H314    1.107   .     S
C313   H316    1.110   .     S
C313   H1011   1.110   .     S
H315   C1009   1.110   1_545 S
C317   H319    1.110   .     S
C317   H320    1.110   .     S
C317   H318    1.107   .     S
C321   H322    1.107   .     S
C321   H324    1.110   .     S
C321   H323    1.110   .     S
C325   H326    1.107   .     S
C325   H327    1.110   .     S
C325   H328    1.110   .     S
C329   H330    1.107   .     S
C329   H332    1.110   .     S
C329   H331    1.110   .     S
C333   H334    1.107   .     S
C333   H336    1.110   .     S
C333   H335    1.110   .     S
C337   H338    1.107   .     S
C337   H340    1.110   .     S
C337   H339    1.110   .     S
C341   H343    1.110   .     S
C341   H344    1.107   .     S
C341   H342    1.110   .     S
C345   H348    1.110   .     S
C345   H347    1.107   .     S
C345   H346    1.110   .     S
Zn349  O404    1.950   .     S
Zn349  O389    1.948   .     S
Zn349  O451    1.936   .     S
Zn349  O1144   1.936   1_545 S
Zn350  O403    1.950   .     S
Zn350  O447    1.936   .     S
Zn350  O390    1.948   .     S
Zn350  O1148   1.936   1_545 S
Zn351  O442    1.936   .     S
Zn351  O391    1.948   .     S
Zn351  O406    1.950   .     S
Zn352  O405    1.950   .     S
Zn352  O392    1.948   .     S
Zn352  O450    1.936   .     S
Zn353  O408    1.950   .     S
Zn353  O444    1.936   .     S
Zn353  O389    1.948   .     S
Zn353  O1151   1.936   1_545 S
Zn354  O390    1.948   .     S
Zn354  O407    1.950   .     S
Zn354  O456    1.936   .     S
Zn354  O1139   1.936   1_545 S
Zn355  O391    1.948   .     S
Zn355  O402    1.950   .     S
Zn355  O453    1.936   .     S
Zn356  O401    1.950   .     S
Zn356  O392    1.948   .     S
Zn356  O445    1.936   .     S
Zn357  O396    1.950   .     S
Zn357  O435    1.936   .     S
Zn357  O432    1.936   .     S
Zn357  O44     1.948   1_655 S
Zn358  O395    1.950   .     S
Zn358  O436    1.936   .     S
Zn358  O431    1.936   .     S
Zn358  O391    1.948   .     S
Zn359  O433    1.936   .     S
Zn359  O398    1.950   .     S
Zn359  O426    1.936   .     S
Zn359  O1086   1.948   .     S
Zn360  O397    1.950   .     S
Zn360  O434    1.936   .     S
Zn360  O425    1.936   .     S
Zn360  O389    1.948   .     S
Zn361  O439    1.936   .     S
Zn361  O392    1.948   .     S
Zn361  O428    1.936   .     S
Zn361  O400    1.950   .     S
Zn362  O43     1.948   1_655 S
Zn362  O427    1.936   .     S
Zn362  O399    1.950   .     S
Zn362  O440    1.936   .     S
Zn363  O390    1.948   .     S
Zn363  O437    1.936   .     S
Zn363  O430    1.936   .     S
Zn363  O394    1.950   .     S
Zn364  O393    1.950   .     S
Zn364  O429    1.936   .     S
Zn364  O438    1.936   .     S
Zn364  O1085   1.948   .     S
C365   C533    1.412   .     A
C365   C633    1.524   .     S
C365   C381    1.413   .     S
C366   C637    1.524   .     S
C366   C534    1.412   .     A
C366   C34     1.413   1_655 S
C367   C1079   1.413   .     A
C367   C641    1.524   .     S
C367   C535    1.412   .     A
C368   C536    1.412   .     A
C368   C645    1.524   .     S
C368   C384    1.413   .     A
C369   C33     1.413   1_655 A
C369   C529    1.412   .     A
C369   C649    1.524   .     S
C370   C382    1.413   .     A
C370   C530    1.412   .     A
C370   C653    1.524   .     S
C371   C531    1.412   .     A
C371   C657    1.524   .     S
C371   C383    1.413   .     S
C372   C532    1.412   .     A
C372   C661    1.524   .     S
C372   C1080   1.413   .     S
C373   C665    1.524   .     S
C373   C541    1.412   .     A
C373   C385    1.413   .     S
C374   C542    1.412   .     A
C374   C669    1.524   .     S
C374   C1082   1.413   .     S
C375   C673    1.524   .     S
C375   C543    1.412   .     A
C375   C39     1.413   1_655 S
C376   C388    1.413   .     A
C376   C677    1.524   .     S
C376   C544    1.412   .     A
C377   C681    1.524   .     S
C377   C537    1.412   .     A
C377   C1081   1.413   .     A
C378   C386    1.413   .     A
C378   C685    1.524   .     S
C378   C538    1.412   .     A
C379   C539    1.412   .     A
C379   C689    1.524   .     S
C379   C387    1.413   .     A
C380   C693    1.524   .     S
C380   C540    1.412   .     A
C380   C40     1.413   1_655 S
C381   C475    1.452   .     S
C382   C476    1.452   .     S
C383   C1063   1.413   1_545 A
C383   C473    1.452   .     S
C384   C474    1.452   .     S
C384   C1068   1.413   1_545 S
C385   C479    1.452   .     S
C385   C1073   1.413   1_545 A
C386   C480    1.452   .     S
C386   C1070   1.413   1_545 S
C387   C477    1.452   .     S
C388   C478    1.452   .     S
O389   Zn1060  1.948   1_545 S
O390   Zn1055  1.948   1_545 S
O393   C1169   1.276   .     A
O394   C474    1.276   .     A
O395   C475    1.276   .     S
O396   C128    1.276   1_655 S
O397   C473    1.276   .     S
O398   C1170   1.276   .     S
O399   C127    1.276   1_655 A
O400   C476    1.276   .     A
O401   C477    1.276   .     A
O402   C478    1.276   .     A
O403   C479    1.276   .     S
O404   C480    1.276   .     A
O405   C477    1.276   .     A
O406   C478    1.276   .     S
O407   C479    1.276   .     S
O408   C480    1.276   .     A
H409   C457    1.081   .     S
H410   C458    1.081   .     S
H411   C459    1.081   .     S
H412   C460    1.081   .     S
H413   C461    1.081   .     S
H414   C462    1.081   .     S
H415   C463    1.081   .     S
H416   C464    1.081   .     S
H417   C465    1.081   .     S
H418   C466    1.081   .     S
H419   C467    1.081   .     S
H420   C468    1.081   .     S
H421   C469    1.081   .     S
H422   C470    1.081   .     S
H423   C471    1.081   .     S
H424   C472    1.081   .     S
O425   C481    1.279   .     A
O426   C482    1.279   .     A
O427   C483    1.279   .     A
O428   C484    1.279   .     A
O429   C485    1.279   .     A
O430   C486    1.279   .     A
O431   C487    1.279   .     A
O432   C488    1.279   .     A
O433   C489    1.279   .     A
O434   C490    1.279   .     A
O435   C491    1.279   .     A
O436   C492    1.279   .     A
O437   C493    1.279   .     A
O438   C494    1.279   .     A
O439   C495    1.279   .     A
O440   C496    1.279   .     A
O441   Zn4     1.936   1_655 S
O441   C491    1.279   .     A
O442   C492    1.279   .     A
O443   C489    1.279   .     A
O443   Zn1050  1.936   .     S
O444   C490    1.279   .     A
O445   C495    1.279   .     A
O446   C496    1.279   .     A
O446   Zn7     1.936   1_655 S
O447   C493    1.279   .     A
O448   C494    1.279   .     A
O448   Zn1045  1.936   .     S
O449   C483    1.279   .     A
O449   Zn3     1.936   1_655 S
O450   C484    1.279   .     A
O451   C481    1.279   .     A
O452   C482    1.279   .     A
O452   Zn1046  1.936   .     S
O453   C487    1.279   .     A
O454   C488    1.279   .     A
O454   Zn8     1.936   1_655 S
O455   C485    1.279   .     A
O455   Zn1049  1.936   .     S
O456   C486    1.279   .     A
C457   C462    1.383   .     A
C457   C529    1.405   .     A
C458   C530    1.405   .     A
C458   C461    1.383   .     A
C459   C531    1.405   .     A
C459   C464    1.383   .     A
C460   C532    1.405   .     A
C460   C463    1.383   .     A
C461   C533    1.405   .     A
C462   C534    1.405   .     A
C463   C535    1.405   .     A
C464   C536    1.405   .     A
C465   C537    1.405   .     A
C465   C470    1.383   1_556 S
C466   C538    1.405   .     A
C466   C469    1.383   1_554 S
C467   C539    1.405   .     A
C467   C472    1.383   1_556 S
C468   C540    1.405   .     A
C468   C471    1.383   1_554 S
C469   C541    1.405   .     A
C469   C466    1.383   1_556 S
C470   C542    1.405   .     A
C470   C465    1.383   1_554 S
C471   C543    1.405   .     A
C471   C468    1.383   1_556 S
C472   C544    1.405   .     A
C472   C467    1.383   1_554 S
C473   O1089   1.276   1_545 A
C474   O1094   1.276   1_545 S
C481   C547    1.456   .     S
C482   C548    1.456   .     S
C483   C549    1.457   .     S
C484   C550    1.457   .     S
C485   C551    1.456   .     S
C486   C552    1.456   .     S
C487   C545    1.457   .     S
C488   C546    1.457   .     S
C489   C555    1.457   .     S
C490   C556    1.457   .     S
C491   C557    1.456   .     S
C492   C558    1.456   .     S
C493   C559    1.457   .     S
C494   C560    1.457   .     S
C495   C553    1.456   .     S
C496   C554    1.457   .     S
C497   C569    1.453   .     S
C497   C560    1.410   .     A
C497   C512    1.400   .     A
C498   C571    1.453   .     S
C498   C511    1.400   .     A
C498   C559    1.410   .     A
C499   C573    1.453   .     S
C499   C558    1.410   .     A
C499   C510    1.400   .     A
C500   C557    1.410   .     A
C500   C509    1.400   .     A
C500   C575    1.453   .     S
C501   C556    1.410   .     A
C501   C577    1.453   .     S
C501   C508    1.400   .     A
C502   C579    1.453   .     S
C502   C555    1.410   .     A
C502   C507    1.400   .     A
C503   C581    1.453   .     S
C503   C506    1.400   .     A
C503   C554    1.410   .     A
C504   C583    1.453   .     S
C504   C553    1.410   .     A
C504   C505    1.400   .     A
C505   C552    1.410   .     A
C505   C585    1.453   .     S
C506   C551    1.410   .     A
C506   C587    1.453   .     S
C507   C550    1.410   .     A
C507   C589    1.453   .     S
C508   C549    1.410   .     A
C508   C591    1.453   .     S
C509   C593    1.453   .     S
C509   C548    1.410   .     A
C510   C595    1.453   .     S
C510   C547    1.410   .     A
C511   C546    1.410   .     A
C511   C597    1.453   .     S
C512   C545    1.410   .     A
C512   C599    1.453   .     S
C513   C546    1.410   .     A
C513   C601    1.453   .     S
C513   C528    1.400   .     A
C514   C603    1.453   .     S
C514   C545    1.410   .     A
C514   C527    1.400   .     A
C515   C548    1.410   .     A
C515   C526    1.400   .     A
C515   C605    1.453   .     S
C516   C525    1.400   .     A
C516   C547    1.410   .     A
C516   C607    1.453   .     S
C517   C609    1.453   .     S
C517   C524    1.400   .     A
C517   C550    1.410   .     A
C518   C523    1.400   .     A
C518   C549    1.410   .     A
C518   C611    1.453   .     S
C519   C613    1.453   .     S
C519   C522    1.400   .     A
C519   C552    1.410   .     A
C520   C551    1.410   .     A
C520   C615    1.453   .     S
C520   C521    1.400   .     A
C521   C617    1.453   .     S
C521   C554    1.410   .     A
C522   C553    1.410   .     A
C522   C619    1.453   .     S
C523   C621    1.453   .     S
C523   C556    1.410   .     A
C524   C623    1.453   .     S
C524   C555    1.410   .     A
C525   C558    1.410   .     A
C525   C625    1.453   .     S
C526   C627    1.453   .     S
C526   C557    1.410   .     A
C527   C560    1.410   .     A
C527   C629    1.453   .     S
C528   C559    1.410   .     A
C528   C631    1.453   .     S
C529   C213    1.417   1_655 S
C530   C562    1.417   .     A
C531   C563    1.417   .     A
C532   C1260   1.417   .     S
C533   C561    1.417   .     A
C534   C214    1.417   1_655 S
C535   C1259   1.417   .     S
C536   C564    1.417   .     A
C537   C1261   1.417   .     A
C538   C566    1.417   .     A
C539   C567    1.417   .     A
C540   C220    1.417   1_655 S
C541   C565    1.417   .     S
C542   C1262   1.417   .     S
C543   C219    1.417   1_655 S
C544   C568    1.417   .     A
C561   C562    1.422   .     A
C563   C564    1.422   .     A
C563   C1231   1.417   1_545 S
C564   C1228   1.417   1_545 S
C565   C1233   1.417   1_545 A
C565   C566    1.422   1_556 S
C566   C1238   1.417   1_545 S
C566   C565    1.422   1_554 S
C567   C568    1.422   1_556 S
C568   C567    1.422   1_554 S
C569   N570    1.157   .     T
C571   N572    1.157   .     T
C573   N574    1.157   .     T
C575   N576    1.157   .     T
C577   N578    1.157   .     T
C579   N580    1.157   .     T
C581   N582    1.157   .     T
C583   N584    1.157   .     T
C585   N586    1.157   .     T
C587   N588    1.157   .     T
C589   N590    1.157   .     T
C591   N592    1.157   .     T
C593   N594    1.157   .     T
C595   N596    1.157   .     T
C597   N598    1.157   .     T
C599   N600    1.157   .     T
C601   N602    1.157   .     T
C603   N604    1.157   .     T
C605   N606    1.157   .     T
C607   N608    1.157   .     T
C609   N610    1.157   .     T
C611   N612    1.157   .     T
C613   N614    1.157   .     T
C615   N616    1.157   .     T
C617   N618    1.157   .     T
C619   N620    1.157   .     T
C621   N622    1.157   .     T
C623   N624    1.157   .     T
C625   N626    1.157   .     T
C627   N628    1.157   .     T
C629   N630    1.157   .     T
C631   N632    1.157   .     T
C633   H634    1.107   .     S
C633   H636    1.110   .     S
H635   C285    1.110   1_655 S
C637   H638    1.107   .     S
C637   H639    1.110   .     S
C637   H292    1.110   1_655 S
C641   H642    1.107   .     S
C641   H643    1.110   .     S
C641   H1340   1.110   .     S
H644   C1337   1.110   1_545 S
C645   H646    1.107   .     S
C645   H648    1.110   .     S
C645   H1343   1.110   1_545 S
H647   C1341   1.110   .     S
C649   H650    1.107   .     S
C649   H652    1.110   .     S
C649   H303    1.110   1_655 S
C653   H655    1.110   .     S
C653   H654    1.107   .     S
H656   C305    1.110   1_655 S
C657   H659    1.110   .     S
C657   H658    1.107   .     S
C657   H1356   1.110   1_545 S
H660   C1353   1.110   .     S
C661   H662    1.107   .     S
C661   H664    1.110   .     S
C661   H1359   1.110   .     S
H663   C1357   1.110   1_545 S
C665   H667    1.110   .     S
C665   H668    1.110   .     S
C665   H666    1.107   .     S
C669   H670    1.107   .     S
C669   H672    1.110   .     S
C669   H671    1.110   .     S
C673   H674    1.107   .     S
C673   H675    1.110   .     S
C673   H676    1.110   .     S
C677   H678    1.107   .     S
C677   H680    1.110   .     S
C677   H679    1.110   .     S
C681   H682    1.107   .     S
C681   H684    1.110   .     S
C681   H683    1.110   .     S
C685   H686    1.107   .     S
C685   H688    1.110   .     S
C685   H687    1.110   .     S
C689   H691    1.110   .     S
C689   H692    1.107   .     S
C689   H690    1.110   .     S
C693   H696    1.110   .     S
C693   H695    1.107   .     S
C693   H694    1.110   .     S
Zn697  O752    1.950   .     S
Zn697  O737    1.948   .     S
Zn697  O799    1.936   .     S
Zn698  O751    1.950   .     S
Zn698  O795    1.936   .     S
Zn698  O738    1.948   .     S
Zn699  O790    1.936   .     S
Zn699  O739    1.948   .     S
Zn699  O754    1.950   .     S
Zn699  O1145   1.936   1_455 S
Zn700  O1137   1.936   1_455 S
Zn700  O753    1.950   .     S
Zn700  O740    1.948   .     S
Zn700  O798    1.936   .     S
Zn701  O756    1.950   .     S
Zn701  O792    1.936   .     S
Zn701  O737    1.948   .     S
Zn702  O738    1.948   .     S
Zn702  O755    1.950   .     S
Zn702  O804    1.936   .     S
Zn703  O739    1.948   .     S
Zn703  O1142   1.936   1_455 S
Zn703  O750    1.950   .     S
Zn703  O801    1.936   .     S
Zn704  O749    1.950   .     S
Zn704  O1150   1.936   1_455 S
Zn704  O740    1.948   .     S
Zn704  O793    1.936   .     S
Zn705  O744    1.950   .     S
Zn705  O783    1.936   .     S
Zn705  O780    1.936   .     S
Zn705  O1088   1.948   .     S
Zn706  O743    1.950   .     S
Zn706  O784    1.936   .     S
Zn706  O779    1.936   .     S
Zn706  O739    1.948   .     S
Zn707  O781    1.936   .     S
Zn707  O746    1.950   .     S
Zn707  O774    1.936   .     S
Zn707  O42     1.948   1_565 S
Zn708  O745    1.950   .     S
Zn708  O782    1.936   .     S
Zn708  O773    1.936   .     S
Zn708  O737    1.948   .     S
Zn709  O787    1.936   .     S
Zn709  O740    1.948   .     S
Zn709  O776    1.936   .     S
Zn709  O748    1.950   .     S
Zn710  O1087   1.948   .     S
Zn710  O775    1.936   .     S
Zn710  O747    1.950   .     S
Zn710  O788    1.936   .     S
Zn711  O738    1.948   .     S
Zn711  O785    1.936   .     S
Zn711  O778    1.936   .     S
Zn711  O742    1.950   .     S
Zn712  O741    1.950   .     S
Zn712  O777    1.936   .     S
Zn712  O786    1.936   .     S
Zn712  O41     1.948   1_565 S
C713   C881    1.412   .     A
C713   C981    1.524   .     S
C713   C729    1.413   .     S
C714   C985    1.524   .     S
C714   C882    1.412   .     A
C714   C1078   1.413   .     S
C715   C35     1.413   1_565 A
C715   C989    1.524   .     S
C715   C883    1.412   .     A
C716   C884    1.412   .     A
C716   C993    1.524   .     S
C716   C732    1.413   .     A
C717   C1077   1.413   .     A
C717   C877    1.412   .     A
C717   C997    1.524   .     S
C718   C730    1.413   .     A
C718   C878    1.412   .     A
C718   C1001   1.524   .     S
C719   C879    1.412   .     A
C719   C1005   1.524   .     S
C719   C731    1.413   .     S
C720   C880    1.412   .     A
C720   C1009   1.524   .     S
C720   C36     1.413   1_565 S
C721   C1013   1.524   .     S
C721   C889    1.412   .     A
C721   C733    1.413   .     S
C722   C890    1.412   .     A
C722   C1017   1.524   .     S
C722   C38     1.413   1_565 S
C723   C1021   1.524   .     S
C723   C891    1.412   .     A
C723   C1083   1.413   .     S
C724   C736    1.413   .     A
C724   C1025   1.524   .     S
C724   C892    1.412   .     A
C725   C1029   1.524   .     S
C725   C885    1.412   .     A
C725   C37     1.413   1_565 A
C726   C734    1.413   .     A
C726   C1033   1.524   .     S
C726   C886    1.412   .     A
C727   C887    1.412   .     A
C727   C1037   1.524   .     S
C727   C735    1.413   .     A
C728   C1041   1.524   .     S
C728   C888    1.412   .     A
C728   C1084   1.413   .     S
C729   C1065   1.413   1_455 A
C729   C823    1.452   .     S
C730   C824    1.452   .     S
C730   C1062   1.413   1_455 S
C731   C821    1.452   .     S
C732   C822    1.452   .     S
C733   C827    1.452   .     S
C734   C828    1.452   .     S
C735   C1071   1.413   1_455 S
C735   C825    1.452   .     S
C736   C826    1.452   .     S
C736   C1076   1.413   1_455 S
O739   Zn1058  1.948   1_455 S
O740   Zn1053  1.948   1_455 S
O741   C125    1.276   1_565 A
O742   C822    1.276   .     A
O743   C823    1.276   .     S
O744   C1172   1.276   .     S
O745   C821    1.276   .     S
O746   C126    1.276   1_565 S
O747   C1171   1.276   .     A
O748   C824    1.276   .     A
O749   C825    1.276   .     A
O750   C826    1.276   .     A
O751   C827    1.276   .     S
O752   C828    1.276   .     A
O753   C825    1.276   .     A
O754   C826    1.276   .     S
O755   C827    1.276   .     S
O756   C828    1.276   .     A
H757   C805    1.081   .     S
H758   C806    1.081   .     S
H759   C807    1.081   .     S
H760   C808    1.081   .     S
H761   C809    1.081   .     S
H762   C810    1.081   .     S
H763   C811    1.081   .     S
H764   C812    1.081   .     S
H765   C813    1.081   .     S
H766   C814    1.081   .     S
H767   C815    1.081   .     S
H768   C816    1.081   .     S
H769   C817    1.081   .     S
H770   C818    1.081   .     S
H771   C819    1.081   .     S
H772   C820    1.081   .     S
O773   C829    1.279   .     A
O774   C830    1.279   .     A
O775   C831    1.279   .     A
O776   C832    1.279   .     A
O777   C833    1.279   .     A
O778   C834    1.279   .     A
O779   C835    1.279   .     A
O780   C836    1.279   .     A
O781   C837    1.279   .     A
O782   C838    1.279   .     A
O783   C839    1.279   .     A
O784   C840    1.279   .     A
O785   C841    1.279   .     A
O786   C842    1.279   .     A
O787   C843    1.279   .     A
O788   C844    1.279   .     A
O789   Zn1048  1.936   .     S
O789   C839    1.279   .     A
O790   C840    1.279   .     A
O791   C837    1.279   .     A
O791   Zn6     1.936   1_565 S
O792   C838    1.279   .     A
O793   C843    1.279   .     A
O794   C844    1.279   .     A
O794   Zn1051  1.936   .     S
O795   C841    1.279   .     A
O796   C842    1.279   .     A
O796   Zn1     1.936   1_565 S
O797   C831    1.279   .     A
O797   Zn1047  1.936   .     S
O798   C832    1.279   .     A
O799   C829    1.279   .     A
O800   C830    1.279   .     A
O800   Zn2     1.936   1_565 S
O801   C835    1.279   .     A
O802   C836    1.279   .     A
O802   Zn1052  1.936   .     S
O803   C833    1.279   .     A
O803   Zn5     1.936   1_565 S
O804   C834    1.279   .     A
C805   C810    1.383   .     A
C805   C877    1.405   .     A
C806   C878    1.405   .     A
C806   C809    1.383   .     A
C807   C879    1.405   .     A
C807   C812    1.383   .     A
C808   C880    1.405   .     A
C808   C811    1.383   .     A
C809   C881    1.405   .     A
C810   C882    1.405   .     A
C811   C883    1.405   .     A
C812   C884    1.405   .     A
C813   C885    1.405   .     A
C813   C818    1.383   1_556 S
C814   C886    1.405   .     A
C814   C817    1.383   1_554 S
C815   C887    1.405   .     A
C815   C820    1.383   1_556 S
C816   C888    1.405   .     A
C816   C819    1.383   1_554 S
C817   C889    1.405   .     A
C817   C814    1.383   1_556 S
C818   C890    1.405   .     A
C818   C813    1.383   1_554 S
C819   C891    1.405   .     A
C819   C816    1.383   1_556 S
C820   C892    1.405   .     A
C820   C815    1.383   1_554 S
C823   O1095   1.276   1_455 A
C824   O1092   1.276   1_455 S
C829   C895    1.456   .     S
C830   C896    1.456   .     S
C831   C897    1.457   .     S
C832   C898    1.457   .     S
C833   C899    1.456   .     S
C834   C900    1.456   .     S
C835   C893    1.457   .     S
C836   C894    1.457   .     S
C837   C903    1.457   .     S
C838   C904    1.457   .     S
C839   C905    1.456   .     S
C840   C906    1.456   .     S
C841   C907    1.457   .     S
C842   C908    1.457   .     S
C843   C901    1.456   .     S
C844   C902    1.457   .     S
C845   C917    1.453   .     S
C845   C908    1.410   .     A
C845   C860    1.400   .     A
C846   C919    1.453   .     S
C846   C859    1.400   .     A
C846   C907    1.410   .     A
C847   C921    1.453   .     S
C847   C906    1.410   .     A
C847   C858    1.400   .     A
C848   C905    1.410   .     A
C848   C857    1.400   .     A
C848   C923    1.453   .     S
C849   C904    1.410   .     A
C849   C925    1.453   .     S
C849   C856    1.400   .     A
C850   C927    1.453   .     S
C850   C903    1.410   .     A
C850   C855    1.400   .     A
C851   C929    1.453   .     S
C851   C854    1.400   .     A
C851   C902    1.410   .     A
C852   C931    1.453   .     S
C852   C901    1.410   .     A
C852   C853    1.400   .     A
C853   C900    1.410   .     A
C853   C933    1.453   .     S
C854   C899    1.410   .     A
C854   C935    1.453   .     S
C855   C898    1.410   .     A
C855   C937    1.453   .     S
C856   C897    1.410   .     A
C856   C939    1.453   .     S
C857   C941    1.453   .     S
C857   C896    1.410   .     A
C858   C943    1.453   .     S
C858   C895    1.410   .     A
C859   C894    1.410   .     A
C859   C945    1.453   .     S
C860   C893    1.410   .     A
C860   C947    1.453   .     S
C861   C894    1.410   .     A
C861   C949    1.453   .     S
C861   C876    1.400   .     A
C862   C951    1.453   .     S
C862   C893    1.410   .     A
C862   C875    1.400   .     A
C863   C896    1.410   .     A
C863   C874    1.400   .     A
C863   C953    1.453   .     S
C864   C873    1.400   .     A
C864   C895    1.410   .     A
C864   C955    1.453   .     S
C865   C957    1.453   .     S
C865   C872    1.400   .     A
C865   C898    1.410   .     A
C866   C871    1.400   .     A
C866   C897    1.410   .     A
C866   C959    1.453   .     S
C867   C961    1.453   .     S
C867   C870    1.400   .     A
C867   C900    1.410   .     A
C868   C899    1.410   .     A
C868   C963    1.453   .     S
C868   C869    1.400   .     A
C869   C965    1.453   .     S
C869   C902    1.410   .     A
C870   C901    1.410   .     A
C870   C967    1.453   .     S
C871   C969    1.453   .     S
C871   C904    1.410   .     A
C872   C971    1.453   .     S
C872   C903    1.410   .     A
C873   C906    1.410   .     A
C873   C973    1.453   .     S
C874   C975    1.453   .     S
C874   C905    1.410   .     A
C875   C908    1.410   .     A
C875   C977    1.453   .     S
C876   C907    1.410   .     A
C876   C979    1.453   .     S
C877   C1257   1.417   .     S
C878   C910    1.417   .     A
C879   C911    1.417   .     A
C880   C216    1.417   1_565 S
C881   C909    1.417   .     A
C882   C1258   1.417   .     S
C883   C215    1.417   1_565 S
C884   C912    1.417   .     A
C885   C217    1.417   1_565 A
C886   C914    1.417   .     A
C887   C915    1.417   .     A
C888   C1264   1.417   .     S
C889   C913    1.417   .     S
C890   C218    1.417   1_565 S
C891   C1263   1.417   .     S
C892   C916    1.417   .     A
C909   C910    1.422   .     A
C909   C1225   1.417   1_455 S
C910   C1230   1.417   1_455 S
C911   C912    1.422   .     A
C913   C914    1.422   1_556 S
C914   C913    1.422   1_554 S
C915   C1239   1.417   1_455 S
C915   C916    1.422   1_556 S
C916   C1236   1.417   1_455 S
C916   C915    1.422   1_554 S
C917   N918    1.157   .     T
C919   N920    1.157   .     T
C921   N922    1.157   .     T
C923   N924    1.157   .     T
C925   N926    1.157   .     T
C927   N928    1.157   .     T
C929   N930    1.157   .     T
C931   N932    1.157   .     T
C933   N934    1.157   .     T
C935   N936    1.157   .     T
C937   N938    1.157   .     T
C939   N940    1.157   .     T
C941   N942    1.157   .     T
C943   N944    1.157   .     T
C945   N946    1.157   .     T
C947   N948    1.157   .     T
C949   N950    1.157   .     T
C951   N952    1.157   .     T
C953   N954    1.157   .     T
C955   N956    1.157   .     T
C957   N958    1.157   .     T
C959   N960    1.157   .     T
C961   N962    1.157   .     T
C963   N964    1.157   .     T
C965   N966    1.157   .     T
C967   N968    1.157   .     T
C969   N970    1.157   .     T
C971   N972    1.157   .     T
C973   N974    1.157   .     T
C975   N976    1.157   .     T
C977   N978    1.157   .     T
C979   N980    1.157   .     T
C981   H982    1.107   .     S
C981   H984    1.110   .     S
C981   H1331   1.110   1_455 S
H983   C1329   1.110   .     S
C985   H986    1.107   .     S
C985   H987    1.110   .     S
C985   H1336   1.110   .     S
H988   C1333   1.110   1_455 S
C989   H990    1.107   .     S
C989   H991    1.110   .     S
C989   H296    1.110   1_565 S
C993   H994    1.107   .     S
C993   H996    1.110   .     S
H995   C297    1.110   1_565 S
C997   H998    1.107   .     S
C997   H1000   1.110   .     S
C997   H1347   1.110   .     S
H999   C1345   1.110   1_455 S
C1001  H1003   1.110   .     S
C1001  H1002   1.107   .     S
C1001  H1352   1.110   1_455 S
H1004  C1349   1.110   .     S
C1005  H1007   1.110   .     S
C1005  H1006   1.107   .     S
H1008  C309    1.110   1_565 S
C1009  H1010   1.107   .     S
C1009  H1012   1.110   .     S
C1009  H315    1.110   1_565 S
C1013  H1015   1.110   .     S
C1013  H1016   1.110   .     S
C1013  H1014   1.107   .     S
C1017  H1018   1.107   .     S
C1017  H1020   1.110   .     S
C1017  H1019   1.110   .     S
C1021  H1022   1.107   .     S
C1021  H1023   1.110   .     S
C1021  H1024   1.110   .     S
C1025  H1026   1.107   .     S
C1025  H1028   1.110   .     S
C1025  H1027   1.110   .     S
C1029  H1030   1.107   .     S
C1029  H1032   1.110   .     S
C1029  H1031   1.110   .     S
C1033  H1034   1.107   .     S
C1033  H1036   1.110   .     S
C1033  H1035   1.110   .     S
C1037  H1039   1.110   .     S
C1037  H1040   1.107   .     S
C1037  H1038   1.110   .     S
C1041  H1044   1.110   .     S
C1041  H1043   1.107   .     S
C1041  H1042   1.110   .     S
Zn1045 O1100   1.950   .     S
Zn1045 O1085   1.948   .     S
Zn1045 O1147   1.936   .     S
Zn1046 O1099   1.950   .     S
Zn1046 O1143   1.936   .     S
Zn1046 O1086   1.948   .     S
Zn1047 O1138   1.936   .     S
Zn1047 O1087   1.948   .     S
Zn1047 O1102   1.950   .     S
Zn1048 O1101   1.950   .     S
Zn1048 O1088   1.948   .     S
Zn1048 O1146   1.936   .     S
Zn1049 O1104   1.950   .     S
Zn1049 O1140   1.936   .     S
Zn1049 O1085   1.948   .     S
Zn1050 O1086   1.948   .     S
Zn1050 O1103   1.950   .     S
Zn1050 O1152   1.936   .     S
Zn1051 O1087   1.948   .     S
Zn1051 O1098   1.950   .     S
Zn1051 O1149   1.936   .     S
Zn1052 O1097   1.950   .     S
Zn1052 O1088   1.948   .     S
Zn1052 O1141   1.936   .     S
Zn1053 O1092   1.950   .     S
Zn1053 O1131   1.936   .     S
Zn1053 O1128   1.936   .     S
Zn1053 O740    1.948   1_655 S
Zn1054 O1091   1.950   .     S
Zn1054 O1132   1.936   .     S
Zn1054 O1127   1.936   .     S
Zn1054 O1087   1.948   .     S
Zn1055 O1129   1.936   .     S
Zn1055 O1094   1.950   .     S
Zn1055 O1122   1.936   .     S
Zn1055 O390    1.948   1_565 S
Zn1056 O1093   1.950   .     S
Zn1056 O1130   1.936   .     S
Zn1056 O1121   1.936   .     S
Zn1056 O1085   1.948   .     S
Zn1057 O1135   1.936   .     S
Zn1057 O1088   1.948   .     S
Zn1057 O1124   1.936   .     S
Zn1057 O1096   1.950   .     S
Zn1058 O739    1.948   1_655 S
Zn1058 O1123   1.936   .     S
Zn1058 O1095   1.950   .     S
Zn1058 O1136   1.936   .     S
Zn1059 O1086   1.948   .     S
Zn1059 O1133   1.936   .     S
Zn1059 O1126   1.936   .     S
Zn1059 O1090   1.950   .     S
Zn1060 O1089   1.950   .     S
Zn1060 O1125   1.936   .     S
Zn1060 O1134   1.936   .     S
Zn1060 O389    1.948   1_565 S
C1061  C1229   1.412   .     A
C1061  C1329   1.524   .     S
C1061  C1077   1.413   .     S
C1062  C1333   1.524   .     S
C1062  C1230   1.412   .     A
C1062  C730    1.413   1_655 S
C1063  C383    1.413   1_565 A
C1063  C1337   1.524   .     S
C1063  C1231   1.412   .     A
C1064  C1232   1.412   .     A
C1064  C1341   1.524   .     S
C1064  C1080   1.413   .     A
C1065  C729    1.413   1_655 A
C1065  C1225   1.412   .     A
C1065  C1345   1.524   .     S
C1066  C1078   1.413   .     A
C1066  C1226   1.412   .     A
C1066  C1349   1.524   .     S
C1067  C1227   1.412   .     A
C1067  C1353   1.524   .     S
C1067  C1079   1.413   .     S
C1068  C1228   1.412   .     A
C1068  C1357   1.524   .     S
C1068  C384    1.413   1_565 S
C1069  C1361   1.524   .     S
C1069  C1237   1.412   .     A
C1069  C1081   1.413   .     S
C1070  C1238   1.412   .     A
C1070  C1365   1.524   .     S
C1070  C386    1.413   1_565 S
C1071  C1369   1.524   .     S
C1071  C1239   1.412   .     A
C1071  C735    1.413   1_655 S
C1072  C1084   1.413   .     A
C1072  C1373   1.524   .     S
C1072  C1240   1.412   .     A
C1073  C1377   1.524   .     S
C1073  C1233   1.412   .     A
C1073  C385    1.413   1_565 A
C1074  C1082   1.413   .     A
C1074  C1381   1.524   .     S
C1074  C1234   1.412   .     A
C1075  C1235   1.412   .     A
C1075  C1385   1.524   .     S
C1075  C1083   1.413   .     A
C1076  C1389   1.524   .     S
C1076  C1236   1.412   .     A
C1076  C736    1.413   1_655 S
C1077  C1171   1.452   .     S
C1078  C1172   1.452   .     S
C1079  C1169   1.452   .     S
C1080  C1170   1.452   .     S
C1081  C1175   1.452   .     S
C1082  C1176   1.452   .     S
C1083  C1173   1.452   .     S
C1084  C1174   1.452   .     S
O1089  C473    1.276   1_565 A
O1090  C1170   1.276   .     A
O1091  C1171   1.276   .     S
O1092  C824    1.276   1_655 S
O1093  C1169   1.276   .     S
O1094  C474    1.276   1_565 S
O1095  C823    1.276   1_655 A
O1096  C1172   1.276   .     A
O1097  C1173   1.276   .     A
O1098  C1174   1.276   .     A
O1099  C1175   1.276   .     S
O1100  C1176   1.276   .     A
O1101  C1173   1.276   .     A
O1102  C1174   1.276   .     S
O1103  C1175   1.276   .     S
O1104  C1176   1.276   .     A
H1105  C1153   1.081   .     S
H1106  C1154   1.081   .     S
H1107  C1155   1.081   .     S
H1108  C1156   1.081   .     S
H1109  C1157   1.081   .     S
H1110  C1158   1.081   .     S
H1111  C1159   1.081   .     S
H1112  C1160   1.081   .     S
H1113  C1161   1.081   .     S
H1114  C1162   1.081   .     S
H1115  C1163   1.081   .     S
H1116  C1164   1.081   .     S
H1117  C1165   1.081   .     S
H1118  C1166   1.081   .     S
H1119  C1167   1.081   .     S
H1120  C1168   1.081   .     S
O1121  C1177   1.279   .     A
O1122  C1178   1.279   .     A
O1123  C1179   1.279   .     A
O1124  C1180   1.279   .     A
O1125  C1181   1.279   .     A
O1126  C1182   1.279   .     A
O1127  C1183   1.279   .     A
O1128  C1184   1.279   .     A
O1129  C1185   1.279   .     A
O1130  C1186   1.279   .     A
O1131  C1187   1.279   .     A
O1132  C1188   1.279   .     A
O1133  C1189   1.279   .     A
O1134  C1190   1.279   .     A
O1135  C1191   1.279   .     A
O1136  C1192   1.279   .     A
O1137  Zn700   1.936   1_655 S
O1137  C1187   1.279   .     A
O1138  C1188   1.279   .     A
O1139  C1185   1.279   .     A
O1139  Zn354   1.936   1_565 S
O1140  C1186   1.279   .     A
O1141  C1191   1.279   .     A
O1142  C1192   1.279   .     A
O1142  Zn703   1.936   1_655 S
O1143  C1189   1.279   .     A
O1144  C1190   1.279   .     A
O1144  Zn349   1.936   1_565 S
O1145  C1179   1.279   .     A
O1145  Zn699   1.936   1_655 S
O1146  C1180   1.279   .     A
O1147  C1177   1.279   .     A
O1148  C1178   1.279   .     A
O1148  Zn350   1.936   1_565 S
O1149  C1183   1.279   .     A
O1150  C1184   1.279   .     A
O1150  Zn704   1.936   1_655 S
O1151  C1181   1.279   .     A
O1151  Zn353   1.936   1_565 S
O1152  C1182   1.279   .     A
C1153  C1158   1.383   .     A
C1153  C1225   1.405   .     A
C1154  C1226   1.405   .     A
C1154  C1157   1.383   .     A
C1155  C1227   1.405   .     A
C1155  C1160   1.383   .     A
C1156  C1228   1.405   .     A
C1156  C1159   1.383   .     A
C1157  C1229   1.405   .     A
C1158  C1230   1.405   .     A
C1159  C1231   1.405   .     A
C1160  C1232   1.405   .     A
C1161  C1233   1.405   .     A
C1161  C1166   1.383   1_556 S
C1162  C1234   1.405   .     A
C1162  C1165   1.383   1_554 S
C1163  C1235   1.405   .     A
C1163  C1168   1.383   1_556 S
C1164  C1236   1.405   .     A
C1164  C1167   1.383   1_554 S
C1165  C1237   1.405   .     A
C1165  C1162   1.383   1_556 S
C1166  C1238   1.405   .     A
C1166  C1161   1.383   1_554 S
C1167  C1239   1.405   .     A
C1167  C1164   1.383   1_556 S
C1168  C1240   1.405   .     A
C1168  C1163   1.383   1_554 S
C1177  C1243   1.456   .     S
C1178  C1244   1.456   .     S
C1179  C1245   1.457   .     S
C1180  C1246   1.457   .     S
C1181  C1247   1.456   .     S
C1182  C1248   1.456   .     S
C1183  C1241   1.457   .     S
C1184  C1242   1.457   .     S
C1185  C1251   1.457   .     S
C1186  C1252   1.457   .     S
C1187  C1253   1.456   .     S
C1188  C1254   1.456   .     S
C1189  C1255   1.457   .     S
C1190  C1256   1.457   .     S
C1191  C1249   1.456   .     S
C1192  C1250   1.457   .     S
C1193  C1265   1.453   .     S
C1193  C1256   1.410   .     A
C1193  C1208   1.400   .     A
C1194  C1267   1.453   .     S
C1194  C1207   1.400   .     A
C1194  C1255   1.410   .     A
C1195  C1269   1.453   .     S
C1195  C1254   1.410   .     A
C1195  C1206   1.400   .     A
C1196  C1253   1.410   .     A
C1196  C1205   1.400   .     A
C1196  C1271   1.453   .     S
C1197  C1252   1.410   .     A
C1197  C1273   1.453   .     S
C1197  C1204   1.400   .     A
C1198  C1275   1.453   .     S
C1198  C1251   1.410   .     A
C1198  C1203   1.400   .     A
C1199  C1277   1.453   .     S
C1199  C1202   1.400   .     A
C1199  C1250   1.410   .     A
C1200  C1279   1.453   .     S
C1200  C1249   1.410   .     A
C1200  C1201   1.400   .     A
C1201  C1248   1.410   .     A
C1201  C1281   1.453   .     S
C1202  C1247   1.410   .     A
C1202  C1283   1.453   .     S
C1203  C1246   1.410   .     A
C1203  C1285   1.453   .     S
C1204  C1245   1.410   .     A
C1204  C1287   1.453   .     S
C1205  C1289   1.453   .     S
C1205  C1244   1.410   .     A
C1206  C1291   1.453   .     S
C1206  C1243   1.410   .     A
C1207  C1242   1.410   .     A
C1207  C1293   1.453   .     S
C1208  C1241   1.410   .     A
C1208  C1295   1.453   .     S
C1209  C1242   1.410   .     A
C1209  C1297   1.453   .     S
C1209  C1224   1.400   .     A
C1210  C1299   1.453   .     S
C1210  C1241   1.410   .     A
C1210  C1223   1.400   .     A
C1211  C1244   1.410   .     A
C1211  C1222   1.400   .     A
C1211  C1301   1.453   .     S
C1212  C1221   1.400   .     A
C1212  C1243   1.410   .     A
C1212  C1303   1.453   .     S
C1213  C1305   1.453   .     S
C1213  C1220   1.400   .     A
C1213  C1246   1.410   .     A
C1214  C1219   1.400   .     A
C1214  C1245   1.410   .     A
C1214  C1307   1.453   .     S
C1215  C1309   1.453   .     S
C1215  C1218   1.400   .     A
C1215  C1248   1.410   .     A
C1216  C1247   1.410   .     A
C1216  C1311   1.453   .     S
C1216  C1217   1.400   .     A
C1217  C1313   1.453   .     S
C1217  C1250   1.410   .     A
C1218  C1249   1.410   .     A
C1218  C1315   1.453   .     S
C1219  C1317   1.453   .     S
C1219  C1252   1.410   .     A
C1220  C1319   1.453   .     S
C1220  C1251   1.410   .     A
C1221  C1254   1.410   .     A
C1221  C1321   1.453   .     S
C1222  C1323   1.453   .     S
C1222  C1253   1.410   .     A
C1223  C1256   1.410   .     A
C1223  C1325   1.453   .     S
C1224  C1255   1.410   .     A
C1224  C1327   1.453   .     S
C1225  C909    1.417   1_655 S
C1226  C1258   1.417   .     A
C1227  C1259   1.417   .     A
C1228  C564    1.417   1_565 S
C1229  C1257   1.417   .     A
C1230  C910    1.417   1_655 S
C1231  C563    1.417   1_565 S
C1232  C1260   1.417   .     A
C1233  C565    1.417   1_565 A
C1234  C1262   1.417   .     A
C1235  C1263   1.417   .     A
C1236  C916    1.417   1_655 S
C1237  C1261   1.417   .     S
C1238  C566    1.417   1_565 S
C1239  C915    1.417   1_655 S
C1240  C1264   1.417   .     A
C1257  C1258   1.422   .     A
C1259  C1260   1.422   .     A
C1261  C1262   1.422   1_556 S
C1262  C1261   1.422   1_554 S
C1263  C1264   1.422   1_556 S
C1264  C1263   1.422   1_554 S
C1265  N1266   1.157   .     T
C1267  N1268   1.157   .     T
C1269  N1270   1.157   .     T
C1271  N1272   1.157   .     T
C1273  N1274   1.157   .     T
C1275  N1276   1.157   .     T
C1277  N1278   1.157   .     T
C1279  N1280   1.157   .     T
C1281  N1282   1.157   .     T
C1283  N1284   1.157   .     T
C1285  N1286   1.157   .     T
C1287  N1288   1.157   .     T
C1289  N1290   1.157   .     T
C1291  N1292   1.157   .     T
C1293  N1294   1.157   .     T
C1295  N1296   1.157   .     T
C1297  N1298   1.157   .     T
C1299  N1300   1.157   .     T
C1301  N1302   1.157   .     T
C1303  N1304   1.157   .     T
C1305  N1306   1.157   .     T
C1307  N1308   1.157   .     T
C1309  N1310   1.157   .     T
C1311  N1312   1.157   .     T
C1313  N1314   1.157   .     T
C1315  N1316   1.157   .     T
C1317  N1318   1.157   .     T
C1319  N1320   1.157   .     T
C1321  N1322   1.157   .     T
C1323  N1324   1.157   .     T
C1325  N1326   1.157   .     T
C1327  N1328   1.157   .     T
C1329  H1330   1.107   .     S
C1329  H1332   1.110   .     S
H1331  C981    1.110   1_655 S
C1333  H1334   1.107   .     S
C1333  H1335   1.110   .     S
C1333  H988    1.110   1_655 S
C1337  H1338   1.107   .     S
C1337  H1339   1.110   .     S
C1337  H644    1.110   1_565 S
C1341  H1342   1.107   .     S
C1341  H1344   1.110   .     S
H1343  C645    1.110   1_565 S
C1345  H1346   1.107   .     S
C1345  H1348   1.110   .     S
C1345  H999    1.110   1_655 S
C1349  H1351   1.110   .     S
C1349  H1350   1.107   .     S
H1352  C1001   1.110   1_655 S
C1353  H1355   1.110   .     S
C1353  H1354   1.107   .     S
H1356  C657    1.110   1_565 S
C1357  H1358   1.107   .     S
C1357  H1360   1.110   .     S
C1357  H663    1.110   1_565 S
C1361  H1363   1.110   .     S
C1361  H1364   1.110   .     S
C1361  H1362   1.107   .     S
C1365  H1366   1.107   .     S
C1365  H1368   1.110   .     S
C1365  H1367   1.110   .     S
C1369  H1370   1.107   .     S
C1369  H1371   1.110   .     S
C1369  H1372   1.110   .     S
C1373  H1374   1.107   .     S
C1373  H1376   1.110   .     S
C1373  H1375   1.110   .     S
C1377  H1378   1.107   .     S
C1377  H1380   1.110   .     S
C1377  H1379   1.110   .     S
C1381  H1382   1.107   .     S
C1381  H1384   1.110   .     S
C1381  H1383   1.110   .     S
C1385  H1387   1.110   .     S
C1385  H1388   1.107   .     S
C1385  H1386   1.110   .     S
C1389  H1392   1.110   .     S
C1389  H1391   1.107   .     S
C1389  H1390   1.110   .     S
