data_str_m3_o1_o18_pcu_sym.102
_audit_creation_date              2020-01-03
_audit_creation_method            'Materials Studio'
_symmetry_space_group_name_H-M    'P1'
_symmetry_Int_Tables_number       1
_symmetry_cell_setting            triclinic
loop_
_symmetry_equiv_pos_as_xyz
  x,y,z
_cell_length_a                    30.2024
_cell_length_b                    32.3336
_cell_length_c                    31.2185
_cell_angle_alpha                 94.2189
_cell_angle_beta                  70.6242
_cell_angle_gamma                 90.7918
loop_
_atom_site_label
_atom_site_type_symbol
_atom_site_fract_x
_atom_site_fract_y
_atom_site_fract_z
_atom_site_U_iso_or_equiv
_atom_site_adp_type
_atom_site_occupancy
C1     C     0.16694   0.24655   0.24924   0.00000  Uiso   1.00
C2     C     0.16575   0.08710   0.25212   0.00000  Uiso   1.00
C3     C     0.11106   0.15491   0.04777   0.00000  Uiso   1.00
C4     C     0.20926   0.20350   0.46145   0.00000  Uiso   1.00
C5     C     0.09034   0.13136   0.01989   0.00000  Uiso   1.00
C6     C     0.22990   0.22655   0.48999   0.00000  Uiso   1.00
C7     C     0.20431   0.31310   0.25489   0.00000  Uiso   1.00
C8     C     0.12699   0.02138   0.24880   0.00000  Uiso   1.00
C9     C     0.20197   0.02272   0.26211   0.00000  Uiso   1.00
C10    C     0.12711   0.31214   0.24617   0.00000  Uiso   1.00
C11    C     0.16473   0.04307   0.25484   0.00000  Uiso   1.00
C12    C     0.16644   0.29108   0.24900   0.00000  Uiso   1.00
C13    C     0.32020   0.14325   0.21776   0.00000  Uiso   1.00
C14    C     0.01308   0.18976   0.28250   0.00000  Uiso   1.00
C15    C     0.03472   0.14346   0.21717   0.00000  Uiso   1.00
C16    C     0.29874   0.18953   0.28302   0.00000  Uiso   1.00
C17    C     0.13773   0.16520   0.33692   0.00000  Uiso   1.00
C18    C     0.19574   0.16837   0.16295   0.00000  Uiso   1.00
C19    C     0.12261   0.15610   0.38467   0.00000  Uiso   1.00
C20    C     0.21070   0.18133   0.11626   0.00000  Uiso   1.00
C21    C     0.09664   0.10547   0.44159   0.00000  Uiso   1.00
C22    C     0.23139   0.24034   0.06910   0.00000  Uiso   1.00
C23    C     0.10272   0.11724   0.39746   0.00000  Uiso   1.00
C24    C     0.23208   0.22028   0.10723   0.00000  Uiso   1.00
C25    C     0.13884   0.18140   0.41457   0.00000  Uiso   1.00
C26    C     0.19067   0.16214   0.08579   0.00000  Uiso   1.00
C27    C     0.13868   0.16642   0.45565   0.00000  Uiso   1.00
C28    C     0.18680   0.18395   0.04997   0.00000  Uiso   1.00
C29    C     0.10891   0.13326   0.47247   0.00000  Uiso   1.00
C30    C     0.21516   0.21878   0.03657   0.00000  Uiso   1.00
C31    C     0.16666   0.18279   0.48117   0.00000  Uiso   1.00
C32    C     0.15566   0.17235   0.02652   0.00000  Uiso   1.00
H33    H     0.23426   0.29657   0.25580   0.00000  Uiso   1.00
H34    H     0.09630   0.03724   0.24762   0.00000  Uiso   1.00
N35    N     0.04759   0.16668   0.25001   0.00000  Uiso   1.00
N36    N     0.28574   0.16666   0.24999   0.00000  Uiso   1.00
O37    O     0.12846   0.22775   0.25000   0.00000  Uiso   1.00
O38    O     0.20488   0.10558   0.25000   0.00000  Uiso   1.00
O39    O     0.20490   0.22774   0.25000   0.00000  Uiso   1.00
O40    O     0.12843   0.10559   0.25000   0.00000  Uiso   1.00
O41    O     0.10661   0.16667   0.31612   0.00000  Uiso   1.00
O42    O     0.22672   0.16666   0.18388   0.00000  Uiso   1.00
O43    O     0.18305   0.16666   0.31612   0.00000  Uiso   1.00
O44    O     0.15028   0.16667   0.18388   0.00000  Uiso   1.00
Zn45   Zn    0.11562   0.16667   0.25000   0.00000  Uiso   1.00
Zn46   Zn    0.21771   0.16666   0.25000   0.00000  Uiso   1.00
I47    I     0.02164   0.10764   0.04898   0.00000  Uiso   1.00
I48    I     0.29302   0.25911   0.45855   0.00000  Uiso   1.00
I49    I     0.18048   0.09704   0.08607   0.00000  Uiso   1.00
I50    I     0.14479   0.24628   0.40594   0.00000  Uiso   1.00
O51    O     0.25765   0.23781   0.13306   0.00000  Uiso   1.00
C52    C     0.30249   0.21819   0.11867   0.00000  Uiso   1.00
H53    H     0.29979   0.18471   0.12456   0.00000  Uiso   1.00
H54    H     0.32202   0.23239   0.14021   0.00000  Uiso   1.00
C55    C     0.33138   0.22307   0.06843   0.00000  Uiso   1.00
H56    H     0.00530   0.25623   0.06222   0.00000  Uiso   1.00
H57    H     0.03113   0.20550   0.05952   0.00000  Uiso   1.00
H58    H     0.31414   0.20883   0.04481   0.00000  Uiso   1.00
O59    O     0.09428   0.08919   0.36536   0.00000  Uiso   1.00
C60    C     0.04527   0.08451   0.37495   0.00000  Uiso   1.00
H61    H     0.03353   0.10469   0.35335   0.00000  Uiso   1.00
H62    H     0.02372   0.09284   0.41120   0.00000  Uiso   1.00
C63    C     0.03487   0.03952   0.36362   0.00000  Uiso   1.00
H64    H     0.32976   0.03490   0.37359   0.00000  Uiso   1.00
H65    H     0.05117   0.03118   0.32677   0.00000  Uiso   1.00
H66    H     0.04898   0.01812   0.38214   0.00000  Uiso   1.00
I67    I     0.08961   0.04112   0.45380   0.00000  Uiso   1.00
I68    I     0.24357   0.30559   0.07042   0.00000  Uiso   1.00
O69    O     0.08523   0.16137   0.09395   0.00000  Uiso   1.00
C70    C     0.08900   0.20105   0.11593   0.00000  Uiso   1.00
H71    H     0.11607   0.20014   0.13225   0.00000  Uiso   1.00
H72    H     0.05634   0.20558   0.14539   0.00000  Uiso   1.00
C73    C     0.09555   0.24025   0.08868   0.00000  Uiso   1.00
H74    H     0.12690   0.25738   0.09089   0.00000  Uiso   1.00
H75    H     0.06527   0.26170   0.10359   0.00000  Uiso   1.00
H76    H     0.09962   0.23434   0.05226   0.00000  Uiso   1.00
O77    O     0.23374   0.19577   0.41552   0.00000  Uiso   1.00
C78    C     0.26602   0.16248   0.40950   0.00000  Uiso   1.00
H79    H     0.28438   0.16423   0.43523   0.00000  Uiso   1.00
H80    H     0.29377   0.16429   0.37605   0.00000  Uiso   1.00
C81    C     0.24301   0.12020   0.40895   0.00000  Uiso   1.00
H82    H     0.22492   0.11797   0.38318   0.00000  Uiso   1.00
H83    H     0.27039   0.09565   0.40059   0.00000  Uiso   1.00
H84    H     0.21772   0.11463   0.44292   0.00000  Uiso   1.00
O85    O     0.22889   0.04532   0.28408   0.00000  Uiso   1.00
C86    C     0.27563   0.03128   0.27126   0.00000  Uiso   1.00
H87    H     0.29293   0.03017   0.23370   0.00000  Uiso   1.00
H88    H     0.27744   0.00077   0.28412   0.00000  Uiso   1.00
C89    C     0.30181   0.06049   0.29431   0.00000  Uiso   1.00
H90    H     0.28557   0.05966   0.33160   0.00000  Uiso   1.00
H91    H     0.00560   0.05042   0.28429   0.00000  Uiso   1.00
H92    H     0.29980   0.09264   0.28523   0.00000  Uiso   1.00
O93    O     0.08663   0.29182   0.24599   0.00000  Uiso   1.00
C94    C     0.08253   0.29149   0.20227   0.00000  Uiso   1.00
H95    H     0.10633   0.26740   0.17910   0.00000  Uiso   1.00
H96    H     0.09095   0.32190   0.18723   0.00000  Uiso   1.00
C97    C     0.03212   0.28171   0.20627   0.00000  Uiso   1.00
H98    H     0.00850   0.30190   0.23431   0.00000  Uiso   1.00
H99    H     0.02536   0.28795   0.17460   0.00000  Uiso   1.00
H100   H     0.02438   0.24887   0.21373   0.00000  Uiso   1.00
I101   I     0.30053   0.10210   0.17178   0.00000  Uiso   1.00
I102   I     0.03096   0.22866   0.33180   0.00000  Uiso   1.00
O103   O     0.06916   0.12491   0.17955   0.00000  Uiso   1.00
C104   C     0.07450   0.08216   0.18412   0.00000  Uiso   1.00
H105   H     0.04874   0.07026   0.21504   0.00000  Uiso   1.00
H106   H     0.11012   0.07748   0.18555   0.00000  Uiso   1.00
C107   C     0.07221   0.05564   0.14214   0.00000  Uiso   1.00
H108   H     0.10273   0.03398   0.12898   0.00000  Uiso   1.00
H109   H     0.04015   0.03640   0.15099   0.00000  Uiso   1.00
H110   H     0.07246   0.07527   0.11439   0.00000  Uiso   1.00
O111   O     0.26482   0.20875   0.32047   0.00000  Uiso   1.00
C112   C     0.25735   0.25026   0.31285   0.00000  Uiso   1.00
H113   H     0.22052   0.25287   0.31442   0.00000  Uiso   1.00
H114   H     0.28081   0.26027   0.27965   0.00000  Uiso   1.00
C115   C     0.26150   0.28084   0.35106   0.00000  Uiso   1.00
H116   H     0.29726   0.29386   0.34232   0.00000  Uiso   1.00
H117   H     0.23684   0.30738   0.35622   0.00000  Uiso   1.00
H118   H     0.25251   0.26591   0.38350   0.00000  Uiso   1.00
C119   C     0.50028   0.24655   0.24924   0.00000  Uiso   1.00
C120   C     0.49908   0.08710   0.25212   0.00000  Uiso   1.00
C121   C     0.44439   0.15491   0.04777   0.00000  Uiso   1.00
C122   C     0.54259   0.20350   0.46145   0.00000  Uiso   1.00
C123   C     0.42367   0.13136   0.01989   0.00000  Uiso   1.00
C124   C     0.56323   0.22655   0.48999   0.00000  Uiso   1.00
C125   C     0.53764   0.31310   0.25489   0.00000  Uiso   1.00
C126   C     0.46032   0.02138   0.24880   0.00000  Uiso   1.00
C127   C     0.53531   0.02272   0.26211   0.00000  Uiso   1.00
C128   C     0.46045   0.31214   0.24617   0.00000  Uiso   1.00
C129   C     0.49806   0.04307   0.25484   0.00000  Uiso   1.00
C130   C     0.49977   0.29108   0.24900   0.00000  Uiso   1.00
C131   C     0.65353   0.14325   0.21776   0.00000  Uiso   1.00
C132   C     0.34641   0.18976   0.28250   0.00000  Uiso   1.00
C133   C     0.36805   0.14346   0.21717   0.00000  Uiso   1.00
C134   C     0.63207   0.18953   0.28302   0.00000  Uiso   1.00
C135   C     0.47107   0.16520   0.33692   0.00000  Uiso   1.00
C136   C     0.52908   0.16837   0.16295   0.00000  Uiso   1.00
C137   C     0.45595   0.15610   0.38467   0.00000  Uiso   1.00
C138   C     0.54403   0.18133   0.11626   0.00000  Uiso   1.00
C139   C     0.42997   0.10547   0.44159   0.00000  Uiso   1.00
C140   C     0.56472   0.24034   0.06910   0.00000  Uiso   1.00
C141   C     0.43605   0.11724   0.39746   0.00000  Uiso   1.00
C142   C     0.56541   0.22028   0.10723   0.00000  Uiso   1.00
C143   C     0.47218   0.18140   0.41457   0.00000  Uiso   1.00
C144   C     0.52400   0.16214   0.08579   0.00000  Uiso   1.00
C145   C     0.47201   0.16642   0.45565   0.00000  Uiso   1.00
C146   C     0.52013   0.18395   0.04997   0.00000  Uiso   1.00
C147   C     0.44224   0.13326   0.47247   0.00000  Uiso   1.00
C148   C     0.54849   0.21878   0.03657   0.00000  Uiso   1.00
C149   C     0.50000   0.18279   0.48117   0.00000  Uiso   1.00
C150   C     0.48899   0.17235   0.02652   0.00000  Uiso   1.00
H151   H     0.56759   0.29657   0.25580   0.00000  Uiso   1.00
H152   H     0.42963   0.03724   0.24762   0.00000  Uiso   1.00
N153   N     0.38093   0.16668   0.25001   0.00000  Uiso   1.00
N154   N     0.61907   0.16666   0.24999   0.00000  Uiso   1.00
O155   O     0.46179   0.22775   0.25000   0.00000  Uiso   1.00
O156   O     0.53821   0.10558   0.25000   0.00000  Uiso   1.00
O157   O     0.53823   0.22774   0.25000   0.00000  Uiso   1.00
O158   O     0.46177   0.10559   0.25000   0.00000  Uiso   1.00
O159   O     0.43994   0.16667   0.31612   0.00000  Uiso   1.00
O160   O     0.56006   0.16666   0.18388   0.00000  Uiso   1.00
O161   O     0.51639   0.16666   0.31612   0.00000  Uiso   1.00
O162   O     0.48361   0.16667   0.18388   0.00000  Uiso   1.00
Zn163  Zn    0.44896   0.16667   0.25000   0.00000  Uiso   1.00
Zn164  Zn    0.55104   0.16666   0.25000   0.00000  Uiso   1.00
I165   I     0.35498   0.10764   0.04898   0.00000  Uiso   1.00
I166   I     0.62636   0.25911   0.45855   0.00000  Uiso   1.00
I167   I     0.51381   0.09704   0.08607   0.00000  Uiso   1.00
I168   I     0.47812   0.24628   0.40594   0.00000  Uiso   1.00
O169   O     0.59098   0.23781   0.13306   0.00000  Uiso   1.00
C170   C     0.63583   0.21819   0.11867   0.00000  Uiso   1.00
H171   H     0.63313   0.18471   0.12456   0.00000  Uiso   1.00
H172   H     0.65535   0.23239   0.14021   0.00000  Uiso   1.00
C173   C     0.66472   0.22307   0.06843   0.00000  Uiso   1.00
H174   H     0.33863   0.25623   0.06222   0.00000  Uiso   1.00
H175   H     0.36447   0.20550   0.05952   0.00000  Uiso   1.00
H176   H     0.64747   0.20883   0.04481   0.00000  Uiso   1.00
O177   O     0.42762   0.08919   0.36536   0.00000  Uiso   1.00
C178   C     0.37861   0.08451   0.37495   0.00000  Uiso   1.00
H179   H     0.36686   0.10469   0.35335   0.00000  Uiso   1.00
H180   H     0.35706   0.09284   0.41120   0.00000  Uiso   1.00
C181   C     0.36820   0.03952   0.36362   0.00000  Uiso   1.00
H182   H     0.66310   0.03490   0.37359   0.00000  Uiso   1.00
H183   H     0.38450   0.03118   0.32677   0.00000  Uiso   1.00
H184   H     0.38231   0.01812   0.38214   0.00000  Uiso   1.00
I185   I     0.42294   0.04112   0.45380   0.00000  Uiso   1.00
I186   I     0.57690   0.30559   0.07042   0.00000  Uiso   1.00
O187   O     0.41856   0.16137   0.09395   0.00000  Uiso   1.00
C188   C     0.42233   0.20105   0.11593   0.00000  Uiso   1.00
H189   H     0.44940   0.20014   0.13225   0.00000  Uiso   1.00
H190   H     0.38967   0.20558   0.14539   0.00000  Uiso   1.00
C191   C     0.42889   0.24025   0.08868   0.00000  Uiso   1.00
H192   H     0.46024   0.25738   0.09089   0.00000  Uiso   1.00
H193   H     0.39861   0.26170   0.10359   0.00000  Uiso   1.00
H194   H     0.43296   0.23434   0.05226   0.00000  Uiso   1.00
O195   O     0.56707   0.19577   0.41552   0.00000  Uiso   1.00
C196   C     0.59936   0.16248   0.40950   0.00000  Uiso   1.00
H197   H     0.61771   0.16423   0.43523   0.00000  Uiso   1.00
H198   H     0.62711   0.16429   0.37605   0.00000  Uiso   1.00
C199   C     0.57634   0.12020   0.40895   0.00000  Uiso   1.00
H200   H     0.55825   0.11797   0.38318   0.00000  Uiso   1.00
H201   H     0.60372   0.09565   0.40059   0.00000  Uiso   1.00
H202   H     0.55106   0.11463   0.44292   0.00000  Uiso   1.00
O203   O     0.56222   0.04532   0.28408   0.00000  Uiso   1.00
C204   C     0.60897   0.03128   0.27126   0.00000  Uiso   1.00
H205   H     0.62627   0.03017   0.23370   0.00000  Uiso   1.00
H206   H     0.61078   0.00077   0.28412   0.00000  Uiso   1.00
C207   C     0.63514   0.06049   0.29431   0.00000  Uiso   1.00
H208   H     0.61890   0.05966   0.33160   0.00000  Uiso   1.00
H209   H     0.33893   0.05042   0.28429   0.00000  Uiso   1.00
H210   H     0.63313   0.09264   0.28523   0.00000  Uiso   1.00
O211   O     0.41996   0.29182   0.24599   0.00000  Uiso   1.00
C212   C     0.41587   0.29149   0.20227   0.00000  Uiso   1.00
H213   H     0.43966   0.26740   0.17910   0.00000  Uiso   1.00
H214   H     0.42429   0.32190   0.18723   0.00000  Uiso   1.00
C215   C     0.36545   0.28171   0.20627   0.00000  Uiso   1.00
H216   H     0.34183   0.30190   0.23431   0.00000  Uiso   1.00
H217   H     0.35869   0.28795   0.17460   0.00000  Uiso   1.00
H218   H     0.35772   0.24887   0.21373   0.00000  Uiso   1.00
I219   I     0.63386   0.10210   0.17178   0.00000  Uiso   1.00
I220   I     0.36430   0.22866   0.33180   0.00000  Uiso   1.00
O221   O     0.40249   0.12491   0.17955   0.00000  Uiso   1.00
C222   C     0.40784   0.08216   0.18412   0.00000  Uiso   1.00
H223   H     0.38208   0.07026   0.21504   0.00000  Uiso   1.00
H224   H     0.44346   0.07748   0.18555   0.00000  Uiso   1.00
C225   C     0.40554   0.05564   0.14214   0.00000  Uiso   1.00
H226   H     0.43606   0.03398   0.12898   0.00000  Uiso   1.00
H227   H     0.37348   0.03640   0.15099   0.00000  Uiso   1.00
H228   H     0.40580   0.07527   0.11439   0.00000  Uiso   1.00
O229   O     0.59815   0.20875   0.32047   0.00000  Uiso   1.00
C230   C     0.59068   0.25026   0.31285   0.00000  Uiso   1.00
H231   H     0.55385   0.25287   0.31442   0.00000  Uiso   1.00
H232   H     0.61415   0.26027   0.27965   0.00000  Uiso   1.00
C233   C     0.59483   0.28084   0.35106   0.00000  Uiso   1.00
H234   H     0.63060   0.29386   0.34232   0.00000  Uiso   1.00
H235   H     0.57017   0.30738   0.35622   0.00000  Uiso   1.00
H236   H     0.58584   0.26591   0.38350   0.00000  Uiso   1.00
C237   C     0.83361   0.24655   0.24924   0.00000  Uiso   1.00
C238   C     0.83241   0.08710   0.25212   0.00000  Uiso   1.00
C239   C     0.77773   0.15491   0.04777   0.00000  Uiso   1.00
C240   C     0.87592   0.20350   0.46145   0.00000  Uiso   1.00
C241   C     0.75700   0.13136   0.01989   0.00000  Uiso   1.00
C242   C     0.89657   0.22655   0.48999   0.00000  Uiso   1.00
C243   C     0.87098   0.31310   0.25489   0.00000  Uiso   1.00
C244   C     0.79366   0.02138   0.24880   0.00000  Uiso   1.00
C245   C     0.86864   0.02272   0.26211   0.00000  Uiso   1.00
C246   C     0.79378   0.31214   0.24617   0.00000  Uiso   1.00
C247   C     0.83139   0.04307   0.25484   0.00000  Uiso   1.00
C248   C     0.83311   0.29108   0.24900   0.00000  Uiso   1.00
C249   C     0.98687   0.14325   0.21776   0.00000  Uiso   1.00
C250   C     0.67974   0.18976   0.28250   0.00000  Uiso   1.00
C251   C     0.70138   0.14346   0.21717   0.00000  Uiso   1.00
C252   C     0.96541   0.18953   0.28302   0.00000  Uiso   1.00
C253   C     0.80440   0.16520   0.33692   0.00000  Uiso   1.00
C254   C     0.86241   0.16837   0.16295   0.00000  Uiso   1.00
C255   C     0.78928   0.15610   0.38467   0.00000  Uiso   1.00
C256   C     0.87737   0.18133   0.11626   0.00000  Uiso   1.00
C257   C     0.76331   0.10547   0.44159   0.00000  Uiso   1.00
C258   C     0.89806   0.24034   0.06910   0.00000  Uiso   1.00
C259   C     0.76938   0.11724   0.39746   0.00000  Uiso   1.00
C260   C     0.89875   0.22028   0.10723   0.00000  Uiso   1.00
C261   C     0.80551   0.18140   0.41457   0.00000  Uiso   1.00
C262   C     0.85733   0.16214   0.08579   0.00000  Uiso   1.00
C263   C     0.80534   0.16642   0.45565   0.00000  Uiso   1.00
C264   C     0.85347   0.18395   0.04997   0.00000  Uiso   1.00
C265   C     0.77558   0.13326   0.47247   0.00000  Uiso   1.00
C266   C     0.88183   0.21878   0.03657   0.00000  Uiso   1.00
C267   C     0.83333   0.18279   0.48117   0.00000  Uiso   1.00
C268   C     0.82232   0.17235   0.02652   0.00000  Uiso   1.00
H269   H     0.90093   0.29657   0.25580   0.00000  Uiso   1.00
H270   H     0.76297   0.03724   0.24762   0.00000  Uiso   1.00
N271   N     0.71426   0.16668   0.25001   0.00000  Uiso   1.00
N272   N     0.95241   0.16666   0.24999   0.00000  Uiso   1.00
O273   O     0.79512   0.22775   0.25000   0.00000  Uiso   1.00
O274   O     0.87154   0.10558   0.25000   0.00000  Uiso   1.00
O275   O     0.87157   0.22774   0.25000   0.00000  Uiso   1.00
O276   O     0.79510   0.10559   0.25000   0.00000  Uiso   1.00
O277   O     0.77328   0.16667   0.31612   0.00000  Uiso   1.00
O278   O     0.89339   0.16666   0.18388   0.00000  Uiso   1.00
O279   O     0.84972   0.16666   0.31612   0.00000  Uiso   1.00
O280   O     0.81695   0.16667   0.18388   0.00000  Uiso   1.00
Zn281  Zn    0.78229   0.16667   0.25000   0.00000  Uiso   1.00
Zn282  Zn    0.88438   0.16666   0.25000   0.00000  Uiso   1.00
I283   I     0.68831   0.10764   0.04898   0.00000  Uiso   1.00
I284   I     0.95969   0.25911   0.45855   0.00000  Uiso   1.00
I285   I     0.84715   0.09704   0.08607   0.00000  Uiso   1.00
I286   I     0.81145   0.24628   0.40594   0.00000  Uiso   1.00
O287   O     0.92432   0.23781   0.13306   0.00000  Uiso   1.00
C288   C     0.96916   0.21819   0.11867   0.00000  Uiso   1.00
H289   H     0.96646   0.18471   0.12456   0.00000  Uiso   1.00
H290   H     0.98869   0.23239   0.14021   0.00000  Uiso   1.00
C291   C     0.99805   0.22307   0.06843   0.00000  Uiso   1.00
H292   H     0.67197   0.25623   0.06222   0.00000  Uiso   1.00
H293   H     0.69780   0.20550   0.05952   0.00000  Uiso   1.00
H294   H     0.98081   0.20883   0.04481   0.00000  Uiso   1.00
O295   O     0.76095   0.08919   0.36536   0.00000  Uiso   1.00
C296   C     0.71194   0.08451   0.37495   0.00000  Uiso   1.00
H297   H     0.70019   0.10469   0.35335   0.00000  Uiso   1.00
H298   H     0.69039   0.09284   0.41120   0.00000  Uiso   1.00
C299   C     0.70154   0.03952   0.36362   0.00000  Uiso   1.00
H300   H     0.99643   0.03490   0.37359   0.00000  Uiso   1.00
H301   H     0.71784   0.03118   0.32677   0.00000  Uiso   1.00
H302   H     0.71564   0.01812   0.38214   0.00000  Uiso   1.00
I303   I     0.75627   0.04112   0.45380   0.00000  Uiso   1.00
I304   I     0.91023   0.30559   0.07042   0.00000  Uiso   1.00
O305   O     0.75190   0.16137   0.09395   0.00000  Uiso   1.00
C306   C     0.75566   0.20105   0.11593   0.00000  Uiso   1.00
H307   H     0.78274   0.20014   0.13225   0.00000  Uiso   1.00
H308   H     0.72301   0.20558   0.14539   0.00000  Uiso   1.00
C309   C     0.76222   0.24025   0.08868   0.00000  Uiso   1.00
H310   H     0.79357   0.25738   0.09089   0.00000  Uiso   1.00
H311   H     0.73194   0.26170   0.10359   0.00000  Uiso   1.00
H312   H     0.76629   0.23434   0.05226   0.00000  Uiso   1.00
O313   O     0.90041   0.19577   0.41552   0.00000  Uiso   1.00
C314   C     0.93269   0.16248   0.40950   0.00000  Uiso   1.00
H315   H     0.95104   0.16423   0.43523   0.00000  Uiso   1.00
H316   H     0.96044   0.16429   0.37605   0.00000  Uiso   1.00
C317   C     0.90967   0.12020   0.40895   0.00000  Uiso   1.00
H318   H     0.89158   0.11797   0.38318   0.00000  Uiso   1.00
H319   H     0.93705   0.09565   0.40059   0.00000  Uiso   1.00
H320   H     0.88439   0.11463   0.44292   0.00000  Uiso   1.00
O321   O     0.89555   0.04532   0.28408   0.00000  Uiso   1.00
C322   C     0.94230   0.03128   0.27126   0.00000  Uiso   1.00
H323   H     0.95960   0.03017   0.23370   0.00000  Uiso   1.00
H324   H     0.94411   0.00077   0.28412   0.00000  Uiso   1.00
C325   C     0.96847   0.06049   0.29431   0.00000  Uiso   1.00
H326   H     0.95224   0.05966   0.33160   0.00000  Uiso   1.00
H327   H     0.67227   0.05042   0.28429   0.00000  Uiso   1.00
H328   H     0.96647   0.09264   0.28523   0.00000  Uiso   1.00
O329   O     0.75329   0.29182   0.24599   0.00000  Uiso   1.00
C330   C     0.74920   0.29149   0.20227   0.00000  Uiso   1.00
H331   H     0.77300   0.26740   0.17910   0.00000  Uiso   1.00
H332   H     0.75762   0.32190   0.18723   0.00000  Uiso   1.00
C333   C     0.69878   0.28171   0.20627   0.00000  Uiso   1.00
H334   H     0.67516   0.30190   0.23431   0.00000  Uiso   1.00
H335   H     0.69202   0.28795   0.17460   0.00000  Uiso   1.00
H336   H     0.69105   0.24887   0.21373   0.00000  Uiso   1.00
I337   I     0.96719   0.10210   0.17178   0.00000  Uiso   1.00
I338   I     0.69763   0.22866   0.33180   0.00000  Uiso   1.00
O339   O     0.73582   0.12491   0.17955   0.00000  Uiso   1.00
C340   C     0.74117   0.08216   0.18412   0.00000  Uiso   1.00
H341   H     0.71541   0.07026   0.21504   0.00000  Uiso   1.00
H342   H     0.77679   0.07748   0.18555   0.00000  Uiso   1.00
C343   C     0.73887   0.05564   0.14214   0.00000  Uiso   1.00
H344   H     0.76939   0.03398   0.12898   0.00000  Uiso   1.00
H345   H     0.70681   0.03640   0.15099   0.00000  Uiso   1.00
H346   H     0.73913   0.07527   0.11439   0.00000  Uiso   1.00
O347   O     0.93149   0.20875   0.32047   0.00000  Uiso   1.00
C348   C     0.92401   0.25026   0.31285   0.00000  Uiso   1.00
H349   H     0.88718   0.25287   0.31442   0.00000  Uiso   1.00
H350   H     0.94748   0.26027   0.27965   0.00000  Uiso   1.00
C351   C     0.92816   0.28084   0.35106   0.00000  Uiso   1.00
H352   H     0.96393   0.29386   0.34232   0.00000  Uiso   1.00
H353   H     0.90351   0.30738   0.35622   0.00000  Uiso   1.00
H354   H     0.91918   0.26591   0.38350   0.00000  Uiso   1.00
C355   C     0.16694   0.57989   0.24924   0.00000  Uiso   1.00
C356   C     0.16575   0.42043   0.25212   0.00000  Uiso   1.00
C357   C     0.11106   0.48824   0.04777   0.00000  Uiso   1.00
C358   C     0.20926   0.53683   0.46145   0.00000  Uiso   1.00
C359   C     0.09034   0.46469   0.01989   0.00000  Uiso   1.00
C360   C     0.22990   0.55989   0.48999   0.00000  Uiso   1.00
C361   C     0.20431   0.64644   0.25489   0.00000  Uiso   1.00
C362   C     0.12699   0.35471   0.24880   0.00000  Uiso   1.00
C363   C     0.20197   0.35606   0.26211   0.00000  Uiso   1.00
C364   C     0.12711   0.64547   0.24617   0.00000  Uiso   1.00
C365   C     0.16473   0.37641   0.25484   0.00000  Uiso   1.00
C366   C     0.16644   0.62442   0.24900   0.00000  Uiso   1.00
C367   C     0.32020   0.47658   0.21776   0.00000  Uiso   1.00
C368   C     0.01308   0.52309   0.28250   0.00000  Uiso   1.00
C369   C     0.03472   0.47679   0.21717   0.00000  Uiso   1.00
C370   C     0.29874   0.52286   0.28302   0.00000  Uiso   1.00
C371   C     0.13773   0.49853   0.33692   0.00000  Uiso   1.00
C372   C     0.19574   0.50171   0.16295   0.00000  Uiso   1.00
C373   C     0.12261   0.48943   0.38467   0.00000  Uiso   1.00
C374   C     0.21070   0.51466   0.11626   0.00000  Uiso   1.00
C375   C     0.09664   0.43880   0.44159   0.00000  Uiso   1.00
C376   C     0.23139   0.57368   0.06910   0.00000  Uiso   1.00
C377   C     0.10272   0.45057   0.39746   0.00000  Uiso   1.00
C378   C     0.23208   0.55361   0.10723   0.00000  Uiso   1.00
C379   C     0.13884   0.51473   0.41457   0.00000  Uiso   1.00
C380   C     0.19067   0.49547   0.08579   0.00000  Uiso   1.00
C381   C     0.13868   0.49975   0.45565   0.00000  Uiso   1.00
C382   C     0.18680   0.51728   0.04997   0.00000  Uiso   1.00
C383   C     0.10891   0.46659   0.47247   0.00000  Uiso   1.00
C384   C     0.21516   0.55211   0.03657   0.00000  Uiso   1.00
C385   C     0.16666   0.51612   0.48117   0.00000  Uiso   1.00
C386   C     0.15566   0.50568   0.02652   0.00000  Uiso   1.00
H387   H     0.23426   0.62990   0.25580   0.00000  Uiso   1.00
H388   H     0.09630   0.37057   0.24762   0.00000  Uiso   1.00
N389   N     0.04759   0.50001   0.25001   0.00000  Uiso   1.00
N390   N     0.28574   0.49999   0.24999   0.00000  Uiso   1.00
O391   O     0.12846   0.56108   0.25000   0.00000  Uiso   1.00
O392   O     0.20488   0.43892   0.25000   0.00000  Uiso   1.00
O393   O     0.20490   0.56107   0.25000   0.00000  Uiso   1.00
O394   O     0.12843   0.43893   0.25000   0.00000  Uiso   1.00
O395   O     0.10661   0.50001   0.31612   0.00000  Uiso   1.00
O396   O     0.22672   0.49999   0.18388   0.00000  Uiso   1.00
O397   O     0.18305   0.50000   0.31612   0.00000  Uiso   1.00
O398   O     0.15028   0.50000   0.18388   0.00000  Uiso   1.00
Zn399  Zn    0.11562   0.50001   0.25000   0.00000  Uiso   1.00
Zn400  Zn    0.21771   0.49999   0.25000   0.00000  Uiso   1.00
I401   I     0.02164   0.44097   0.04898   0.00000  Uiso   1.00
I402   I     0.29302   0.59244   0.45855   0.00000  Uiso   1.00
I403   I     0.18048   0.43038   0.08607   0.00000  Uiso   1.00
I404   I     0.14479   0.57961   0.40594   0.00000  Uiso   1.00
O405   O     0.25765   0.57115   0.13306   0.00000  Uiso   1.00
C406   C     0.30249   0.55152   0.11867   0.00000  Uiso   1.00
H407   H     0.29979   0.51804   0.12456   0.00000  Uiso   1.00
H408   H     0.32202   0.56572   0.14021   0.00000  Uiso   1.00
C409   C     0.33138   0.55640   0.06843   0.00000  Uiso   1.00
H410   H     0.00530   0.58956   0.06222   0.00000  Uiso   1.00
H411   H     0.03113   0.53883   0.05952   0.00000  Uiso   1.00
H412   H     0.31414   0.54216   0.04481   0.00000  Uiso   1.00
O413   O     0.09428   0.42252   0.36536   0.00000  Uiso   1.00
C414   C     0.04527   0.41785   0.37495   0.00000  Uiso   1.00
H415   H     0.03353   0.43803   0.35335   0.00000  Uiso   1.00
H416   H     0.02372   0.42618   0.41120   0.00000  Uiso   1.00
C417   C     0.03487   0.37285   0.36362   0.00000  Uiso   1.00
H418   H     0.32976   0.36823   0.37359   0.00000  Uiso   1.00
H419   H     0.05117   0.36452   0.32677   0.00000  Uiso   1.00
H420   H     0.04898   0.35145   0.38214   0.00000  Uiso   1.00
I421   I     0.08961   0.37445   0.45380   0.00000  Uiso   1.00
I422   I     0.24357   0.63892   0.07042   0.00000  Uiso   1.00
O423   O     0.08523   0.49470   0.09395   0.00000  Uiso   1.00
C424   C     0.08900   0.53438   0.11593   0.00000  Uiso   1.00
H425   H     0.11607   0.53348   0.13225   0.00000  Uiso   1.00
H426   H     0.05634   0.53891   0.14539   0.00000  Uiso   1.00
C427   C     0.09555   0.57358   0.08868   0.00000  Uiso   1.00
H428   H     0.12690   0.59071   0.09089   0.00000  Uiso   1.00
H429   H     0.06527   0.59503   0.10359   0.00000  Uiso   1.00
H430   H     0.09962   0.56767   0.05226   0.00000  Uiso   1.00
O431   O     0.23374   0.52911   0.41552   0.00000  Uiso   1.00
C432   C     0.26602   0.49582   0.40950   0.00000  Uiso   1.00
H433   H     0.28438   0.49756   0.43523   0.00000  Uiso   1.00
H434   H     0.29377   0.49762   0.37605   0.00000  Uiso   1.00
C435   C     0.24301   0.45354   0.40895   0.00000  Uiso   1.00
H436   H     0.22492   0.45130   0.38318   0.00000  Uiso   1.00
H437   H     0.27039   0.42898   0.40059   0.00000  Uiso   1.00
H438   H     0.21772   0.44797   0.44292   0.00000  Uiso   1.00
O439   O     0.22889   0.37865   0.28408   0.00000  Uiso   1.00
C440   C     0.27563   0.36461   0.27126   0.00000  Uiso   1.00
H441   H     0.29293   0.36350   0.23370   0.00000  Uiso   1.00
H442   H     0.27744   0.33410   0.28412   0.00000  Uiso   1.00
C443   C     0.30181   0.39382   0.29431   0.00000  Uiso   1.00
H444   H     0.28557   0.39300   0.33160   0.00000  Uiso   1.00
H445   H     0.00560   0.38375   0.28429   0.00000  Uiso   1.00
H446   H     0.29980   0.42597   0.28523   0.00000  Uiso   1.00
O447   O     0.08663   0.62516   0.24599   0.00000  Uiso   1.00
C448   C     0.08253   0.62482   0.20227   0.00000  Uiso   1.00
H449   H     0.10633   0.60073   0.17910   0.00000  Uiso   1.00
H450   H     0.09095   0.65524   0.18723   0.00000  Uiso   1.00
C451   C     0.03212   0.61504   0.20627   0.00000  Uiso   1.00
H452   H     0.00850   0.63523   0.23431   0.00000  Uiso   1.00
H453   H     0.02536   0.62128   0.17460   0.00000  Uiso   1.00
H454   H     0.02438   0.58220   0.21373   0.00000  Uiso   1.00
I455   I     0.30053   0.43543   0.17178   0.00000  Uiso   1.00
I456   I     0.03096   0.56199   0.33180   0.00000  Uiso   1.00
O457   O     0.06916   0.45825   0.17955   0.00000  Uiso   1.00
C458   C     0.07450   0.41549   0.18412   0.00000  Uiso   1.00
H459   H     0.04874   0.40359   0.21504   0.00000  Uiso   1.00
H460   H     0.11012   0.41081   0.18555   0.00000  Uiso   1.00
C461   C     0.07221   0.38897   0.14214   0.00000  Uiso   1.00
H462   H     0.10273   0.36732   0.12898   0.00000  Uiso   1.00
H463   H     0.04015   0.36974   0.15099   0.00000  Uiso   1.00
H464   H     0.07246   0.40860   0.11439   0.00000  Uiso   1.00
O465   O     0.26482   0.54208   0.32047   0.00000  Uiso   1.00
C466   C     0.25735   0.58360   0.31285   0.00000  Uiso   1.00
H467   H     0.22052   0.58620   0.31442   0.00000  Uiso   1.00
H468   H     0.28081   0.59361   0.27965   0.00000  Uiso   1.00
C469   C     0.26150   0.61418   0.35106   0.00000  Uiso   1.00
H470   H     0.29726   0.62719   0.34232   0.00000  Uiso   1.00
H471   H     0.23684   0.64072   0.35622   0.00000  Uiso   1.00
H472   H     0.25251   0.59924   0.38350   0.00000  Uiso   1.00
C473   C     0.50028   0.57989   0.24924   0.00000  Uiso   1.00
C474   C     0.49908   0.42043   0.25212   0.00000  Uiso   1.00
C475   C     0.44439   0.48824   0.04777   0.00000  Uiso   1.00
C476   C     0.54259   0.53683   0.46145   0.00000  Uiso   1.00
C477   C     0.42367   0.46469   0.01989   0.00000  Uiso   1.00
C478   C     0.56323   0.55989   0.48999   0.00000  Uiso   1.00
C479   C     0.53764   0.64644   0.25489   0.00000  Uiso   1.00
C480   C     0.46032   0.35471   0.24880   0.00000  Uiso   1.00
C481   C     0.53531   0.35606   0.26211   0.00000  Uiso   1.00
C482   C     0.46045   0.64547   0.24617   0.00000  Uiso   1.00
C483   C     0.49806   0.37641   0.25484   0.00000  Uiso   1.00
C484   C     0.49977   0.62442   0.24900   0.00000  Uiso   1.00
C485   C     0.65353   0.47658   0.21776   0.00000  Uiso   1.00
C486   C     0.34641   0.52309   0.28250   0.00000  Uiso   1.00
C487   C     0.36805   0.47679   0.21717   0.00000  Uiso   1.00
C488   C     0.63207   0.52286   0.28302   0.00000  Uiso   1.00
C489   C     0.47107   0.49853   0.33692   0.00000  Uiso   1.00
C490   C     0.52908   0.50171   0.16295   0.00000  Uiso   1.00
C491   C     0.45595   0.48943   0.38467   0.00000  Uiso   1.00
C492   C     0.54403   0.51466   0.11626   0.00000  Uiso   1.00
C493   C     0.42997   0.43880   0.44159   0.00000  Uiso   1.00
C494   C     0.56472   0.57368   0.06910   0.00000  Uiso   1.00
C495   C     0.43605   0.45057   0.39746   0.00000  Uiso   1.00
C496   C     0.56541   0.55361   0.10723   0.00000  Uiso   1.00
C497   C     0.47218   0.51473   0.41457   0.00000  Uiso   1.00
C498   C     0.52400   0.49547   0.08579   0.00000  Uiso   1.00
C499   C     0.47201   0.49975   0.45565   0.00000  Uiso   1.00
C500   C     0.52013   0.51728   0.04997   0.00000  Uiso   1.00
C501   C     0.44224   0.46659   0.47247   0.00000  Uiso   1.00
C502   C     0.54849   0.55211   0.03657   0.00000  Uiso   1.00
C503   C     0.50000   0.51612   0.48117   0.00000  Uiso   1.00
C504   C     0.48899   0.50568   0.02652   0.00000  Uiso   1.00
H505   H     0.56759   0.62990   0.25580   0.00000  Uiso   1.00
H506   H     0.42963   0.37057   0.24762   0.00000  Uiso   1.00
N507   N     0.38093   0.50001   0.25001   0.00000  Uiso   1.00
N508   N     0.61907   0.49999   0.24999   0.00000  Uiso   1.00
O509   O     0.46179   0.56108   0.25000   0.00000  Uiso   1.00
O510   O     0.53821   0.43892   0.25000   0.00000  Uiso   1.00
O511   O     0.53823   0.56107   0.25000   0.00000  Uiso   1.00
O512   O     0.46177   0.43893   0.25000   0.00000  Uiso   1.00
O513   O     0.43994   0.50001   0.31612   0.00000  Uiso   1.00
O514   O     0.56006   0.49999   0.18388   0.00000  Uiso   1.00
O515   O     0.51639   0.50000   0.31612   0.00000  Uiso   1.00
O516   O     0.48361   0.50000   0.18388   0.00000  Uiso   1.00
Zn517  Zn    0.44896   0.50001   0.25000   0.00000  Uiso   1.00
Zn518  Zn    0.55104   0.49999   0.25000   0.00000  Uiso   1.00
I519   I     0.35498   0.44097   0.04898   0.00000  Uiso   1.00
I520   I     0.62636   0.59244   0.45855   0.00000  Uiso   1.00
I521   I     0.51381   0.43038   0.08607   0.00000  Uiso   1.00
I522   I     0.47812   0.57961   0.40594   0.00000  Uiso   1.00
O523   O     0.59098   0.57115   0.13306   0.00000  Uiso   1.00
C524   C     0.63583   0.55152   0.11867   0.00000  Uiso   1.00
H525   H     0.63313   0.51804   0.12456   0.00000  Uiso   1.00
H526   H     0.65535   0.56572   0.14021   0.00000  Uiso   1.00
C527   C     0.66472   0.55640   0.06843   0.00000  Uiso   1.00
H528   H     0.33863   0.58956   0.06222   0.00000  Uiso   1.00
H529   H     0.36447   0.53883   0.05952   0.00000  Uiso   1.00
H530   H     0.64747   0.54216   0.04481   0.00000  Uiso   1.00
O531   O     0.42762   0.42252   0.36536   0.00000  Uiso   1.00
C532   C     0.37861   0.41785   0.37495   0.00000  Uiso   1.00
H533   H     0.36686   0.43803   0.35335   0.00000  Uiso   1.00
H534   H     0.35706   0.42618   0.41120   0.00000  Uiso   1.00
C535   C     0.36820   0.37285   0.36362   0.00000  Uiso   1.00
H536   H     0.66310   0.36823   0.37359   0.00000  Uiso   1.00
H537   H     0.38450   0.36452   0.32677   0.00000  Uiso   1.00
H538   H     0.38231   0.35145   0.38214   0.00000  Uiso   1.00
I539   I     0.42294   0.37445   0.45380   0.00000  Uiso   1.00
I540   I     0.57690   0.63892   0.07042   0.00000  Uiso   1.00
O541   O     0.41856   0.49470   0.09395   0.00000  Uiso   1.00
C542   C     0.42233   0.53438   0.11593   0.00000  Uiso   1.00
H543   H     0.44940   0.53348   0.13225   0.00000  Uiso   1.00
H544   H     0.38967   0.53891   0.14539   0.00000  Uiso   1.00
C545   C     0.42889   0.57358   0.08868   0.00000  Uiso   1.00
H546   H     0.46024   0.59071   0.09089   0.00000  Uiso   1.00
H547   H     0.39861   0.59503   0.10359   0.00000  Uiso   1.00
H548   H     0.43296   0.56767   0.05226   0.00000  Uiso   1.00
O549   O     0.56707   0.52911   0.41552   0.00000  Uiso   1.00
C550   C     0.59936   0.49582   0.40950   0.00000  Uiso   1.00
H551   H     0.61771   0.49756   0.43523   0.00000  Uiso   1.00
H552   H     0.62711   0.49762   0.37605   0.00000  Uiso   1.00
C553   C     0.57634   0.45354   0.40895   0.00000  Uiso   1.00
H554   H     0.55825   0.45130   0.38318   0.00000  Uiso   1.00
H555   H     0.60372   0.42898   0.40059   0.00000  Uiso   1.00
H556   H     0.55106   0.44797   0.44292   0.00000  Uiso   1.00
O557   O     0.56222   0.37865   0.28408   0.00000  Uiso   1.00
C558   C     0.60897   0.36461   0.27126   0.00000  Uiso   1.00
H559   H     0.62627   0.36350   0.23370   0.00000  Uiso   1.00
H560   H     0.61078   0.33410   0.28412   0.00000  Uiso   1.00
C561   C     0.63514   0.39382   0.29431   0.00000  Uiso   1.00
H562   H     0.61890   0.39300   0.33160   0.00000  Uiso   1.00
H563   H     0.33893   0.38375   0.28429   0.00000  Uiso   1.00
H564   H     0.63313   0.42597   0.28523   0.00000  Uiso   1.00
O565   O     0.41996   0.62516   0.24599   0.00000  Uiso   1.00
C566   C     0.41587   0.62482   0.20227   0.00000  Uiso   1.00
H567   H     0.43966   0.60073   0.17910   0.00000  Uiso   1.00
H568   H     0.42429   0.65524   0.18723   0.00000  Uiso   1.00
C569   C     0.36545   0.61504   0.20627   0.00000  Uiso   1.00
H570   H     0.34183   0.63523   0.23431   0.00000  Uiso   1.00
H571   H     0.35869   0.62128   0.17460   0.00000  Uiso   1.00
H572   H     0.35772   0.58220   0.21373   0.00000  Uiso   1.00
I573   I     0.63386   0.43543   0.17178   0.00000  Uiso   1.00
I574   I     0.36430   0.56199   0.33180   0.00000  Uiso   1.00
O575   O     0.40249   0.45825   0.17955   0.00000  Uiso   1.00
C576   C     0.40784   0.41549   0.18412   0.00000  Uiso   1.00
H577   H     0.38208   0.40359   0.21504   0.00000  Uiso   1.00
H578   H     0.44346   0.41081   0.18555   0.00000  Uiso   1.00
C579   C     0.40554   0.38897   0.14214   0.00000  Uiso   1.00
H580   H     0.43606   0.36732   0.12898   0.00000  Uiso   1.00
H581   H     0.37348   0.36974   0.15099   0.00000  Uiso   1.00
H582   H     0.40580   0.40860   0.11439   0.00000  Uiso   1.00
O583   O     0.59815   0.54208   0.32047   0.00000  Uiso   1.00
C584   C     0.59068   0.58360   0.31285   0.00000  Uiso   1.00
H585   H     0.55385   0.58620   0.31442   0.00000  Uiso   1.00
H586   H     0.61415   0.59361   0.27965   0.00000  Uiso   1.00
C587   C     0.59483   0.61418   0.35106   0.00000  Uiso   1.00
H588   H     0.63060   0.62719   0.34232   0.00000  Uiso   1.00
H589   H     0.57017   0.64072   0.35622   0.00000  Uiso   1.00
H590   H     0.58584   0.59924   0.38350   0.00000  Uiso   1.00
C591   C     0.83361   0.57989   0.24924   0.00000  Uiso   1.00
C592   C     0.83241   0.42043   0.25212   0.00000  Uiso   1.00
C593   C     0.77773   0.48824   0.04777   0.00000  Uiso   1.00
C594   C     0.87592   0.53683   0.46145   0.00000  Uiso   1.00
C595   C     0.75700   0.46469   0.01989   0.00000  Uiso   1.00
C596   C     0.89657   0.55989   0.48999   0.00000  Uiso   1.00
C597   C     0.87098   0.64644   0.25489   0.00000  Uiso   1.00
C598   C     0.79366   0.35471   0.24880   0.00000  Uiso   1.00
C599   C     0.86864   0.35606   0.26211   0.00000  Uiso   1.00
C600   C     0.79378   0.64547   0.24617   0.00000  Uiso   1.00
C601   C     0.83139   0.37641   0.25484   0.00000  Uiso   1.00
C602   C     0.83311   0.62442   0.24900   0.00000  Uiso   1.00
C603   C     0.98687   0.47658   0.21776   0.00000  Uiso   1.00
C604   C     0.67974   0.52309   0.28250   0.00000  Uiso   1.00
C605   C     0.70138   0.47679   0.21717   0.00000  Uiso   1.00
C606   C     0.96541   0.52286   0.28302   0.00000  Uiso   1.00
C607   C     0.80440   0.49853   0.33692   0.00000  Uiso   1.00
C608   C     0.86241   0.50171   0.16295   0.00000  Uiso   1.00
C609   C     0.78928   0.48943   0.38467   0.00000  Uiso   1.00
C610   C     0.87737   0.51466   0.11626   0.00000  Uiso   1.00
C611   C     0.76331   0.43880   0.44159   0.00000  Uiso   1.00
C612   C     0.89806   0.57368   0.06910   0.00000  Uiso   1.00
C613   C     0.76938   0.45057   0.39746   0.00000  Uiso   1.00
C614   C     0.89875   0.55361   0.10723   0.00000  Uiso   1.00
C615   C     0.80551   0.51473   0.41457   0.00000  Uiso   1.00
C616   C     0.85733   0.49547   0.08579   0.00000  Uiso   1.00
C617   C     0.80534   0.49975   0.45565   0.00000  Uiso   1.00
C618   C     0.85347   0.51728   0.04997   0.00000  Uiso   1.00
C619   C     0.77558   0.46659   0.47247   0.00000  Uiso   1.00
C620   C     0.88183   0.55211   0.03657   0.00000  Uiso   1.00
C621   C     0.83333   0.51612   0.48117   0.00000  Uiso   1.00
C622   C     0.82232   0.50568   0.02652   0.00000  Uiso   1.00
H623   H     0.90093   0.62990   0.25580   0.00000  Uiso   1.00
H624   H     0.76297   0.37057   0.24762   0.00000  Uiso   1.00
N625   N     0.71426   0.50001   0.25001   0.00000  Uiso   1.00
N626   N     0.95241   0.49999   0.24999   0.00000  Uiso   1.00
O627   O     0.79512   0.56108   0.25000   0.00000  Uiso   1.00
O628   O     0.87154   0.43892   0.25000   0.00000  Uiso   1.00
O629   O     0.87157   0.56107   0.25000   0.00000  Uiso   1.00
O630   O     0.79510   0.43893   0.25000   0.00000  Uiso   1.00
O631   O     0.77328   0.50001   0.31612   0.00000  Uiso   1.00
O632   O     0.89339   0.49999   0.18388   0.00000  Uiso   1.00
O633   O     0.84972   0.50000   0.31612   0.00000  Uiso   1.00
O634   O     0.81695   0.50000   0.18388   0.00000  Uiso   1.00
Zn635  Zn    0.78229   0.50001   0.25000   0.00000  Uiso   1.00
Zn636  Zn    0.88438   0.49999   0.25000   0.00000  Uiso   1.00
I637   I     0.68831   0.44097   0.04898   0.00000  Uiso   1.00
I638   I     0.95969   0.59244   0.45855   0.00000  Uiso   1.00
I639   I     0.84715   0.43038   0.08607   0.00000  Uiso   1.00
I640   I     0.81145   0.57961   0.40594   0.00000  Uiso   1.00
O641   O     0.92432   0.57115   0.13306   0.00000  Uiso   1.00
C642   C     0.96916   0.55152   0.11867   0.00000  Uiso   1.00
H643   H     0.96646   0.51804   0.12456   0.00000  Uiso   1.00
H644   H     0.98869   0.56572   0.14021   0.00000  Uiso   1.00
C645   C     0.99805   0.55640   0.06843   0.00000  Uiso   1.00
H646   H     0.67197   0.58956   0.06222   0.00000  Uiso   1.00
H647   H     0.69780   0.53883   0.05952   0.00000  Uiso   1.00
H648   H     0.98081   0.54216   0.04481   0.00000  Uiso   1.00
O649   O     0.76095   0.42252   0.36536   0.00000  Uiso   1.00
C650   C     0.71194   0.41785   0.37495   0.00000  Uiso   1.00
H651   H     0.70019   0.43803   0.35335   0.00000  Uiso   1.00
H652   H     0.69039   0.42618   0.41120   0.00000  Uiso   1.00
C653   C     0.70154   0.37285   0.36362   0.00000  Uiso   1.00
H654   H     0.99643   0.36823   0.37359   0.00000  Uiso   1.00
H655   H     0.71784   0.36452   0.32677   0.00000  Uiso   1.00
H656   H     0.71564   0.35145   0.38214   0.00000  Uiso   1.00
I657   I     0.75627   0.37445   0.45380   0.00000  Uiso   1.00
I658   I     0.91023   0.63892   0.07042   0.00000  Uiso   1.00
O659   O     0.75190   0.49470   0.09395   0.00000  Uiso   1.00
C660   C     0.75566   0.53438   0.11593   0.00000  Uiso   1.00
H661   H     0.78274   0.53348   0.13225   0.00000  Uiso   1.00
H662   H     0.72301   0.53891   0.14539   0.00000  Uiso   1.00
C663   C     0.76222   0.57358   0.08868   0.00000  Uiso   1.00
H664   H     0.79357   0.59071   0.09089   0.00000  Uiso   1.00
H665   H     0.73194   0.59503   0.10359   0.00000  Uiso   1.00
H666   H     0.76629   0.56767   0.05226   0.00000  Uiso   1.00
O667   O     0.90041   0.52911   0.41552   0.00000  Uiso   1.00
C668   C     0.93269   0.49582   0.40950   0.00000  Uiso   1.00
H669   H     0.95104   0.49756   0.43523   0.00000  Uiso   1.00
H670   H     0.96044   0.49762   0.37605   0.00000  Uiso   1.00
C671   C     0.90967   0.45354   0.40895   0.00000  Uiso   1.00
H672   H     0.89158   0.45130   0.38318   0.00000  Uiso   1.00
H673   H     0.93705   0.42898   0.40059   0.00000  Uiso   1.00
H674   H     0.88439   0.44797   0.44292   0.00000  Uiso   1.00
O675   O     0.89555   0.37865   0.28408   0.00000  Uiso   1.00
C676   C     0.94230   0.36461   0.27126   0.00000  Uiso   1.00
H677   H     0.95960   0.36350   0.23370   0.00000  Uiso   1.00
H678   H     0.94411   0.33410   0.28412   0.00000  Uiso   1.00
C679   C     0.96847   0.39382   0.29431   0.00000  Uiso   1.00
H680   H     0.95224   0.39300   0.33160   0.00000  Uiso   1.00
H681   H     0.67227   0.38375   0.28429   0.00000  Uiso   1.00
H682   H     0.96647   0.42597   0.28523   0.00000  Uiso   1.00
O683   O     0.75329   0.62516   0.24599   0.00000  Uiso   1.00
C684   C     0.74920   0.62482   0.20227   0.00000  Uiso   1.00
H685   H     0.77300   0.60073   0.17910   0.00000  Uiso   1.00
H686   H     0.75762   0.65524   0.18723   0.00000  Uiso   1.00
C687   C     0.69878   0.61504   0.20627   0.00000  Uiso   1.00
H688   H     0.67516   0.63523   0.23431   0.00000  Uiso   1.00
H689   H     0.69202   0.62128   0.17460   0.00000  Uiso   1.00
H690   H     0.69105   0.58220   0.21373   0.00000  Uiso   1.00
I691   I     0.96719   0.43543   0.17178   0.00000  Uiso   1.00
I692   I     0.69763   0.56199   0.33180   0.00000  Uiso   1.00
O693   O     0.73582   0.45825   0.17955   0.00000  Uiso   1.00
C694   C     0.74117   0.41549   0.18412   0.00000  Uiso   1.00
H695   H     0.71541   0.40359   0.21504   0.00000  Uiso   1.00
H696   H     0.77679   0.41081   0.18555   0.00000  Uiso   1.00
C697   C     0.73887   0.38897   0.14214   0.00000  Uiso   1.00
H698   H     0.76939   0.36732   0.12898   0.00000  Uiso   1.00
H699   H     0.70681   0.36974   0.15099   0.00000  Uiso   1.00
H700   H     0.73913   0.40860   0.11439   0.00000  Uiso   1.00
O701   O     0.93149   0.54208   0.32047   0.00000  Uiso   1.00
C702   C     0.92401   0.58360   0.31285   0.00000  Uiso   1.00
H703   H     0.88718   0.58620   0.31442   0.00000  Uiso   1.00
H704   H     0.94748   0.59361   0.27965   0.00000  Uiso   1.00
C705   C     0.92816   0.61418   0.35106   0.00000  Uiso   1.00
H706   H     0.96393   0.62719   0.34232   0.00000  Uiso   1.00
H707   H     0.90351   0.64072   0.35622   0.00000  Uiso   1.00
H708   H     0.91918   0.59924   0.38350   0.00000  Uiso   1.00
C709   C     0.16694   0.91322   0.24924   0.00000  Uiso   1.00
C710   C     0.16575   0.75376   0.25212   0.00000  Uiso   1.00
C711   C     0.11106   0.82158   0.04777   0.00000  Uiso   1.00
C712   C     0.20926   0.87016   0.46145   0.00000  Uiso   1.00
C713   C     0.09034   0.79803   0.01989   0.00000  Uiso   1.00
C714   C     0.22990   0.89322   0.48999   0.00000  Uiso   1.00
C715   C     0.20431   0.97977   0.25489   0.00000  Uiso   1.00
C716   C     0.12699   0.68804   0.24880   0.00000  Uiso   1.00
C717   C     0.20197   0.68939   0.26211   0.00000  Uiso   1.00
C718   C     0.12711   0.97880   0.24617   0.00000  Uiso   1.00
C719   C     0.16473   0.70974   0.25484   0.00000  Uiso   1.00
C720   C     0.16644   0.95775   0.24900   0.00000  Uiso   1.00
C721   C     0.32020   0.80991   0.21776   0.00000  Uiso   1.00
C722   C     0.01308   0.85643   0.28250   0.00000  Uiso   1.00
C723   C     0.03472   0.81013   0.21717   0.00000  Uiso   1.00
C724   C     0.29874   0.85620   0.28302   0.00000  Uiso   1.00
C725   C     0.13773   0.83186   0.33692   0.00000  Uiso   1.00
C726   C     0.19574   0.83504   0.16295   0.00000  Uiso   1.00
C727   C     0.12261   0.82277   0.38467   0.00000  Uiso   1.00
C728   C     0.21070   0.84799   0.11626   0.00000  Uiso   1.00
C729   C     0.09664   0.77214   0.44159   0.00000  Uiso   1.00
C730   C     0.23139   0.90701   0.06910   0.00000  Uiso   1.00
C731   C     0.10272   0.78390   0.39746   0.00000  Uiso   1.00
C732   C     0.23208   0.88694   0.10723   0.00000  Uiso   1.00
C733   C     0.13884   0.84807   0.41457   0.00000  Uiso   1.00
C734   C     0.19067   0.82881   0.08579   0.00000  Uiso   1.00
C735   C     0.13868   0.83308   0.45565   0.00000  Uiso   1.00
C736   C     0.18680   0.85062   0.04997   0.00000  Uiso   1.00
C737   C     0.10891   0.79992   0.47247   0.00000  Uiso   1.00
C738   C     0.21516   0.88545   0.03657   0.00000  Uiso   1.00
C739   C     0.16666   0.84945   0.48117   0.00000  Uiso   1.00
C740   C     0.15566   0.83902   0.02652   0.00000  Uiso   1.00
H741   H     0.23426   0.96323   0.25580   0.00000  Uiso   1.00
H742   H     0.09630   0.70391   0.24762   0.00000  Uiso   1.00
N743   N     0.04759   0.83334   0.25001   0.00000  Uiso   1.00
N744   N     0.28574   0.83332   0.24999   0.00000  Uiso   1.00
O745   O     0.12846   0.89442   0.25000   0.00000  Uiso   1.00
O746   O     0.20488   0.77225   0.25000   0.00000  Uiso   1.00
O747   O     0.20490   0.89441   0.25000   0.00000  Uiso   1.00
O748   O     0.12843   0.77226   0.25000   0.00000  Uiso   1.00
O749   O     0.10661   0.83334   0.31612   0.00000  Uiso   1.00
O750   O     0.22672   0.83333   0.18388   0.00000  Uiso   1.00
O751   O     0.18305   0.83333   0.31612   0.00000  Uiso   1.00
O752   O     0.15028   0.83334   0.18388   0.00000  Uiso   1.00
Zn753  Zn    0.11562   0.83334   0.25000   0.00000  Uiso   1.00
Zn754  Zn    0.21771   0.83333   0.25000   0.00000  Uiso   1.00
I755   I     0.02164   0.77430   0.04898   0.00000  Uiso   1.00
I756   I     0.29302   0.92577   0.45855   0.00000  Uiso   1.00
I757   I     0.18048   0.76371   0.08607   0.00000  Uiso   1.00
I758   I     0.14479   0.91294   0.40594   0.00000  Uiso   1.00
O759   O     0.25765   0.90448   0.13306   0.00000  Uiso   1.00
C760   C     0.30249   0.88486   0.11867   0.00000  Uiso   1.00
H761   H     0.29979   0.85137   0.12456   0.00000  Uiso   1.00
H762   H     0.32202   0.89906   0.14021   0.00000  Uiso   1.00
C763   C     0.33138   0.88974   0.06843   0.00000  Uiso   1.00
H764   H     0.00530   0.92289   0.06222   0.00000  Uiso   1.00
H765   H     0.03113   0.87217   0.05952   0.00000  Uiso   1.00
H766   H     0.31414   0.87550   0.04481   0.00000  Uiso   1.00
O767   O     0.09428   0.75585   0.36536   0.00000  Uiso   1.00
C768   C     0.04527   0.75118   0.37495   0.00000  Uiso   1.00
H769   H     0.03353   0.77136   0.35335   0.00000  Uiso   1.00
H770   H     0.02372   0.75951   0.41120   0.00000  Uiso   1.00
C771   C     0.03487   0.70618   0.36362   0.00000  Uiso   1.00
H772   H     0.32976   0.70156   0.37359   0.00000  Uiso   1.00
H773   H     0.05117   0.69785   0.32677   0.00000  Uiso   1.00
H774   H     0.04898   0.68478   0.38214   0.00000  Uiso   1.00
I775   I     0.08961   0.70778   0.45380   0.00000  Uiso   1.00
I776   I     0.24357   0.97226   0.07042   0.00000  Uiso   1.00
O777   O     0.08523   0.82804   0.09395   0.00000  Uiso   1.00
C778   C     0.08900   0.86771   0.11593   0.00000  Uiso   1.00
H779   H     0.11607   0.86681   0.13225   0.00000  Uiso   1.00
H780   H     0.05634   0.87225   0.14539   0.00000  Uiso   1.00
C781   C     0.09555   0.90692   0.08868   0.00000  Uiso   1.00
H782   H     0.12690   0.92404   0.09089   0.00000  Uiso   1.00
H783   H     0.06527   0.92836   0.10359   0.00000  Uiso   1.00
H784   H     0.09962   0.90100   0.05226   0.00000  Uiso   1.00
O785   O     0.23374   0.86244   0.41552   0.00000  Uiso   1.00
C786   C     0.26602   0.82915   0.40950   0.00000  Uiso   1.00
H787   H     0.28438   0.83089   0.43523   0.00000  Uiso   1.00
H788   H     0.29377   0.83095   0.37605   0.00000  Uiso   1.00
C789   C     0.24301   0.78687   0.40895   0.00000  Uiso   1.00
H790   H     0.22492   0.78464   0.38318   0.00000  Uiso   1.00
H791   H     0.27039   0.76232   0.40059   0.00000  Uiso   1.00
H792   H     0.21772   0.78130   0.44292   0.00000  Uiso   1.00
O793   O     0.22889   0.71198   0.28408   0.00000  Uiso   1.00
C794   C     0.27563   0.69795   0.27126   0.00000  Uiso   1.00
H795   H     0.29293   0.69683   0.23370   0.00000  Uiso   1.00
H796   H     0.27744   0.66744   0.28412   0.00000  Uiso   1.00
C797   C     0.30181   0.72715   0.29431   0.00000  Uiso   1.00
H798   H     0.28557   0.72633   0.33160   0.00000  Uiso   1.00
H799   H     0.00560   0.71709   0.28429   0.00000  Uiso   1.00
H800   H     0.29980   0.75930   0.28523   0.00000  Uiso   1.00
O801   O     0.08663   0.95849   0.24599   0.00000  Uiso   1.00
C802   C     0.08253   0.95816   0.20227   0.00000  Uiso   1.00
H803   H     0.10633   0.93407   0.17910   0.00000  Uiso   1.00
H804   H     0.09095   0.98857   0.18723   0.00000  Uiso   1.00
C805   C     0.03212   0.94837   0.20627   0.00000  Uiso   1.00
H806   H     0.00850   0.96857   0.23431   0.00000  Uiso   1.00
H807   H     0.02536   0.95462   0.17460   0.00000  Uiso   1.00
H808   H     0.02438   0.91553   0.21373   0.00000  Uiso   1.00
I809   I     0.30053   0.76877   0.17178   0.00000  Uiso   1.00
I810   I     0.03096   0.89533   0.33180   0.00000  Uiso   1.00
O811   O     0.06916   0.79158   0.17955   0.00000  Uiso   1.00
C812   C     0.07450   0.74883   0.18412   0.00000  Uiso   1.00
H813   H     0.04874   0.73692   0.21504   0.00000  Uiso   1.00
H814   H     0.11012   0.74414   0.18555   0.00000  Uiso   1.00
C815   C     0.07221   0.72230   0.14214   0.00000  Uiso   1.00
H816   H     0.10273   0.70065   0.12898   0.00000  Uiso   1.00
H817   H     0.04015   0.70307   0.15099   0.00000  Uiso   1.00
H818   H     0.07246   0.74193   0.11439   0.00000  Uiso   1.00
O819   O     0.26482   0.87542   0.32047   0.00000  Uiso   1.00
C820   C     0.25735   0.91693   0.31285   0.00000  Uiso   1.00
H821   H     0.22052   0.91954   0.31442   0.00000  Uiso   1.00
H822   H     0.28081   0.92694   0.27965   0.00000  Uiso   1.00
C823   C     0.26150   0.94751   0.35106   0.00000  Uiso   1.00
H824   H     0.29726   0.96052   0.34232   0.00000  Uiso   1.00
H825   H     0.23684   0.97405   0.35622   0.00000  Uiso   1.00
H826   H     0.25251   0.93258   0.38350   0.00000  Uiso   1.00
C827   C     0.50028   0.91322   0.24924   0.00000  Uiso   1.00
C828   C     0.49908   0.75376   0.25212   0.00000  Uiso   1.00
C829   C     0.44439   0.82158   0.04777   0.00000  Uiso   1.00
C830   C     0.54259   0.87016   0.46145   0.00000  Uiso   1.00
C831   C     0.42367   0.79803   0.01989   0.00000  Uiso   1.00
C832   C     0.56323   0.89322   0.48999   0.00000  Uiso   1.00
C833   C     0.53764   0.97977   0.25489   0.00000  Uiso   1.00
C834   C     0.46032   0.68804   0.24880   0.00000  Uiso   1.00
C835   C     0.53531   0.68939   0.26211   0.00000  Uiso   1.00
C836   C     0.46045   0.97880   0.24617   0.00000  Uiso   1.00
C837   C     0.49806   0.70974   0.25484   0.00000  Uiso   1.00
C838   C     0.49977   0.95775   0.24900   0.00000  Uiso   1.00
C839   C     0.65353   0.80991   0.21776   0.00000  Uiso   1.00
C840   C     0.34641   0.85643   0.28250   0.00000  Uiso   1.00
C841   C     0.36805   0.81013   0.21717   0.00000  Uiso   1.00
C842   C     0.63207   0.85620   0.28302   0.00000  Uiso   1.00
C843   C     0.47107   0.83186   0.33692   0.00000  Uiso   1.00
C844   C     0.52908   0.83504   0.16295   0.00000  Uiso   1.00
C845   C     0.45595   0.82277   0.38467   0.00000  Uiso   1.00
C846   C     0.54403   0.84799   0.11626   0.00000  Uiso   1.00
C847   C     0.42997   0.77214   0.44159   0.00000  Uiso   1.00
C848   C     0.56472   0.90701   0.06910   0.00000  Uiso   1.00
C849   C     0.43605   0.78390   0.39746   0.00000  Uiso   1.00
C850   C     0.56541   0.88694   0.10723   0.00000  Uiso   1.00
C851   C     0.47218   0.84807   0.41457   0.00000  Uiso   1.00
C852   C     0.52400   0.82881   0.08579   0.00000  Uiso   1.00
C853   C     0.47201   0.83308   0.45565   0.00000  Uiso   1.00
C854   C     0.52013   0.85062   0.04997   0.00000  Uiso   1.00
C855   C     0.44224   0.79992   0.47247   0.00000  Uiso   1.00
C856   C     0.54849   0.88545   0.03657   0.00000  Uiso   1.00
C857   C     0.50000   0.84945   0.48117   0.00000  Uiso   1.00
C858   C     0.48899   0.83902   0.02652   0.00000  Uiso   1.00
H859   H     0.56759   0.96323   0.25580   0.00000  Uiso   1.00
H860   H     0.42963   0.70391   0.24762   0.00000  Uiso   1.00
N861   N     0.38093   0.83334   0.25001   0.00000  Uiso   1.00
N862   N     0.61907   0.83332   0.24999   0.00000  Uiso   1.00
O863   O     0.46179   0.89442   0.25000   0.00000  Uiso   1.00
O864   O     0.53821   0.77225   0.25000   0.00000  Uiso   1.00
O865   O     0.53823   0.89441   0.25000   0.00000  Uiso   1.00
O866   O     0.46177   0.77226   0.25000   0.00000  Uiso   1.00
O867   O     0.43994   0.83334   0.31612   0.00000  Uiso   1.00
O868   O     0.56006   0.83333   0.18388   0.00000  Uiso   1.00
O869   O     0.51639   0.83333   0.31612   0.00000  Uiso   1.00
O870   O     0.48361   0.83334   0.18388   0.00000  Uiso   1.00
Zn871  Zn    0.44896   0.83334   0.25000   0.00000  Uiso   1.00
Zn872  Zn    0.55104   0.83333   0.25000   0.00000  Uiso   1.00
I873   I     0.35498   0.77430   0.04898   0.00000  Uiso   1.00
I874   I     0.62636   0.92577   0.45855   0.00000  Uiso   1.00
I875   I     0.51381   0.76371   0.08607   0.00000  Uiso   1.00
I876   I     0.47812   0.91294   0.40594   0.00000  Uiso   1.00
O877   O     0.59098   0.90448   0.13306   0.00000  Uiso   1.00
C878   C     0.63583   0.88486   0.11867   0.00000  Uiso   1.00
H879   H     0.63313   0.85137   0.12456   0.00000  Uiso   1.00
H880   H     0.65535   0.89906   0.14021   0.00000  Uiso   1.00
C881   C     0.66472   0.88974   0.06843   0.00000  Uiso   1.00
H882   H     0.33863   0.92289   0.06222   0.00000  Uiso   1.00
H883   H     0.36447   0.87217   0.05952   0.00000  Uiso   1.00
H884   H     0.64747   0.87550   0.04481   0.00000  Uiso   1.00
O885   O     0.42762   0.75585   0.36536   0.00000  Uiso   1.00
C886   C     0.37861   0.75118   0.37495   0.00000  Uiso   1.00
H887   H     0.36686   0.77136   0.35335   0.00000  Uiso   1.00
H888   H     0.35706   0.75951   0.41120   0.00000  Uiso   1.00
C889   C     0.36820   0.70618   0.36362   0.00000  Uiso   1.00
H890   H     0.66310   0.70156   0.37359   0.00000  Uiso   1.00
H891   H     0.38450   0.69785   0.32677   0.00000  Uiso   1.00
H892   H     0.38231   0.68478   0.38214   0.00000  Uiso   1.00
I893   I     0.42294   0.70778   0.45380   0.00000  Uiso   1.00
I894   I     0.57690   0.97226   0.07042   0.00000  Uiso   1.00
O895   O     0.41856   0.82804   0.09395   0.00000  Uiso   1.00
C896   C     0.42233   0.86771   0.11593   0.00000  Uiso   1.00
H897   H     0.44940   0.86681   0.13225   0.00000  Uiso   1.00
H898   H     0.38967   0.87225   0.14539   0.00000  Uiso   1.00
C899   C     0.42889   0.90692   0.08868   0.00000  Uiso   1.00
H900   H     0.46024   0.92404   0.09089   0.00000  Uiso   1.00
H901   H     0.39861   0.92836   0.10359   0.00000  Uiso   1.00
H902   H     0.43296   0.90100   0.05226   0.00000  Uiso   1.00
O903   O     0.56707   0.86244   0.41552   0.00000  Uiso   1.00
C904   C     0.59936   0.82915   0.40950   0.00000  Uiso   1.00
H905   H     0.61771   0.83089   0.43523   0.00000  Uiso   1.00
H906   H     0.62711   0.83095   0.37605   0.00000  Uiso   1.00
C907   C     0.57634   0.78687   0.40895   0.00000  Uiso   1.00
H908   H     0.55825   0.78464   0.38318   0.00000  Uiso   1.00
H909   H     0.60372   0.76232   0.40059   0.00000  Uiso   1.00
H910   H     0.55106   0.78130   0.44292   0.00000  Uiso   1.00
O911   O     0.56222   0.71198   0.28408   0.00000  Uiso   1.00
C912   C     0.60897   0.69795   0.27126   0.00000  Uiso   1.00
H913   H     0.62627   0.69683   0.23370   0.00000  Uiso   1.00
H914   H     0.61078   0.66744   0.28412   0.00000  Uiso   1.00
C915   C     0.63514   0.72715   0.29431   0.00000  Uiso   1.00
H916   H     0.61890   0.72633   0.33160   0.00000  Uiso   1.00
H917   H     0.33893   0.71709   0.28429   0.00000  Uiso   1.00
H918   H     0.63313   0.75930   0.28523   0.00000  Uiso   1.00
O919   O     0.41996   0.95849   0.24599   0.00000  Uiso   1.00
C920   C     0.41587   0.95816   0.20227   0.00000  Uiso   1.00
H921   H     0.43966   0.93407   0.17910   0.00000  Uiso   1.00
H922   H     0.42429   0.98857   0.18723   0.00000  Uiso   1.00
C923   C     0.36545   0.94837   0.20627   0.00000  Uiso   1.00
H924   H     0.34183   0.96857   0.23431   0.00000  Uiso   1.00
H925   H     0.35869   0.95462   0.17460   0.00000  Uiso   1.00
H926   H     0.35772   0.91553   0.21373   0.00000  Uiso   1.00
I927   I     0.63386   0.76877   0.17178   0.00000  Uiso   1.00
I928   I     0.36430   0.89533   0.33180   0.00000  Uiso   1.00
O929   O     0.40249   0.79158   0.17955   0.00000  Uiso   1.00
C930   C     0.40784   0.74883   0.18412   0.00000  Uiso   1.00
H931   H     0.38208   0.73692   0.21504   0.00000  Uiso   1.00
H932   H     0.44346   0.74414   0.18555   0.00000  Uiso   1.00
C933   C     0.40554   0.72230   0.14214   0.00000  Uiso   1.00
H934   H     0.43606   0.70065   0.12898   0.00000  Uiso   1.00
H935   H     0.37348   0.70307   0.15099   0.00000  Uiso   1.00
H936   H     0.40580   0.74193   0.11439   0.00000  Uiso   1.00
O937   O     0.59815   0.87542   0.32047   0.00000  Uiso   1.00
C938   C     0.59068   0.91693   0.31285   0.00000  Uiso   1.00
H939   H     0.55385   0.91954   0.31442   0.00000  Uiso   1.00
H940   H     0.61415   0.92694   0.27965   0.00000  Uiso   1.00
C941   C     0.59483   0.94751   0.35106   0.00000  Uiso   1.00
H942   H     0.63060   0.96052   0.34232   0.00000  Uiso   1.00
H943   H     0.57017   0.97405   0.35622   0.00000  Uiso   1.00
H944   H     0.58584   0.93258   0.38350   0.00000  Uiso   1.00
C945   C     0.83361   0.91322   0.24924   0.00000  Uiso   1.00
C946   C     0.83241   0.75376   0.25212   0.00000  Uiso   1.00
C947   C     0.77773   0.82158   0.04777   0.00000  Uiso   1.00
C948   C     0.87592   0.87016   0.46145   0.00000  Uiso   1.00
C949   C     0.75700   0.79803   0.01989   0.00000  Uiso   1.00
C950   C     0.89657   0.89322   0.48999   0.00000  Uiso   1.00
C951   C     0.87098   0.97977   0.25489   0.00000  Uiso   1.00
C952   C     0.79366   0.68804   0.24880   0.00000  Uiso   1.00
C953   C     0.86864   0.68939   0.26211   0.00000  Uiso   1.00
C954   C     0.79378   0.97880   0.24617   0.00000  Uiso   1.00
C955   C     0.83139   0.70974   0.25484   0.00000  Uiso   1.00
C956   C     0.83311   0.95775   0.24900   0.00000  Uiso   1.00
C957   C     0.98687   0.80991   0.21776   0.00000  Uiso   1.00
C958   C     0.67974   0.85643   0.28250   0.00000  Uiso   1.00
C959   C     0.70138   0.81013   0.21717   0.00000  Uiso   1.00
C960   C     0.96541   0.85620   0.28302   0.00000  Uiso   1.00
C961   C     0.80440   0.83186   0.33692   0.00000  Uiso   1.00
C962   C     0.86241   0.83504   0.16295   0.00000  Uiso   1.00
C963   C     0.78928   0.82277   0.38467   0.00000  Uiso   1.00
C964   C     0.87737   0.84799   0.11626   0.00000  Uiso   1.00
C965   C     0.76331   0.77214   0.44159   0.00000  Uiso   1.00
C966   C     0.89806   0.90701   0.06910   0.00000  Uiso   1.00
C967   C     0.76938   0.78390   0.39746   0.00000  Uiso   1.00
C968   C     0.89875   0.88694   0.10723   0.00000  Uiso   1.00
C969   C     0.80551   0.84807   0.41457   0.00000  Uiso   1.00
C970   C     0.85733   0.82881   0.08579   0.00000  Uiso   1.00
C971   C     0.80534   0.83308   0.45565   0.00000  Uiso   1.00
C972   C     0.85347   0.85062   0.04997   0.00000  Uiso   1.00
C973   C     0.77558   0.79992   0.47247   0.00000  Uiso   1.00
C974   C     0.88183   0.88545   0.03657   0.00000  Uiso   1.00
C975   C     0.83333   0.84945   0.48117   0.00000  Uiso   1.00
C976   C     0.82232   0.83902   0.02652   0.00000  Uiso   1.00
H977   H     0.90093   0.96323   0.25580   0.00000  Uiso   1.00
H978   H     0.76297   0.70391   0.24762   0.00000  Uiso   1.00
N979   N     0.71426   0.83334   0.25001   0.00000  Uiso   1.00
N980   N     0.95241   0.83332   0.24999   0.00000  Uiso   1.00
O981   O     0.79512   0.89442   0.25000   0.00000  Uiso   1.00
O982   O     0.87154   0.77225   0.25000   0.00000  Uiso   1.00
O983   O     0.87157   0.89441   0.25000   0.00000  Uiso   1.00
O984   O     0.79510   0.77226   0.25000   0.00000  Uiso   1.00
O985   O     0.77328   0.83334   0.31612   0.00000  Uiso   1.00
O986   O     0.89339   0.83333   0.18388   0.00000  Uiso   1.00
O987   O     0.84972   0.83333   0.31612   0.00000  Uiso   1.00
O988   O     0.81695   0.83334   0.18388   0.00000  Uiso   1.00
Zn989  Zn    0.78229   0.83334   0.25000   0.00000  Uiso   1.00
Zn990  Zn    0.88438   0.83333   0.25000   0.00000  Uiso   1.00
I991   I     0.68831   0.77430   0.04898   0.00000  Uiso   1.00
I992   I     0.95969   0.92577   0.45855   0.00000  Uiso   1.00
I993   I     0.84715   0.76371   0.08607   0.00000  Uiso   1.00
I994   I     0.81145   0.91294   0.40594   0.00000  Uiso   1.00
O995   O     0.92432   0.90448   0.13306   0.00000  Uiso   1.00
C996   C     0.96916   0.88486   0.11867   0.00000  Uiso   1.00
H997   H     0.96646   0.85137   0.12456   0.00000  Uiso   1.00
H998   H     0.98869   0.89906   0.14021   0.00000  Uiso   1.00
C999   C     0.99805   0.88974   0.06843   0.00000  Uiso   1.00
H1000  H     0.67197   0.92289   0.06222   0.00000  Uiso   1.00
H1001  H     0.69780   0.87217   0.05952   0.00000  Uiso   1.00
H1002  H     0.98081   0.87550   0.04481   0.00000  Uiso   1.00
O1003  O     0.76095   0.75585   0.36536   0.00000  Uiso   1.00
C1004  C     0.71194   0.75118   0.37495   0.00000  Uiso   1.00
H1005  H     0.70019   0.77136   0.35335   0.00000  Uiso   1.00
H1006  H     0.69039   0.75951   0.41120   0.00000  Uiso   1.00
C1007  C     0.70154   0.70618   0.36362   0.00000  Uiso   1.00
H1008  H     0.99643   0.70156   0.37359   0.00000  Uiso   1.00
H1009  H     0.71784   0.69785   0.32677   0.00000  Uiso   1.00
H1010  H     0.71564   0.68478   0.38214   0.00000  Uiso   1.00
I1011  I     0.75627   0.70778   0.45380   0.00000  Uiso   1.00
I1012  I     0.91023   0.97226   0.07042   0.00000  Uiso   1.00
O1013  O     0.75190   0.82804   0.09395   0.00000  Uiso   1.00
C1014  C     0.75566   0.86771   0.11593   0.00000  Uiso   1.00
H1015  H     0.78274   0.86681   0.13225   0.00000  Uiso   1.00
H1016  H     0.72301   0.87225   0.14539   0.00000  Uiso   1.00
C1017  C     0.76222   0.90692   0.08868   0.00000  Uiso   1.00
H1018  H     0.79357   0.92404   0.09089   0.00000  Uiso   1.00
H1019  H     0.73194   0.92836   0.10359   0.00000  Uiso   1.00
H1020  H     0.76629   0.90100   0.05226   0.00000  Uiso   1.00
O1021  O     0.90041   0.86244   0.41552   0.00000  Uiso   1.00
C1022  C     0.93269   0.82915   0.40950   0.00000  Uiso   1.00
H1023  H     0.95104   0.83089   0.43523   0.00000  Uiso   1.00
H1024  H     0.96044   0.83095   0.37605   0.00000  Uiso   1.00
C1025  C     0.90967   0.78687   0.40895   0.00000  Uiso   1.00
H1026  H     0.89158   0.78464   0.38318   0.00000  Uiso   1.00
H1027  H     0.93705   0.76232   0.40059   0.00000  Uiso   1.00
H1028  H     0.88439   0.78130   0.44292   0.00000  Uiso   1.00
O1029  O     0.89555   0.71198   0.28408   0.00000  Uiso   1.00
C1030  C     0.94230   0.69795   0.27126   0.00000  Uiso   1.00
H1031  H     0.95960   0.69683   0.23370   0.00000  Uiso   1.00
H1032  H     0.94411   0.66744   0.28412   0.00000  Uiso   1.00
C1033  C     0.96847   0.72715   0.29431   0.00000  Uiso   1.00
H1034  H     0.95224   0.72633   0.33160   0.00000  Uiso   1.00
H1035  H     0.67227   0.71709   0.28429   0.00000  Uiso   1.00
H1036  H     0.96647   0.75930   0.28523   0.00000  Uiso   1.00
O1037  O     0.75329   0.95849   0.24599   0.00000  Uiso   1.00
C1038  C     0.74920   0.95816   0.20227   0.00000  Uiso   1.00
H1039  H     0.77300   0.93407   0.17910   0.00000  Uiso   1.00
H1040  H     0.75762   0.98857   0.18723   0.00000  Uiso   1.00
C1041  C     0.69878   0.94837   0.20627   0.00000  Uiso   1.00
H1042  H     0.67516   0.96857   0.23431   0.00000  Uiso   1.00
H1043  H     0.69202   0.95462   0.17460   0.00000  Uiso   1.00
H1044  H     0.69105   0.91553   0.21373   0.00000  Uiso   1.00
I1045  I     0.96719   0.76877   0.17178   0.00000  Uiso   1.00
I1046  I     0.69763   0.89533   0.33180   0.00000  Uiso   1.00
O1047  O     0.73582   0.79158   0.17955   0.00000  Uiso   1.00
C1048  C     0.74117   0.74883   0.18412   0.00000  Uiso   1.00
H1049  H     0.71541   0.73692   0.21504   0.00000  Uiso   1.00
H1050  H     0.77679   0.74414   0.18555   0.00000  Uiso   1.00
C1051  C     0.73887   0.72230   0.14214   0.00000  Uiso   1.00
H1052  H     0.76939   0.70065   0.12898   0.00000  Uiso   1.00
H1053  H     0.70681   0.70307   0.15099   0.00000  Uiso   1.00
H1054  H     0.73913   0.74193   0.11439   0.00000  Uiso   1.00
O1055  O     0.93149   0.87542   0.32047   0.00000  Uiso   1.00
C1056  C     0.92401   0.91693   0.31285   0.00000  Uiso   1.00
H1057  H     0.88718   0.91954   0.31442   0.00000  Uiso   1.00
H1058  H     0.94748   0.92694   0.27965   0.00000  Uiso   1.00
C1059  C     0.92816   0.94751   0.35106   0.00000  Uiso   1.00
H1060  H     0.96393   0.96052   0.34232   0.00000  Uiso   1.00
H1061  H     0.90351   0.97405   0.35622   0.00000  Uiso   1.00
H1062  H     0.91918   0.93258   0.38350   0.00000  Uiso   1.00
C1063  C     0.16694   0.24655   0.74924   0.00000  Uiso   1.00
C1064  C     0.16575   0.08710   0.75212   0.00000  Uiso   1.00
C1065  C     0.11106   0.15491   0.54777   0.00000  Uiso   1.00
C1066  C     0.20926   0.20350   0.96145   0.00000  Uiso   1.00
C1067  C     0.09034   0.13136   0.51989   0.00000  Uiso   1.00
C1068  C     0.22990   0.22655   0.98999   0.00000  Uiso   1.00
C1069  C     0.20431   0.31310   0.75489   0.00000  Uiso   1.00
C1070  C     0.12699   0.02138   0.74880   0.00000  Uiso   1.00
C1071  C     0.20197   0.02272   0.76211   0.00000  Uiso   1.00
C1072  C     0.12711   0.31214   0.74617   0.00000  Uiso   1.00
C1073  C     0.16473   0.04307   0.75484   0.00000  Uiso   1.00
C1074  C     0.16644   0.29108   0.74900   0.00000  Uiso   1.00
C1075  C     0.32020   0.14325   0.71776   0.00000  Uiso   1.00
C1076  C     0.01308   0.18976   0.78250   0.00000  Uiso   1.00
C1077  C     0.03472   0.14346   0.71717   0.00000  Uiso   1.00
C1078  C     0.29874   0.18953   0.78302   0.00000  Uiso   1.00
C1079  C     0.13773   0.16520   0.83692   0.00000  Uiso   1.00
C1080  C     0.19574   0.16837   0.66295   0.00000  Uiso   1.00
C1081  C     0.12261   0.15610   0.88467   0.00000  Uiso   1.00
C1082  C     0.21070   0.18133   0.61626   0.00000  Uiso   1.00
C1083  C     0.09664   0.10547   0.94159   0.00000  Uiso   1.00
C1084  C     0.23139   0.24034   0.56910   0.00000  Uiso   1.00
C1085  C     0.10272   0.11724   0.89746   0.00000  Uiso   1.00
C1086  C     0.23208   0.22028   0.60723   0.00000  Uiso   1.00
C1087  C     0.13884   0.18140   0.91457   0.00000  Uiso   1.00
C1088  C     0.19067   0.16214   0.58579   0.00000  Uiso   1.00
C1089  C     0.13868   0.16642   0.95565   0.00000  Uiso   1.00
C1090  C     0.18680   0.18395   0.54997   0.00000  Uiso   1.00
C1091  C     0.10891   0.13326   0.97247   0.00000  Uiso   1.00
C1092  C     0.21516   0.21878   0.53657   0.00000  Uiso   1.00
C1093  C     0.16666   0.18279   0.98117   0.00000  Uiso   1.00
C1094  C     0.15566   0.17235   0.52652   0.00000  Uiso   1.00
H1095  H     0.23426   0.29657   0.75580   0.00000  Uiso   1.00
H1096  H     0.09630   0.03724   0.74762   0.00000  Uiso   1.00
N1097  N     0.04759   0.16668   0.75001   0.00000  Uiso   1.00
N1098  N     0.28574   0.16666   0.74999   0.00000  Uiso   1.00
O1099  O     0.12846   0.22775   0.75000   0.00000  Uiso   1.00
O1100  O     0.20488   0.10558   0.75000   0.00000  Uiso   1.00
O1101  O     0.20490   0.22774   0.75000   0.00000  Uiso   1.00
O1102  O     0.12843   0.10559   0.75000   0.00000  Uiso   1.00
O1103  O     0.10661   0.16667   0.81612   0.00000  Uiso   1.00
O1104  O     0.22672   0.16666   0.68388   0.00000  Uiso   1.00
O1105  O     0.18305   0.16666   0.81612   0.00000  Uiso   1.00
O1106  O     0.15028   0.16667   0.68388   0.00000  Uiso   1.00
Zn1107 Zn    0.11562   0.16667   0.75000   0.00000  Uiso   1.00
Zn1108 Zn    0.21771   0.16666   0.75000   0.00000  Uiso   1.00
I1109  I     0.02164   0.10764   0.54898   0.00000  Uiso   1.00
I1110  I     0.29302   0.25911   0.95855   0.00000  Uiso   1.00
I1111  I     0.18048   0.09704   0.58607   0.00000  Uiso   1.00
I1112  I     0.14479   0.24628   0.90594   0.00000  Uiso   1.00
O1113  O     0.25765   0.23781   0.63306   0.00000  Uiso   1.00
C1114  C     0.30249   0.21819   0.61867   0.00000  Uiso   1.00
H1115  H     0.29979   0.18471   0.62456   0.00000  Uiso   1.00
H1116  H     0.32202   0.23239   0.64021   0.00000  Uiso   1.00
C1117  C     0.33138   0.22307   0.56843   0.00000  Uiso   1.00
H1118  H     0.00530   0.25623   0.56222   0.00000  Uiso   1.00
H1119  H     0.03113   0.20550   0.55952   0.00000  Uiso   1.00
H1120  H     0.31414   0.20883   0.54481   0.00000  Uiso   1.00
O1121  O     0.09428   0.08919   0.86536   0.00000  Uiso   1.00
C1122  C     0.04527   0.08451   0.87495   0.00000  Uiso   1.00
H1123  H     0.03353   0.10469   0.85335   0.00000  Uiso   1.00
H1124  H     0.02372   0.09284   0.91120   0.00000  Uiso   1.00
C1125  C     0.03487   0.03952   0.86362   0.00000  Uiso   1.00
H1126  H     0.32976   0.03490   0.87359   0.00000  Uiso   1.00
H1127  H     0.05117   0.03118   0.82677   0.00000  Uiso   1.00
H1128  H     0.04898   0.01812   0.88214   0.00000  Uiso   1.00
I1129  I     0.08961   0.04112   0.95380   0.00000  Uiso   1.00
I1130  I     0.24357   0.30559   0.57042   0.00000  Uiso   1.00
O1131  O     0.08523   0.16137   0.59395   0.00000  Uiso   1.00
C1132  C     0.08900   0.20105   0.61593   0.00000  Uiso   1.00
H1133  H     0.11607   0.20014   0.63225   0.00000  Uiso   1.00
H1134  H     0.05634   0.20558   0.64539   0.00000  Uiso   1.00
C1135  C     0.09555   0.24025   0.58868   0.00000  Uiso   1.00
H1136  H     0.12690   0.25738   0.59089   0.00000  Uiso   1.00
H1137  H     0.06527   0.26170   0.60359   0.00000  Uiso   1.00
H1138  H     0.09962   0.23434   0.55226   0.00000  Uiso   1.00
O1139  O     0.23374   0.19577   0.91552   0.00000  Uiso   1.00
C1140  C     0.26602   0.16248   0.90950   0.00000  Uiso   1.00
H1141  H     0.28438   0.16423   0.93523   0.00000  Uiso   1.00
H1142  H     0.29377   0.16429   0.87605   0.00000  Uiso   1.00
C1143  C     0.24301   0.12020   0.90895   0.00000  Uiso   1.00
H1144  H     0.22492   0.11797   0.88318   0.00000  Uiso   1.00
H1145  H     0.27039   0.09565   0.90059   0.00000  Uiso   1.00
H1146  H     0.21772   0.11463   0.94292   0.00000  Uiso   1.00
O1147  O     0.22889   0.04532   0.78408   0.00000  Uiso   1.00
C1148  C     0.27563   0.03128   0.77126   0.00000  Uiso   1.00
H1149  H     0.29293   0.03017   0.73370   0.00000  Uiso   1.00
H1150  H     0.27744   0.00077   0.78412   0.00000  Uiso   1.00
C1151  C     0.30181   0.06049   0.79431   0.00000  Uiso   1.00
H1152  H     0.28557   0.05966   0.83160   0.00000  Uiso   1.00
H1153  H     0.00560   0.05042   0.78429   0.00000  Uiso   1.00
H1154  H     0.29980   0.09264   0.78523   0.00000  Uiso   1.00
O1155  O     0.08663   0.29182   0.74599   0.00000  Uiso   1.00
C1156  C     0.08253   0.29149   0.70227   0.00000  Uiso   1.00
H1157  H     0.10633   0.26740   0.67910   0.00000  Uiso   1.00
H1158  H     0.09095   0.32190   0.68723   0.00000  Uiso   1.00
C1159  C     0.03212   0.28171   0.70627   0.00000  Uiso   1.00
H1160  H     0.00850   0.30190   0.73431   0.00000  Uiso   1.00
H1161  H     0.02536   0.28795   0.67460   0.00000  Uiso   1.00
H1162  H     0.02438   0.24887   0.71373   0.00000  Uiso   1.00
I1163  I     0.30053   0.10210   0.67178   0.00000  Uiso   1.00
I1164  I     0.03096   0.22866   0.83180   0.00000  Uiso   1.00
O1165  O     0.06916   0.12491   0.67955   0.00000  Uiso   1.00
C1166  C     0.07450   0.08216   0.68412   0.00000  Uiso   1.00
H1167  H     0.04874   0.07026   0.71504   0.00000  Uiso   1.00
H1168  H     0.11012   0.07748   0.68555   0.00000  Uiso   1.00
C1169  C     0.07221   0.05564   0.64214   0.00000  Uiso   1.00
H1170  H     0.10273   0.03398   0.62898   0.00000  Uiso   1.00
H1171  H     0.04015   0.03640   0.65099   0.00000  Uiso   1.00
H1172  H     0.07246   0.07527   0.61439   0.00000  Uiso   1.00
O1173  O     0.26482   0.20875   0.82047   0.00000  Uiso   1.00
C1174  C     0.25735   0.25026   0.81285   0.00000  Uiso   1.00
H1175  H     0.22052   0.25287   0.81442   0.00000  Uiso   1.00
H1176  H     0.28081   0.26027   0.77965   0.00000  Uiso   1.00
C1177  C     0.26150   0.28084   0.85106   0.00000  Uiso   1.00
H1178  H     0.29726   0.29386   0.84232   0.00000  Uiso   1.00
H1179  H     0.23684   0.30738   0.85622   0.00000  Uiso   1.00
H1180  H     0.25251   0.26591   0.88350   0.00000  Uiso   1.00
C1181  C     0.50028   0.24655   0.74924   0.00000  Uiso   1.00
C1182  C     0.49908   0.08710   0.75212   0.00000  Uiso   1.00
C1183  C     0.44439   0.15491   0.54777   0.00000  Uiso   1.00
C1184  C     0.54259   0.20350   0.96145   0.00000  Uiso   1.00
C1185  C     0.42367   0.13136   0.51989   0.00000  Uiso   1.00
C1186  C     0.56323   0.22655   0.98999   0.00000  Uiso   1.00
C1187  C     0.53764   0.31310   0.75489   0.00000  Uiso   1.00
C1188  C     0.46032   0.02138   0.74880   0.00000  Uiso   1.00
C1189  C     0.53531   0.02272   0.76211   0.00000  Uiso   1.00
C1190  C     0.46045   0.31214   0.74617   0.00000  Uiso   1.00
C1191  C     0.49806   0.04307   0.75484   0.00000  Uiso   1.00
C1192  C     0.49977   0.29108   0.74900   0.00000  Uiso   1.00
C1193  C     0.65353   0.14325   0.71776   0.00000  Uiso   1.00
C1194  C     0.34641   0.18976   0.78250   0.00000  Uiso   1.00
C1195  C     0.36805   0.14346   0.71717   0.00000  Uiso   1.00
C1196  C     0.63207   0.18953   0.78302   0.00000  Uiso   1.00
C1197  C     0.47107   0.16520   0.83692   0.00000  Uiso   1.00
C1198  C     0.52908   0.16837   0.66295   0.00000  Uiso   1.00
C1199  C     0.45595   0.15610   0.88467   0.00000  Uiso   1.00
C1200  C     0.54403   0.18133   0.61626   0.00000  Uiso   1.00
C1201  C     0.42997   0.10547   0.94159   0.00000  Uiso   1.00
C1202  C     0.56472   0.24034   0.56910   0.00000  Uiso   1.00
C1203  C     0.43605   0.11724   0.89746   0.00000  Uiso   1.00
C1204  C     0.56541   0.22028   0.60723   0.00000  Uiso   1.00
C1205  C     0.47218   0.18140   0.91457   0.00000  Uiso   1.00
C1206  C     0.52400   0.16214   0.58579   0.00000  Uiso   1.00
C1207  C     0.47201   0.16642   0.95565   0.00000  Uiso   1.00
C1208  C     0.52013   0.18395   0.54997   0.00000  Uiso   1.00
C1209  C     0.44224   0.13326   0.97247   0.00000  Uiso   1.00
C1210  C     0.54849   0.21878   0.53657   0.00000  Uiso   1.00
C1211  C     0.50000   0.18279   0.98117   0.00000  Uiso   1.00
C1212  C     0.48899   0.17235   0.52652   0.00000  Uiso   1.00
H1213  H     0.56759   0.29657   0.75580   0.00000  Uiso   1.00
H1214  H     0.42963   0.03724   0.74762   0.00000  Uiso   1.00
N1215  N     0.38093   0.16668   0.75001   0.00000  Uiso   1.00
N1216  N     0.61907   0.16666   0.74999   0.00000  Uiso   1.00
O1217  O     0.46179   0.22775   0.75000   0.00000  Uiso   1.00
O1218  O     0.53821   0.10558   0.75000   0.00000  Uiso   1.00
O1219  O     0.53823   0.22774   0.75000   0.00000  Uiso   1.00
O1220  O     0.46177   0.10559   0.75000   0.00000  Uiso   1.00
O1221  O     0.43994   0.16667   0.81612   0.00000  Uiso   1.00
O1222  O     0.56006   0.16666   0.68388   0.00000  Uiso   1.00
O1223  O     0.51639   0.16666   0.81612   0.00000  Uiso   1.00
O1224  O     0.48361   0.16667   0.68388   0.00000  Uiso   1.00
Zn1225 Zn    0.44896   0.16667   0.75000   0.00000  Uiso   1.00
Zn1226 Zn    0.55104   0.16666   0.75000   0.00000  Uiso   1.00
I1227  I     0.35498   0.10764   0.54898   0.00000  Uiso   1.00
I1228  I     0.62636   0.25911   0.95855   0.00000  Uiso   1.00
I1229  I     0.51381   0.09704   0.58607   0.00000  Uiso   1.00
I1230  I     0.47812   0.24628   0.90594   0.00000  Uiso   1.00
O1231  O     0.59098   0.23781   0.63306   0.00000  Uiso   1.00
C1232  C     0.63583   0.21819   0.61867   0.00000  Uiso   1.00
H1233  H     0.63313   0.18471   0.62456   0.00000  Uiso   1.00
H1234  H     0.65535   0.23239   0.64021   0.00000  Uiso   1.00
C1235  C     0.66472   0.22307   0.56843   0.00000  Uiso   1.00
H1236  H     0.33863   0.25623   0.56222   0.00000  Uiso   1.00
H1237  H     0.36447   0.20550   0.55952   0.00000  Uiso   1.00
H1238  H     0.64747   0.20883   0.54481   0.00000  Uiso   1.00
O1239  O     0.42762   0.08919   0.86536   0.00000  Uiso   1.00
C1240  C     0.37861   0.08451   0.87495   0.00000  Uiso   1.00
H1241  H     0.36686   0.10469   0.85335   0.00000  Uiso   1.00
H1242  H     0.35706   0.09284   0.91120   0.00000  Uiso   1.00
C1243  C     0.36820   0.03952   0.86362   0.00000  Uiso   1.00
H1244  H     0.66310   0.03490   0.87359   0.00000  Uiso   1.00
H1245  H     0.38450   0.03118   0.82677   0.00000  Uiso   1.00
H1246  H     0.38231   0.01812   0.88214   0.00000  Uiso   1.00
I1247  I     0.42294   0.04112   0.95380   0.00000  Uiso   1.00
I1248  I     0.57690   0.30559   0.57042   0.00000  Uiso   1.00
O1249  O     0.41856   0.16137   0.59395   0.00000  Uiso   1.00
C1250  C     0.42233   0.20105   0.61593   0.00000  Uiso   1.00
H1251  H     0.44940   0.20014   0.63225   0.00000  Uiso   1.00
H1252  H     0.38967   0.20558   0.64539   0.00000  Uiso   1.00
C1253  C     0.42889   0.24025   0.58868   0.00000  Uiso   1.00
H1254  H     0.46024   0.25738   0.59089   0.00000  Uiso   1.00
H1255  H     0.39861   0.26170   0.60359   0.00000  Uiso   1.00
H1256  H     0.43296   0.23434   0.55226   0.00000  Uiso   1.00
O1257  O     0.56707   0.19577   0.91552   0.00000  Uiso   1.00
C1258  C     0.59936   0.16248   0.90950   0.00000  Uiso   1.00
H1259  H     0.61771   0.16423   0.93523   0.00000  Uiso   1.00
H1260  H     0.62711   0.16429   0.87605   0.00000  Uiso   1.00
C1261  C     0.57634   0.12020   0.90895   0.00000  Uiso   1.00
H1262  H     0.55825   0.11797   0.88318   0.00000  Uiso   1.00
H1263  H     0.60372   0.09565   0.90059   0.00000  Uiso   1.00
H1264  H     0.55106   0.11463   0.94292   0.00000  Uiso   1.00
O1265  O     0.56222   0.04532   0.78408   0.00000  Uiso   1.00
C1266  C     0.60897   0.03128   0.77126   0.00000  Uiso   1.00
H1267  H     0.62627   0.03017   0.73370   0.00000  Uiso   1.00
H1268  H     0.61078   0.00077   0.78412   0.00000  Uiso   1.00
C1269  C     0.63514   0.06049   0.79431   0.00000  Uiso   1.00
H1270  H     0.61890   0.05966   0.83160   0.00000  Uiso   1.00
H1271  H     0.33893   0.05042   0.78429   0.00000  Uiso   1.00
H1272  H     0.63313   0.09264   0.78523   0.00000  Uiso   1.00
O1273  O     0.41996   0.29182   0.74599   0.00000  Uiso   1.00
C1274  C     0.41587   0.29149   0.70227   0.00000  Uiso   1.00
H1275  H     0.43966   0.26740   0.67910   0.00000  Uiso   1.00
H1276  H     0.42429   0.32190   0.68723   0.00000  Uiso   1.00
C1277  C     0.36545   0.28171   0.70627   0.00000  Uiso   1.00
H1278  H     0.34183   0.30190   0.73431   0.00000  Uiso   1.00
H1279  H     0.35869   0.28795   0.67460   0.00000  Uiso   1.00
H1280  H     0.35772   0.24887   0.71373   0.00000  Uiso   1.00
I1281  I     0.63386   0.10210   0.67178   0.00000  Uiso   1.00
I1282  I     0.36430   0.22866   0.83180   0.00000  Uiso   1.00
O1283  O     0.40249   0.12491   0.67955   0.00000  Uiso   1.00
C1284  C     0.40784   0.08216   0.68412   0.00000  Uiso   1.00
H1285  H     0.38208   0.07026   0.71504   0.00000  Uiso   1.00
H1286  H     0.44346   0.07748   0.68555   0.00000  Uiso   1.00
C1287  C     0.40554   0.05564   0.64214   0.00000  Uiso   1.00
H1288  H     0.43606   0.03398   0.62898   0.00000  Uiso   1.00
H1289  H     0.37348   0.03640   0.65099   0.00000  Uiso   1.00
H1290  H     0.40580   0.07527   0.61439   0.00000  Uiso   1.00
O1291  O     0.59815   0.20875   0.82047   0.00000  Uiso   1.00
C1292  C     0.59068   0.25026   0.81285   0.00000  Uiso   1.00
H1293  H     0.55385   0.25287   0.81442   0.00000  Uiso   1.00
H1294  H     0.61415   0.26027   0.77965   0.00000  Uiso   1.00
C1295  C     0.59483   0.28084   0.85106   0.00000  Uiso   1.00
H1296  H     0.63060   0.29386   0.84232   0.00000  Uiso   1.00
H1297  H     0.57017   0.30738   0.85622   0.00000  Uiso   1.00
H1298  H     0.58584   0.26591   0.88350   0.00000  Uiso   1.00
C1299  C     0.83361   0.24655   0.74924   0.00000  Uiso   1.00
C1300  C     0.83241   0.08710   0.75212   0.00000  Uiso   1.00
C1301  C     0.77773   0.15491   0.54777   0.00000  Uiso   1.00
C1302  C     0.87592   0.20350   0.96145   0.00000  Uiso   1.00
C1303  C     0.75700   0.13136   0.51989   0.00000  Uiso   1.00
C1304  C     0.89657   0.22655   0.98999   0.00000  Uiso   1.00
C1305  C     0.87098   0.31310   0.75489   0.00000  Uiso   1.00
C1306  C     0.79366   0.02138   0.74880   0.00000  Uiso   1.00
C1307  C     0.86864   0.02272   0.76211   0.00000  Uiso   1.00
C1308  C     0.79378   0.31214   0.74617   0.00000  Uiso   1.00
C1309  C     0.83139   0.04307   0.75484   0.00000  Uiso   1.00
C1310  C     0.83311   0.29108   0.74900   0.00000  Uiso   1.00
C1311  C     0.98687   0.14325   0.71776   0.00000  Uiso   1.00
C1312  C     0.67974   0.18976   0.78250   0.00000  Uiso   1.00
C1313  C     0.70138   0.14346   0.71717   0.00000  Uiso   1.00
C1314  C     0.96541   0.18953   0.78302   0.00000  Uiso   1.00
C1315  C     0.80440   0.16520   0.83692   0.00000  Uiso   1.00
C1316  C     0.86241   0.16837   0.66295   0.00000  Uiso   1.00
C1317  C     0.78928   0.15610   0.88467   0.00000  Uiso   1.00
C1318  C     0.87737   0.18133   0.61626   0.00000  Uiso   1.00
C1319  C     0.76331   0.10547   0.94159   0.00000  Uiso   1.00
C1320  C     0.89806   0.24034   0.56910   0.00000  Uiso   1.00
C1321  C     0.76938   0.11724   0.89746   0.00000  Uiso   1.00
C1322  C     0.89875   0.22028   0.60723   0.00000  Uiso   1.00
C1323  C     0.80551   0.18140   0.91457   0.00000  Uiso   1.00
C1324  C     0.85733   0.16214   0.58579   0.00000  Uiso   1.00
C1325  C     0.80534   0.16642   0.95565   0.00000  Uiso   1.00
C1326  C     0.85347   0.18395   0.54997   0.00000  Uiso   1.00
C1327  C     0.77558   0.13326   0.97247   0.00000  Uiso   1.00
C1328  C     0.88183   0.21878   0.53657   0.00000  Uiso   1.00
C1329  C     0.83333   0.18279   0.98117   0.00000  Uiso   1.00
C1330  C     0.82232   0.17235   0.52652   0.00000  Uiso   1.00
H1331  H     0.90093   0.29657   0.75580   0.00000  Uiso   1.00
H1332  H     0.76297   0.03724   0.74762   0.00000  Uiso   1.00
N1333  N     0.71426   0.16668   0.75001   0.00000  Uiso   1.00
N1334  N     0.95241   0.16666   0.74999   0.00000  Uiso   1.00
O1335  O     0.79512   0.22775   0.75000   0.00000  Uiso   1.00
O1336  O     0.87154   0.10558   0.75000   0.00000  Uiso   1.00
O1337  O     0.87157   0.22774   0.75000   0.00000  Uiso   1.00
O1338  O     0.79510   0.10559   0.75000   0.00000  Uiso   1.00
O1339  O     0.77328   0.16667   0.81612   0.00000  Uiso   1.00
O1340  O     0.89339   0.16666   0.68388   0.00000  Uiso   1.00
O1341  O     0.84972   0.16666   0.81612   0.00000  Uiso   1.00
O1342  O     0.81695   0.16667   0.68388   0.00000  Uiso   1.00
Zn1343 Zn    0.78229   0.16667   0.75000   0.00000  Uiso   1.00
Zn1344 Zn    0.88438   0.16666   0.75000   0.00000  Uiso   1.00
I1345  I     0.68831   0.10764   0.54898   0.00000  Uiso   1.00
I1346  I     0.95969   0.25911   0.95855   0.00000  Uiso   1.00
I1347  I     0.84715   0.09704   0.58607   0.00000  Uiso   1.00
I1348  I     0.81145   0.24628   0.90594   0.00000  Uiso   1.00
O1349  O     0.92432   0.23781   0.63306   0.00000  Uiso   1.00
C1350  C     0.96916   0.21819   0.61867   0.00000  Uiso   1.00
H1351  H     0.96646   0.18471   0.62456   0.00000  Uiso   1.00
H1352  H     0.98869   0.23239   0.64021   0.00000  Uiso   1.00
C1353  C     0.99805   0.22307   0.56843   0.00000  Uiso   1.00
H1354  H     0.67197   0.25623   0.56222   0.00000  Uiso   1.00
H1355  H     0.69780   0.20550   0.55952   0.00000  Uiso   1.00
H1356  H     0.98081   0.20883   0.54481   0.00000  Uiso   1.00
O1357  O     0.76095   0.08919   0.86536   0.00000  Uiso   1.00
C1358  C     0.71194   0.08451   0.87495   0.00000  Uiso   1.00
H1359  H     0.70019   0.10469   0.85335   0.00000  Uiso   1.00
H1360  H     0.69039   0.09284   0.91120   0.00000  Uiso   1.00
C1361  C     0.70154   0.03952   0.86362   0.00000  Uiso   1.00
H1362  H     0.99643   0.03490   0.87359   0.00000  Uiso   1.00
H1363  H     0.71784   0.03118   0.82677   0.00000  Uiso   1.00
H1364  H     0.71564   0.01812   0.88214   0.00000  Uiso   1.00
I1365  I     0.75627   0.04112   0.95380   0.00000  Uiso   1.00
I1366  I     0.91023   0.30559   0.57042   0.00000  Uiso   1.00
O1367  O     0.75190   0.16137   0.59395   0.00000  Uiso   1.00
C1368  C     0.75566   0.20105   0.61593   0.00000  Uiso   1.00
H1369  H     0.78274   0.20014   0.63225   0.00000  Uiso   1.00
H1370  H     0.72301   0.20558   0.64539   0.00000  Uiso   1.00
C1371  C     0.76222   0.24025   0.58868   0.00000  Uiso   1.00
H1372  H     0.79357   0.25738   0.59089   0.00000  Uiso   1.00
H1373  H     0.73194   0.26170   0.60359   0.00000  Uiso   1.00
H1374  H     0.76629   0.23434   0.55226   0.00000  Uiso   1.00
O1375  O     0.90041   0.19577   0.91552   0.00000  Uiso   1.00
C1376  C     0.93269   0.16248   0.90950   0.00000  Uiso   1.00
H1377  H     0.95104   0.16423   0.93523   0.00000  Uiso   1.00
H1378  H     0.96044   0.16429   0.87605   0.00000  Uiso   1.00
C1379  C     0.90967   0.12020   0.90895   0.00000  Uiso   1.00
H1380  H     0.89158   0.11797   0.88318   0.00000  Uiso   1.00
H1381  H     0.93705   0.09565   0.90059   0.00000  Uiso   1.00
H1382  H     0.88439   0.11463   0.94292   0.00000  Uiso   1.00
O1383  O     0.89555   0.04532   0.78408   0.00000  Uiso   1.00
C1384  C     0.94230   0.03128   0.77126   0.00000  Uiso   1.00
H1385  H     0.95960   0.03017   0.73370   0.00000  Uiso   1.00
H1386  H     0.94411   0.00077   0.78412   0.00000  Uiso   1.00
C1387  C     0.96847   0.06049   0.79431   0.00000  Uiso   1.00
H1388  H     0.95224   0.05966   0.83160   0.00000  Uiso   1.00
H1389  H     0.67227   0.05042   0.78429   0.00000  Uiso   1.00
H1390  H     0.96647   0.09264   0.78523   0.00000  Uiso   1.00
O1391  O     0.75329   0.29182   0.74599   0.00000  Uiso   1.00
C1392  C     0.74920   0.29149   0.70227   0.00000  Uiso   1.00
H1393  H     0.77300   0.26740   0.67910   0.00000  Uiso   1.00
H1394  H     0.75762   0.32190   0.68723   0.00000  Uiso   1.00
C1395  C     0.69878   0.28171   0.70627   0.00000  Uiso   1.00
H1396  H     0.67516   0.30190   0.73431   0.00000  Uiso   1.00
H1397  H     0.69202   0.28795   0.67460   0.00000  Uiso   1.00
H1398  H     0.69105   0.24887   0.71373   0.00000  Uiso   1.00
I1399  I     0.96719   0.10210   0.67178   0.00000  Uiso   1.00
I1400  I     0.69763   0.22866   0.83180   0.00000  Uiso   1.00
O1401  O     0.73582   0.12491   0.67955   0.00000  Uiso   1.00
C1402  C     0.74117   0.08216   0.68412   0.00000  Uiso   1.00
H1403  H     0.71541   0.07026   0.71504   0.00000  Uiso   1.00
H1404  H     0.77679   0.07748   0.68555   0.00000  Uiso   1.00
C1405  C     0.73887   0.05564   0.64214   0.00000  Uiso   1.00
H1406  H     0.76939   0.03398   0.62898   0.00000  Uiso   1.00
H1407  H     0.70681   0.03640   0.65099   0.00000  Uiso   1.00
H1408  H     0.73913   0.07527   0.61439   0.00000  Uiso   1.00
O1409  O     0.93149   0.20875   0.82047   0.00000  Uiso   1.00
C1410  C     0.92401   0.25026   0.81285   0.00000  Uiso   1.00
H1411  H     0.88718   0.25287   0.81442   0.00000  Uiso   1.00
H1412  H     0.94748   0.26027   0.77965   0.00000  Uiso   1.00
C1413  C     0.92816   0.28084   0.85106   0.00000  Uiso   1.00
H1414  H     0.96393   0.29386   0.84232   0.00000  Uiso   1.00
H1415  H     0.90351   0.30738   0.85622   0.00000  Uiso   1.00
H1416  H     0.91918   0.26591   0.88350   0.00000  Uiso   1.00
C1417  C     0.16694   0.57989   0.74924   0.00000  Uiso   1.00
C1418  C     0.16575   0.42043   0.75212   0.00000  Uiso   1.00
C1419  C     0.11106   0.48824   0.54777   0.00000  Uiso   1.00
C1420  C     0.20926   0.53683   0.96145   0.00000  Uiso   1.00
C1421  C     0.09034   0.46469   0.51989   0.00000  Uiso   1.00
C1422  C     0.22990   0.55989   0.98999   0.00000  Uiso   1.00
C1423  C     0.20431   0.64644   0.75489   0.00000  Uiso   1.00
C1424  C     0.12699   0.35471   0.74880   0.00000  Uiso   1.00
C1425  C     0.20197   0.35606   0.76211   0.00000  Uiso   1.00
C1426  C     0.12711   0.64547   0.74617   0.00000  Uiso   1.00
C1427  C     0.16473   0.37641   0.75484   0.00000  Uiso   1.00
C1428  C     0.16644   0.62442   0.74900   0.00000  Uiso   1.00
C1429  C     0.32020   0.47658   0.71776   0.00000  Uiso   1.00
C1430  C     0.01308   0.52309   0.78250   0.00000  Uiso   1.00
C1431  C     0.03472   0.47679   0.71717   0.00000  Uiso   1.00
C1432  C     0.29874   0.52286   0.78302   0.00000  Uiso   1.00
C1433  C     0.13773   0.49853   0.83692   0.00000  Uiso   1.00
C1434  C     0.19574   0.50171   0.66295   0.00000  Uiso   1.00
C1435  C     0.12261   0.48943   0.88467   0.00000  Uiso   1.00
C1436  C     0.21070   0.51466   0.61626   0.00000  Uiso   1.00
C1437  C     0.09664   0.43880   0.94159   0.00000  Uiso   1.00
C1438  C     0.23139   0.57368   0.56910   0.00000  Uiso   1.00
C1439  C     0.10272   0.45057   0.89746   0.00000  Uiso   1.00
C1440  C     0.23208   0.55361   0.60723   0.00000  Uiso   1.00
C1441  C     0.13884   0.51473   0.91457   0.00000  Uiso   1.00
C1442  C     0.19067   0.49547   0.58579   0.00000  Uiso   1.00
C1443  C     0.13868   0.49975   0.95565   0.00000  Uiso   1.00
C1444  C     0.18680   0.51728   0.54997   0.00000  Uiso   1.00
C1445  C     0.10891   0.46659   0.97247   0.00000  Uiso   1.00
C1446  C     0.21516   0.55211   0.53657   0.00000  Uiso   1.00
C1447  C     0.16666   0.51612   0.98117   0.00000  Uiso   1.00
C1448  C     0.15566   0.50568   0.52652   0.00000  Uiso   1.00
H1449  H     0.23426   0.62990   0.75580   0.00000  Uiso   1.00
H1450  H     0.09630   0.37057   0.74762   0.00000  Uiso   1.00
N1451  N     0.04759   0.50001   0.75001   0.00000  Uiso   1.00
N1452  N     0.28574   0.49999   0.74999   0.00000  Uiso   1.00
O1453  O     0.12846   0.56108   0.75000   0.00000  Uiso   1.00
O1454  O     0.20488   0.43892   0.75000   0.00000  Uiso   1.00
O1455  O     0.20490   0.56107   0.75000   0.00000  Uiso   1.00
O1456  O     0.12843   0.43893   0.75000   0.00000  Uiso   1.00
O1457  O     0.10661   0.50001   0.81612   0.00000  Uiso   1.00
O1458  O     0.22672   0.49999   0.68388   0.00000  Uiso   1.00
O1459  O     0.18305   0.50000   0.81612   0.00000  Uiso   1.00
O1460  O     0.15028   0.50000   0.68388   0.00000  Uiso   1.00
Zn1461 Zn    0.11562   0.50001   0.75000   0.00000  Uiso   1.00
Zn1462 Zn    0.21771   0.49999   0.75000   0.00000  Uiso   1.00
I1463  I     0.02164   0.44097   0.54898   0.00000  Uiso   1.00
I1464  I     0.29302   0.59244   0.95855   0.00000  Uiso   1.00
I1465  I     0.18048   0.43038   0.58607   0.00000  Uiso   1.00
I1466  I     0.14479   0.57961   0.90594   0.00000  Uiso   1.00
O1467  O     0.25765   0.57115   0.63306   0.00000  Uiso   1.00
C1468  C     0.30249   0.55152   0.61867   0.00000  Uiso   1.00
H1469  H     0.29979   0.51804   0.62456   0.00000  Uiso   1.00
H1470  H     0.32202   0.56572   0.64021   0.00000  Uiso   1.00
C1471  C     0.33138   0.55640   0.56843   0.00000  Uiso   1.00
H1472  H     0.00530   0.58956   0.56222   0.00000  Uiso   1.00
H1473  H     0.03113   0.53883   0.55952   0.00000  Uiso   1.00
H1474  H     0.31414   0.54216   0.54481   0.00000  Uiso   1.00
O1475  O     0.09428   0.42252   0.86536   0.00000  Uiso   1.00
C1476  C     0.04527   0.41785   0.87495   0.00000  Uiso   1.00
H1477  H     0.03353   0.43803   0.85335   0.00000  Uiso   1.00
H1478  H     0.02372   0.42618   0.91120   0.00000  Uiso   1.00
C1479  C     0.03487   0.37285   0.86362   0.00000  Uiso   1.00
H1480  H     0.32976   0.36823   0.87359   0.00000  Uiso   1.00
H1481  H     0.05117   0.36452   0.82677   0.00000  Uiso   1.00
H1482  H     0.04898   0.35145   0.88214   0.00000  Uiso   1.00
I1483  I     0.08961   0.37445   0.95380   0.00000  Uiso   1.00
I1484  I     0.24357   0.63892   0.57042   0.00000  Uiso   1.00
O1485  O     0.08523   0.49470   0.59395   0.00000  Uiso   1.00
C1486  C     0.08900   0.53438   0.61593   0.00000  Uiso   1.00
H1487  H     0.11607   0.53348   0.63225   0.00000  Uiso   1.00
H1488  H     0.05634   0.53891   0.64539   0.00000  Uiso   1.00
C1489  C     0.09555   0.57358   0.58868   0.00000  Uiso   1.00
H1490  H     0.12690   0.59071   0.59089   0.00000  Uiso   1.00
H1491  H     0.06527   0.59503   0.60359   0.00000  Uiso   1.00
H1492  H     0.09962   0.56767   0.55226   0.00000  Uiso   1.00
O1493  O     0.23374   0.52911   0.91552   0.00000  Uiso   1.00
C1494  C     0.26602   0.49582   0.90950   0.00000  Uiso   1.00
H1495  H     0.28438   0.49756   0.93523   0.00000  Uiso   1.00
H1496  H     0.29377   0.49762   0.87605   0.00000  Uiso   1.00
C1497  C     0.24301   0.45354   0.90895   0.00000  Uiso   1.00
H1498  H     0.22492   0.45130   0.88318   0.00000  Uiso   1.00
H1499  H     0.27039   0.42898   0.90059   0.00000  Uiso   1.00
H1500  H     0.21772   0.44797   0.94292   0.00000  Uiso   1.00
O1501  O     0.22889   0.37865   0.78408   0.00000  Uiso   1.00
C1502  C     0.27563   0.36461   0.77126   0.00000  Uiso   1.00
H1503  H     0.29293   0.36350   0.73370   0.00000  Uiso   1.00
H1504  H     0.27744   0.33410   0.78412   0.00000  Uiso   1.00
C1505  C     0.30181   0.39382   0.79431   0.00000  Uiso   1.00
H1506  H     0.28557   0.39300   0.83160   0.00000  Uiso   1.00
H1507  H     0.00560   0.38375   0.78429   0.00000  Uiso   1.00
H1508  H     0.29980   0.42597   0.78523   0.00000  Uiso   1.00
O1509  O     0.08663   0.62516   0.74599   0.00000  Uiso   1.00
C1510  C     0.08253   0.62482   0.70227   0.00000  Uiso   1.00
H1511  H     0.10633   0.60073   0.67910   0.00000  Uiso   1.00
H1512  H     0.09095   0.65524   0.68723   0.00000  Uiso   1.00
C1513  C     0.03212   0.61504   0.70627   0.00000  Uiso   1.00
H1514  H     0.00850   0.63523   0.73431   0.00000  Uiso   1.00
H1515  H     0.02536   0.62128   0.67460   0.00000  Uiso   1.00
H1516  H     0.02438   0.58220   0.71373   0.00000  Uiso   1.00
I1517  I     0.30053   0.43543   0.67178   0.00000  Uiso   1.00
I1518  I     0.03096   0.56199   0.83180   0.00000  Uiso   1.00
O1519  O     0.06916   0.45825   0.67955   0.00000  Uiso   1.00
C1520  C     0.07450   0.41549   0.68412   0.00000  Uiso   1.00
H1521  H     0.04874   0.40359   0.71504   0.00000  Uiso   1.00
H1522  H     0.11012   0.41081   0.68555   0.00000  Uiso   1.00
C1523  C     0.07221   0.38897   0.64214   0.00000  Uiso   1.00
H1524  H     0.10273   0.36732   0.62898   0.00000  Uiso   1.00
H1525  H     0.04015   0.36974   0.65099   0.00000  Uiso   1.00
H1526  H     0.07246   0.40860   0.61439   0.00000  Uiso   1.00
O1527  O     0.26482   0.54208   0.82047   0.00000  Uiso   1.00
C1528  C     0.25735   0.58360   0.81285   0.00000  Uiso   1.00
H1529  H     0.22052   0.58620   0.81442   0.00000  Uiso   1.00
H1530  H     0.28081   0.59361   0.77965   0.00000  Uiso   1.00
C1531  C     0.26150   0.61418   0.85106   0.00000  Uiso   1.00
H1532  H     0.29726   0.62719   0.84232   0.00000  Uiso   1.00
H1533  H     0.23684   0.64072   0.85622   0.00000  Uiso   1.00
H1534  H     0.25251   0.59924   0.88350   0.00000  Uiso   1.00
C1535  C     0.50028   0.57989   0.74924   0.00000  Uiso   1.00
C1536  C     0.49908   0.42043   0.75212   0.00000  Uiso   1.00
C1537  C     0.44439   0.48824   0.54777   0.00000  Uiso   1.00
C1538  C     0.54259   0.53683   0.96145   0.00000  Uiso   1.00
C1539  C     0.42367   0.46469   0.51989   0.00000  Uiso   1.00
C1540  C     0.56323   0.55989   0.98999   0.00000  Uiso   1.00
C1541  C     0.53764   0.64644   0.75489   0.00000  Uiso   1.00
C1542  C     0.46032   0.35471   0.74880   0.00000  Uiso   1.00
C1543  C     0.53531   0.35606   0.76211   0.00000  Uiso   1.00
C1544  C     0.46045   0.64547   0.74617   0.00000  Uiso   1.00
C1545  C     0.49806   0.37641   0.75484   0.00000  Uiso   1.00
C1546  C     0.49977   0.62442   0.74900   0.00000  Uiso   1.00
C1547  C     0.65353   0.47658   0.71776   0.00000  Uiso   1.00
C1548  C     0.34641   0.52309   0.78250   0.00000  Uiso   1.00
C1549  C     0.36805   0.47679   0.71717   0.00000  Uiso   1.00
C1550  C     0.63207   0.52286   0.78302   0.00000  Uiso   1.00
C1551  C     0.47107   0.49853   0.83692   0.00000  Uiso   1.00
C1552  C     0.52908   0.50171   0.66295   0.00000  Uiso   1.00
C1553  C     0.45595   0.48943   0.88467   0.00000  Uiso   1.00
C1554  C     0.54403   0.51466   0.61626   0.00000  Uiso   1.00
C1555  C     0.42997   0.43880   0.94159   0.00000  Uiso   1.00
C1556  C     0.56472   0.57368   0.56910   0.00000  Uiso   1.00
C1557  C     0.43605   0.45057   0.89746   0.00000  Uiso   1.00
C1558  C     0.56541   0.55361   0.60723   0.00000  Uiso   1.00
C1559  C     0.47218   0.51473   0.91457   0.00000  Uiso   1.00
C1560  C     0.52400   0.49547   0.58579   0.00000  Uiso   1.00
C1561  C     0.47201   0.49975   0.95565   0.00000  Uiso   1.00
C1562  C     0.52013   0.51728   0.54997   0.00000  Uiso   1.00
C1563  C     0.44224   0.46659   0.97247   0.00000  Uiso   1.00
C1564  C     0.54849   0.55211   0.53657   0.00000  Uiso   1.00
C1565  C     0.50000   0.51612   0.98117   0.00000  Uiso   1.00
C1566  C     0.48899   0.50568   0.52652   0.00000  Uiso   1.00
H1567  H     0.56759   0.62990   0.75580   0.00000  Uiso   1.00
H1568  H     0.42963   0.37057   0.74762   0.00000  Uiso   1.00
N1569  N     0.38093   0.50001   0.75001   0.00000  Uiso   1.00
N1570  N     0.61907   0.49999   0.74999   0.00000  Uiso   1.00
O1571  O     0.46179   0.56108   0.75000   0.00000  Uiso   1.00
O1572  O     0.53821   0.43892   0.75000   0.00000  Uiso   1.00
O1573  O     0.53823   0.56107   0.75000   0.00000  Uiso   1.00
O1574  O     0.46177   0.43893   0.75000   0.00000  Uiso   1.00
O1575  O     0.43994   0.50001   0.81612   0.00000  Uiso   1.00
O1576  O     0.56006   0.49999   0.68388   0.00000  Uiso   1.00
O1577  O     0.51639   0.50000   0.81612   0.00000  Uiso   1.00
O1578  O     0.48361   0.50000   0.68388   0.00000  Uiso   1.00
Zn1579 Zn    0.44896   0.50001   0.75000   0.00000  Uiso   1.00
Zn1580 Zn    0.55104   0.49999   0.75000   0.00000  Uiso   1.00
I1581  I     0.35498   0.44097   0.54898   0.00000  Uiso   1.00
I1582  I     0.62636   0.59244   0.95855   0.00000  Uiso   1.00
I1583  I     0.51381   0.43038   0.58607   0.00000  Uiso   1.00
I1584  I     0.47812   0.57961   0.90594   0.00000  Uiso   1.00
O1585  O     0.59098   0.57115   0.63306   0.00000  Uiso   1.00
C1586  C     0.63583   0.55152   0.61867   0.00000  Uiso   1.00
H1587  H     0.63313   0.51804   0.62456   0.00000  Uiso   1.00
H1588  H     0.65535   0.56572   0.64021   0.00000  Uiso   1.00
C1589  C     0.66472   0.55640   0.56843   0.00000  Uiso   1.00
H1590  H     0.33863   0.58956   0.56222   0.00000  Uiso   1.00
H1591  H     0.36447   0.53883   0.55952   0.00000  Uiso   1.00
H1592  H     0.64747   0.54216   0.54481   0.00000  Uiso   1.00
O1593  O     0.42762   0.42252   0.86536   0.00000  Uiso   1.00
C1594  C     0.37861   0.41785   0.87495   0.00000  Uiso   1.00
H1595  H     0.36686   0.43803   0.85335   0.00000  Uiso   1.00
H1596  H     0.35706   0.42618   0.91120   0.00000  Uiso   1.00
C1597  C     0.36820   0.37285   0.86362   0.00000  Uiso   1.00
H1598  H     0.66310   0.36823   0.87359   0.00000  Uiso   1.00
H1599  H     0.38450   0.36452   0.82677   0.00000  Uiso   1.00
H1600  H     0.38231   0.35145   0.88214   0.00000  Uiso   1.00
I1601  I     0.42294   0.37445   0.95380   0.00000  Uiso   1.00
I1602  I     0.57690   0.63892   0.57042   0.00000  Uiso   1.00
O1603  O     0.41856   0.49470   0.59395   0.00000  Uiso   1.00
C1604  C     0.42233   0.53438   0.61593   0.00000  Uiso   1.00
H1605  H     0.44940   0.53348   0.63225   0.00000  Uiso   1.00
H1606  H     0.38967   0.53891   0.64539   0.00000  Uiso   1.00
C1607  C     0.42889   0.57358   0.58868   0.00000  Uiso   1.00
H1608  H     0.46024   0.59071   0.59089   0.00000  Uiso   1.00
H1609  H     0.39861   0.59503   0.60359   0.00000  Uiso   1.00
H1610  H     0.43296   0.56767   0.55226   0.00000  Uiso   1.00
O1611  O     0.56707   0.52911   0.91552   0.00000  Uiso   1.00
C1612  C     0.59936   0.49582   0.90950   0.00000  Uiso   1.00
H1613  H     0.61771   0.49756   0.93523   0.00000  Uiso   1.00
H1614  H     0.62711   0.49762   0.87605   0.00000  Uiso   1.00
C1615  C     0.57634   0.45354   0.90895   0.00000  Uiso   1.00
H1616  H     0.55825   0.45130   0.88318   0.00000  Uiso   1.00
H1617  H     0.60372   0.42898   0.90059   0.00000  Uiso   1.00
H1618  H     0.55106   0.44797   0.94292   0.00000  Uiso   1.00
O1619  O     0.56222   0.37865   0.78408   0.00000  Uiso   1.00
C1620  C     0.60897   0.36461   0.77126   0.00000  Uiso   1.00
H1621  H     0.62627   0.36350   0.73370   0.00000  Uiso   1.00
H1622  H     0.61078   0.33410   0.78412   0.00000  Uiso   1.00
C1623  C     0.63514   0.39382   0.79431   0.00000  Uiso   1.00
H1624  H     0.61890   0.39300   0.83160   0.00000  Uiso   1.00
H1625  H     0.33893   0.38375   0.78429   0.00000  Uiso   1.00
H1626  H     0.63313   0.42597   0.78523   0.00000  Uiso   1.00
O1627  O     0.41996   0.62516   0.74599   0.00000  Uiso   1.00
C1628  C     0.41587   0.62482   0.70227   0.00000  Uiso   1.00
H1629  H     0.43966   0.60073   0.67910   0.00000  Uiso   1.00
H1630  H     0.42429   0.65524   0.68723   0.00000  Uiso   1.00
C1631  C     0.36545   0.61504   0.70627   0.00000  Uiso   1.00
H1632  H     0.34183   0.63523   0.73431   0.00000  Uiso   1.00
H1633  H     0.35869   0.62128   0.67460   0.00000  Uiso   1.00
H1634  H     0.35772   0.58220   0.71373   0.00000  Uiso   1.00
I1635  I     0.63386   0.43543   0.67178   0.00000  Uiso   1.00
I1636  I     0.36430   0.56199   0.83180   0.00000  Uiso   1.00
O1637  O     0.40249   0.45825   0.67955   0.00000  Uiso   1.00
C1638  C     0.40784   0.41549   0.68412   0.00000  Uiso   1.00
H1639  H     0.38208   0.40359   0.71504   0.00000  Uiso   1.00
H1640  H     0.44346   0.41081   0.68555   0.00000  Uiso   1.00
C1641  C     0.40554   0.38897   0.64214   0.00000  Uiso   1.00
H1642  H     0.43606   0.36732   0.62898   0.00000  Uiso   1.00
H1643  H     0.37348   0.36974   0.65099   0.00000  Uiso   1.00
H1644  H     0.40580   0.40860   0.61439   0.00000  Uiso   1.00
O1645  O     0.59815   0.54208   0.82047   0.00000  Uiso   1.00
C1646  C     0.59068   0.58360   0.81285   0.00000  Uiso   1.00
H1647  H     0.55385   0.58620   0.81442   0.00000  Uiso   1.00
H1648  H     0.61415   0.59361   0.77965   0.00000  Uiso   1.00
C1649  C     0.59483   0.61418   0.85106   0.00000  Uiso   1.00
H1650  H     0.63060   0.62719   0.84232   0.00000  Uiso   1.00
H1651  H     0.57017   0.64072   0.85622   0.00000  Uiso   1.00
H1652  H     0.58584   0.59924   0.88350   0.00000  Uiso   1.00
C1653  C     0.83361   0.57989   0.74924   0.00000  Uiso   1.00
C1654  C     0.83241   0.42043   0.75212   0.00000  Uiso   1.00
C1655  C     0.77773   0.48824   0.54777   0.00000  Uiso   1.00
C1656  C     0.87592   0.53683   0.96145   0.00000  Uiso   1.00
C1657  C     0.75700   0.46469   0.51989   0.00000  Uiso   1.00
C1658  C     0.89657   0.55989   0.98999   0.00000  Uiso   1.00
C1659  C     0.87098   0.64644   0.75489   0.00000  Uiso   1.00
C1660  C     0.79366   0.35471   0.74880   0.00000  Uiso   1.00
C1661  C     0.86864   0.35606   0.76211   0.00000  Uiso   1.00
C1662  C     0.79378   0.64547   0.74617   0.00000  Uiso   1.00
C1663  C     0.83139   0.37641   0.75484   0.00000  Uiso   1.00
C1664  C     0.83311   0.62442   0.74900   0.00000  Uiso   1.00
C1665  C     0.98687   0.47658   0.71776   0.00000  Uiso   1.00
C1666  C     0.67974   0.52309   0.78250   0.00000  Uiso   1.00
C1667  C     0.70138   0.47679   0.71717   0.00000  Uiso   1.00
C1668  C     0.96541   0.52286   0.78302   0.00000  Uiso   1.00
C1669  C     0.80440   0.49853   0.83692   0.00000  Uiso   1.00
C1670  C     0.86241   0.50171   0.66295   0.00000  Uiso   1.00
C1671  C     0.78928   0.48943   0.88467   0.00000  Uiso   1.00
C1672  C     0.87737   0.51466   0.61626   0.00000  Uiso   1.00
C1673  C     0.76331   0.43880   0.94159   0.00000  Uiso   1.00
C1674  C     0.89806   0.57368   0.56910   0.00000  Uiso   1.00
C1675  C     0.76938   0.45057   0.89746   0.00000  Uiso   1.00
C1676  C     0.89875   0.55361   0.60723   0.00000  Uiso   1.00
C1677  C     0.80551   0.51473   0.91457   0.00000  Uiso   1.00
C1678  C     0.85733   0.49547   0.58579   0.00000  Uiso   1.00
C1679  C     0.80534   0.49975   0.95565   0.00000  Uiso   1.00
C1680  C     0.85347   0.51728   0.54997   0.00000  Uiso   1.00
C1681  C     0.77558   0.46659   0.97247   0.00000  Uiso   1.00
C1682  C     0.88183   0.55211   0.53657   0.00000  Uiso   1.00
C1683  C     0.83333   0.51612   0.98117   0.00000  Uiso   1.00
C1684  C     0.82232   0.50568   0.52652   0.00000  Uiso   1.00
H1685  H     0.90093   0.62990   0.75580   0.00000  Uiso   1.00
H1686  H     0.76297   0.37057   0.74762   0.00000  Uiso   1.00
N1687  N     0.71426   0.50001   0.75001   0.00000  Uiso   1.00
N1688  N     0.95241   0.49999   0.74999   0.00000  Uiso   1.00
O1689  O     0.79512   0.56108   0.75000   0.00000  Uiso   1.00
O1690  O     0.87154   0.43892   0.75000   0.00000  Uiso   1.00
O1691  O     0.87157   0.56107   0.75000   0.00000  Uiso   1.00
O1692  O     0.79510   0.43893   0.75000   0.00000  Uiso   1.00
O1693  O     0.77328   0.50001   0.81612   0.00000  Uiso   1.00
O1694  O     0.89339   0.49999   0.68388   0.00000  Uiso   1.00
O1695  O     0.84972   0.50000   0.81612   0.00000  Uiso   1.00
O1696  O     0.81695   0.50000   0.68388   0.00000  Uiso   1.00
Zn1697 Zn    0.78229   0.50001   0.75000   0.00000  Uiso   1.00
Zn1698 Zn    0.88438   0.49999   0.75000   0.00000  Uiso   1.00
I1699  I     0.68831   0.44097   0.54898   0.00000  Uiso   1.00
I1700  I     0.95969   0.59244   0.95855   0.00000  Uiso   1.00
I1701  I     0.84715   0.43038   0.58607   0.00000  Uiso   1.00
I1702  I     0.81145   0.57961   0.90594   0.00000  Uiso   1.00
O1703  O     0.92432   0.57115   0.63306   0.00000  Uiso   1.00
C1704  C     0.96916   0.55152   0.61867   0.00000  Uiso   1.00
H1705  H     0.96646   0.51804   0.62456   0.00000  Uiso   1.00
H1706  H     0.98869   0.56572   0.64021   0.00000  Uiso   1.00
C1707  C     0.99805   0.55640   0.56843   0.00000  Uiso   1.00
H1708  H     0.67197   0.58956   0.56222   0.00000  Uiso   1.00
H1709  H     0.69780   0.53883   0.55952   0.00000  Uiso   1.00
H1710  H     0.98081   0.54216   0.54481   0.00000  Uiso   1.00
O1711  O     0.76095   0.42252   0.86536   0.00000  Uiso   1.00
C1712  C     0.71194   0.41785   0.87495   0.00000  Uiso   1.00
H1713  H     0.70019   0.43803   0.85335   0.00000  Uiso   1.00
H1714  H     0.69039   0.42618   0.91120   0.00000  Uiso   1.00
C1715  C     0.70154   0.37285   0.86362   0.00000  Uiso   1.00
H1716  H     0.99643   0.36823   0.87359   0.00000  Uiso   1.00
H1717  H     0.71784   0.36452   0.82677   0.00000  Uiso   1.00
H1718  H     0.71564   0.35145   0.88214   0.00000  Uiso   1.00
I1719  I     0.75627   0.37445   0.95380   0.00000  Uiso   1.00
I1720  I     0.91023   0.63892   0.57042   0.00000  Uiso   1.00
O1721  O     0.75190   0.49470   0.59395   0.00000  Uiso   1.00
C1722  C     0.75566   0.53438   0.61593   0.00000  Uiso   1.00
H1723  H     0.78274   0.53348   0.63225   0.00000  Uiso   1.00
H1724  H     0.72301   0.53891   0.64539   0.00000  Uiso   1.00
C1725  C     0.76222   0.57358   0.58868   0.00000  Uiso   1.00
H1726  H     0.79357   0.59071   0.59089   0.00000  Uiso   1.00
H1727  H     0.73194   0.59503   0.60359   0.00000  Uiso   1.00
H1728  H     0.76629   0.56767   0.55226   0.00000  Uiso   1.00
O1729  O     0.90041   0.52911   0.91552   0.00000  Uiso   1.00
C1730  C     0.93269   0.49582   0.90950   0.00000  Uiso   1.00
H1731  H     0.95104   0.49756   0.93523   0.00000  Uiso   1.00
H1732  H     0.96044   0.49762   0.87605   0.00000  Uiso   1.00
C1733  C     0.90967   0.45354   0.90895   0.00000  Uiso   1.00
H1734  H     0.89158   0.45130   0.88318   0.00000  Uiso   1.00
H1735  H     0.93705   0.42898   0.90059   0.00000  Uiso   1.00
H1736  H     0.88439   0.44797   0.94292   0.00000  Uiso   1.00
O1737  O     0.89555   0.37865   0.78408   0.00000  Uiso   1.00
C1738  C     0.94230   0.36461   0.77126   0.00000  Uiso   1.00
H1739  H     0.95960   0.36350   0.73370   0.00000  Uiso   1.00
H1740  H     0.94411   0.33410   0.78412   0.00000  Uiso   1.00
C1741  C     0.96847   0.39382   0.79431   0.00000  Uiso   1.00
H1742  H     0.95224   0.39300   0.83160   0.00000  Uiso   1.00
H1743  H     0.67227   0.38375   0.78429   0.00000  Uiso   1.00
H1744  H     0.96647   0.42597   0.78523   0.00000  Uiso   1.00
O1745  O     0.75329   0.62516   0.74599   0.00000  Uiso   1.00
C1746  C     0.74920   0.62482   0.70227   0.00000  Uiso   1.00
H1747  H     0.77300   0.60073   0.67910   0.00000  Uiso   1.00
H1748  H     0.75762   0.65524   0.68723   0.00000  Uiso   1.00
C1749  C     0.69878   0.61504   0.70627   0.00000  Uiso   1.00
H1750  H     0.67516   0.63523   0.73431   0.00000  Uiso   1.00
H1751  H     0.69202   0.62128   0.67460   0.00000  Uiso   1.00
H1752  H     0.69105   0.58220   0.71373   0.00000  Uiso   1.00
I1753  I     0.96719   0.43543   0.67178   0.00000  Uiso   1.00
I1754  I     0.69763   0.56199   0.83180   0.00000  Uiso   1.00
O1755  O     0.73582   0.45825   0.67955   0.00000  Uiso   1.00
C1756  C     0.74117   0.41549   0.68412   0.00000  Uiso   1.00
H1757  H     0.71541   0.40359   0.71504   0.00000  Uiso   1.00
H1758  H     0.77679   0.41081   0.68555   0.00000  Uiso   1.00
C1759  C     0.73887   0.38897   0.64214   0.00000  Uiso   1.00
H1760  H     0.76939   0.36732   0.62898   0.00000  Uiso   1.00
H1761  H     0.70681   0.36974   0.65099   0.00000  Uiso   1.00
H1762  H     0.73913   0.40860   0.61439   0.00000  Uiso   1.00
O1763  O     0.93149   0.54208   0.82047   0.00000  Uiso   1.00
C1764  C     0.92401   0.58360   0.81285   0.00000  Uiso   1.00
H1765  H     0.88718   0.58620   0.81442   0.00000  Uiso   1.00
H1766  H     0.94748   0.59361   0.77965   0.00000  Uiso   1.00
C1767  C     0.92816   0.61418   0.85106   0.00000  Uiso   1.00
H1768  H     0.96393   0.62719   0.84232   0.00000  Uiso   1.00
H1769  H     0.90351   0.64072   0.85622   0.00000  Uiso   1.00
H1770  H     0.91918   0.59924   0.88350   0.00000  Uiso   1.00
C1771  C     0.16694   0.91322   0.74924   0.00000  Uiso   1.00
C1772  C     0.16575   0.75376   0.75212   0.00000  Uiso   1.00
C1773  C     0.11106   0.82158   0.54777   0.00000  Uiso   1.00
C1774  C     0.20926   0.87016   0.96145   0.00000  Uiso   1.00
C1775  C     0.09034   0.79803   0.51989   0.00000  Uiso   1.00
C1776  C     0.22990   0.89322   0.98999   0.00000  Uiso   1.00
C1777  C     0.20431   0.97977   0.75489   0.00000  Uiso   1.00
C1778  C     0.12699   0.68804   0.74880   0.00000  Uiso   1.00
C1779  C     0.20197   0.68939   0.76211   0.00000  Uiso   1.00
C1780  C     0.12711   0.97880   0.74617   0.00000  Uiso   1.00
C1781  C     0.16473   0.70974   0.75484   0.00000  Uiso   1.00
C1782  C     0.16644   0.95775   0.74900   0.00000  Uiso   1.00
C1783  C     0.32020   0.80991   0.71776   0.00000  Uiso   1.00
C1784  C     0.01308   0.85643   0.78250   0.00000  Uiso   1.00
C1785  C     0.03472   0.81013   0.71717   0.00000  Uiso   1.00
C1786  C     0.29874   0.85620   0.78302   0.00000  Uiso   1.00
C1787  C     0.13773   0.83186   0.83692   0.00000  Uiso   1.00
C1788  C     0.19574   0.83504   0.66295   0.00000  Uiso   1.00
C1789  C     0.12261   0.82277   0.88467   0.00000  Uiso   1.00
C1790  C     0.21070   0.84799   0.61626   0.00000  Uiso   1.00
C1791  C     0.09664   0.77214   0.94159   0.00000  Uiso   1.00
C1792  C     0.23139   0.90701   0.56910   0.00000  Uiso   1.00
C1793  C     0.10272   0.78390   0.89746   0.00000  Uiso   1.00
C1794  C     0.23208   0.88694   0.60723   0.00000  Uiso   1.00
C1795  C     0.13884   0.84807   0.91457   0.00000  Uiso   1.00
C1796  C     0.19067   0.82881   0.58579   0.00000  Uiso   1.00
C1797  C     0.13868   0.83308   0.95565   0.00000  Uiso   1.00
C1798  C     0.18680   0.85062   0.54997   0.00000  Uiso   1.00
C1799  C     0.10891   0.79992   0.97247   0.00000  Uiso   1.00
C1800  C     0.21516   0.88545   0.53657   0.00000  Uiso   1.00
C1801  C     0.16666   0.84945   0.98117   0.00000  Uiso   1.00
C1802  C     0.15566   0.83902   0.52652   0.00000  Uiso   1.00
H1803  H     0.23426   0.96323   0.75580   0.00000  Uiso   1.00
H1804  H     0.09630   0.70391   0.74762   0.00000  Uiso   1.00
N1805  N     0.04759   0.83334   0.75001   0.00000  Uiso   1.00
N1806  N     0.28574   0.83332   0.74999   0.00000  Uiso   1.00
O1807  O     0.12846   0.89442   0.75000   0.00000  Uiso   1.00
O1808  O     0.20488   0.77225   0.75000   0.00000  Uiso   1.00
O1809  O     0.20490   0.89441   0.75000   0.00000  Uiso   1.00
O1810  O     0.12843   0.77226   0.75000   0.00000  Uiso   1.00
O1811  O     0.10661   0.83334   0.81612   0.00000  Uiso   1.00
O1812  O     0.22672   0.83333   0.68388   0.00000  Uiso   1.00
O1813  O     0.18305   0.83333   0.81612   0.00000  Uiso   1.00
O1814  O     0.15028   0.83334   0.68388   0.00000  Uiso   1.00
Zn1815 Zn    0.11562   0.83334   0.75000   0.00000  Uiso   1.00
Zn1816 Zn    0.21771   0.83333   0.75000   0.00000  Uiso   1.00
I1817  I     0.02164   0.77430   0.54898   0.00000  Uiso   1.00
I1818  I     0.29302   0.92577   0.95855   0.00000  Uiso   1.00
I1819  I     0.18048   0.76371   0.58607   0.00000  Uiso   1.00
I1820  I     0.14479   0.91294   0.90594   0.00000  Uiso   1.00
O1821  O     0.25765   0.90448   0.63306   0.00000  Uiso   1.00
C1822  C     0.30249   0.88486   0.61867   0.00000  Uiso   1.00
H1823  H     0.29979   0.85137   0.62456   0.00000  Uiso   1.00
H1824  H     0.32202   0.89906   0.64021   0.00000  Uiso   1.00
C1825  C     0.33138   0.88974   0.56843   0.00000  Uiso   1.00
H1826  H     0.00530   0.92289   0.56222   0.00000  Uiso   1.00
H1827  H     0.03113   0.87217   0.55952   0.00000  Uiso   1.00
H1828  H     0.31414   0.87550   0.54481   0.00000  Uiso   1.00
O1829  O     0.09428   0.75585   0.86536   0.00000  Uiso   1.00
C1830  C     0.04527   0.75118   0.87495   0.00000  Uiso   1.00
H1831  H     0.03353   0.77136   0.85335   0.00000  Uiso   1.00
H1832  H     0.02372   0.75951   0.91120   0.00000  Uiso   1.00
C1833  C     0.03487   0.70618   0.86362   0.00000  Uiso   1.00
H1834  H     0.32976   0.70156   0.87359   0.00000  Uiso   1.00
H1835  H     0.05117   0.69785   0.82677   0.00000  Uiso   1.00
H1836  H     0.04898   0.68478   0.88214   0.00000  Uiso   1.00
I1837  I     0.08961   0.70778   0.95380   0.00000  Uiso   1.00
I1838  I     0.24357   0.97226   0.57042   0.00000  Uiso   1.00
O1839  O     0.08523   0.82804   0.59395   0.00000  Uiso   1.00
C1840  C     0.08900   0.86771   0.61593   0.00000  Uiso   1.00
H1841  H     0.11607   0.86681   0.63225   0.00000  Uiso   1.00
H1842  H     0.05634   0.87225   0.64539   0.00000  Uiso   1.00
C1843  C     0.09555   0.90692   0.58868   0.00000  Uiso   1.00
H1844  H     0.12690   0.92404   0.59089   0.00000  Uiso   1.00
H1845  H     0.06527   0.92836   0.60359   0.00000  Uiso   1.00
H1846  H     0.09962   0.90100   0.55226   0.00000  Uiso   1.00
O1847  O     0.23374   0.86244   0.91552   0.00000  Uiso   1.00
C1848  C     0.26602   0.82915   0.90950   0.00000  Uiso   1.00
H1849  H     0.28438   0.83089   0.93523   0.00000  Uiso   1.00
H1850  H     0.29377   0.83095   0.87605   0.00000  Uiso   1.00
C1851  C     0.24301   0.78687   0.90895   0.00000  Uiso   1.00
H1852  H     0.22492   0.78464   0.88318   0.00000  Uiso   1.00
H1853  H     0.27039   0.76232   0.90059   0.00000  Uiso   1.00
H1854  H     0.21772   0.78130   0.94292   0.00000  Uiso   1.00
O1855  O     0.22889   0.71198   0.78408   0.00000  Uiso   1.00
C1856  C     0.27563   0.69795   0.77126   0.00000  Uiso   1.00
H1857  H     0.29293   0.69683   0.73370   0.00000  Uiso   1.00
H1858  H     0.27744   0.66744   0.78412   0.00000  Uiso   1.00
C1859  C     0.30181   0.72715   0.79431   0.00000  Uiso   1.00
H1860  H     0.28557   0.72633   0.83160   0.00000  Uiso   1.00
H1861  H     0.00560   0.71709   0.78429   0.00000  Uiso   1.00
H1862  H     0.29980   0.75930   0.78523   0.00000  Uiso   1.00
O1863  O     0.08663   0.95849   0.74599   0.00000  Uiso   1.00
C1864  C     0.08253   0.95816   0.70227   0.00000  Uiso   1.00
H1865  H     0.10633   0.93407   0.67910   0.00000  Uiso   1.00
H1866  H     0.09095   0.98857   0.68723   0.00000  Uiso   1.00
C1867  C     0.03212   0.94837   0.70627   0.00000  Uiso   1.00
H1868  H     0.00850   0.96857   0.73431   0.00000  Uiso   1.00
H1869  H     0.02536   0.95462   0.67460   0.00000  Uiso   1.00
H1870  H     0.02438   0.91553   0.71373   0.00000  Uiso   1.00
I1871  I     0.30053   0.76877   0.67178   0.00000  Uiso   1.00
I1872  I     0.03096   0.89533   0.83180   0.00000  Uiso   1.00
O1873  O     0.06916   0.79158   0.67955   0.00000  Uiso   1.00
C1874  C     0.07450   0.74883   0.68412   0.00000  Uiso   1.00
H1875  H     0.04874   0.73692   0.71504   0.00000  Uiso   1.00
H1876  H     0.11012   0.74414   0.68555   0.00000  Uiso   1.00
C1877  C     0.07221   0.72230   0.64214   0.00000  Uiso   1.00
H1878  H     0.10273   0.70065   0.62898   0.00000  Uiso   1.00
H1879  H     0.04015   0.70307   0.65099   0.00000  Uiso   1.00
H1880  H     0.07246   0.74193   0.61439   0.00000  Uiso   1.00
O1881  O     0.26482   0.87542   0.82047   0.00000  Uiso   1.00
C1882  C     0.25735   0.91693   0.81285   0.00000  Uiso   1.00
H1883  H     0.22052   0.91954   0.81442   0.00000  Uiso   1.00
H1884  H     0.28081   0.92694   0.77965   0.00000  Uiso   1.00
C1885  C     0.26150   0.94751   0.85106   0.00000  Uiso   1.00
H1886  H     0.29726   0.96052   0.84232   0.00000  Uiso   1.00
H1887  H     0.23684   0.97405   0.85622   0.00000  Uiso   1.00
H1888  H     0.25251   0.93258   0.88350   0.00000  Uiso   1.00
C1889  C     0.50028   0.91322   0.74924   0.00000  Uiso   1.00
C1890  C     0.49908   0.75376   0.75212   0.00000  Uiso   1.00
C1891  C     0.44439   0.82158   0.54777   0.00000  Uiso   1.00
C1892  C     0.54259   0.87016   0.96145   0.00000  Uiso   1.00
C1893  C     0.42367   0.79803   0.51989   0.00000  Uiso   1.00
C1894  C     0.56323   0.89322   0.98999   0.00000  Uiso   1.00
C1895  C     0.53764   0.97977   0.75489   0.00000  Uiso   1.00
C1896  C     0.46032   0.68804   0.74880   0.00000  Uiso   1.00
C1897  C     0.53531   0.68939   0.76211   0.00000  Uiso   1.00
C1898  C     0.46045   0.97880   0.74617   0.00000  Uiso   1.00
C1899  C     0.49806   0.70974   0.75484   0.00000  Uiso   1.00
C1900  C     0.49977   0.95775   0.74900   0.00000  Uiso   1.00
C1901  C     0.65353   0.80991   0.71776   0.00000  Uiso   1.00
C1902  C     0.34641   0.85643   0.78250   0.00000  Uiso   1.00
C1903  C     0.36805   0.81013   0.71717   0.00000  Uiso   1.00
C1904  C     0.63207   0.85620   0.78302   0.00000  Uiso   1.00
C1905  C     0.47107   0.83186   0.83692   0.00000  Uiso   1.00
C1906  C     0.52908   0.83504   0.66295   0.00000  Uiso   1.00
C1907  C     0.45595   0.82277   0.88467   0.00000  Uiso   1.00
C1908  C     0.54403   0.84799   0.61626   0.00000  Uiso   1.00
C1909  C     0.42997   0.77214   0.94159   0.00000  Uiso   1.00
C1910  C     0.56472   0.90701   0.56910   0.00000  Uiso   1.00
C1911  C     0.43605   0.78390   0.89746   0.00000  Uiso   1.00
C1912  C     0.56541   0.88694   0.60723   0.00000  Uiso   1.00
C1913  C     0.47218   0.84807   0.91457   0.00000  Uiso   1.00
C1914  C     0.52400   0.82881   0.58579   0.00000  Uiso   1.00
C1915  C     0.47201   0.83308   0.95565   0.00000  Uiso   1.00
C1916  C     0.52013   0.85062   0.54997   0.00000  Uiso   1.00
C1917  C     0.44224   0.79992   0.97247   0.00000  Uiso   1.00
C1918  C     0.54849   0.88545   0.53657   0.00000  Uiso   1.00
C1919  C     0.50000   0.84945   0.98117   0.00000  Uiso   1.00
C1920  C     0.48899   0.83902   0.52652   0.00000  Uiso   1.00
H1921  H     0.56759   0.96323   0.75580   0.00000  Uiso   1.00
H1922  H     0.42963   0.70391   0.74762   0.00000  Uiso   1.00
N1923  N     0.38093   0.83334   0.75001   0.00000  Uiso   1.00
N1924  N     0.61907   0.83332   0.74999   0.00000  Uiso   1.00
O1925  O     0.46179   0.89442   0.75000   0.00000  Uiso   1.00
O1926  O     0.53821   0.77225   0.75000   0.00000  Uiso   1.00
O1927  O     0.53823   0.89441   0.75000   0.00000  Uiso   1.00
O1928  O     0.46177   0.77226   0.75000   0.00000  Uiso   1.00
O1929  O     0.43994   0.83334   0.81612   0.00000  Uiso   1.00
O1930  O     0.56006   0.83333   0.68388   0.00000  Uiso   1.00
O1931  O     0.51639   0.83333   0.81612   0.00000  Uiso   1.00
O1932  O     0.48361   0.83334   0.68388   0.00000  Uiso   1.00
Zn1933 Zn    0.44896   0.83334   0.75000   0.00000  Uiso   1.00
Zn1934 Zn    0.55104   0.83333   0.75000   0.00000  Uiso   1.00
I1935  I     0.35498   0.77430   0.54898   0.00000  Uiso   1.00
I1936  I     0.62636   0.92577   0.95855   0.00000  Uiso   1.00
I1937  I     0.51381   0.76371   0.58607   0.00000  Uiso   1.00
I1938  I     0.47812   0.91294   0.90594   0.00000  Uiso   1.00
O1939  O     0.59098   0.90448   0.63306   0.00000  Uiso   1.00
C1940  C     0.63583   0.88486   0.61867   0.00000  Uiso   1.00
H1941  H     0.63313   0.85137   0.62456   0.00000  Uiso   1.00
H1942  H     0.65535   0.89906   0.64021   0.00000  Uiso   1.00
C1943  C     0.66472   0.88974   0.56843   0.00000  Uiso   1.00
H1944  H     0.33863   0.92289   0.56222   0.00000  Uiso   1.00
H1945  H     0.36447   0.87217   0.55952   0.00000  Uiso   1.00
H1946  H     0.64747   0.87550   0.54481   0.00000  Uiso   1.00
O1947  O     0.42762   0.75585   0.86536   0.00000  Uiso   1.00
C1948  C     0.37861   0.75118   0.87495   0.00000  Uiso   1.00
H1949  H     0.36686   0.77136   0.85335   0.00000  Uiso   1.00
H1950  H     0.35706   0.75951   0.91120   0.00000  Uiso   1.00
C1951  C     0.36820   0.70618   0.86362   0.00000  Uiso   1.00
H1952  H     0.66310   0.70156   0.87359   0.00000  Uiso   1.00
H1953  H     0.38450   0.69785   0.82677   0.00000  Uiso   1.00
H1954  H     0.38231   0.68478   0.88214   0.00000  Uiso   1.00
I1955  I     0.42294   0.70778   0.95380   0.00000  Uiso   1.00
I1956  I     0.57690   0.97226   0.57042   0.00000  Uiso   1.00
O1957  O     0.41856   0.82804   0.59395   0.00000  Uiso   1.00
C1958  C     0.42233   0.86771   0.61593   0.00000  Uiso   1.00
H1959  H     0.44940   0.86681   0.63225   0.00000  Uiso   1.00
H1960  H     0.38967   0.87225   0.64539   0.00000  Uiso   1.00
C1961  C     0.42889   0.90692   0.58868   0.00000  Uiso   1.00
H1962  H     0.46024   0.92404   0.59089   0.00000  Uiso   1.00
H1963  H     0.39861   0.92836   0.60359   0.00000  Uiso   1.00
H1964  H     0.43296   0.90100   0.55226   0.00000  Uiso   1.00
O1965  O     0.56707   0.86244   0.91552   0.00000  Uiso   1.00
C1966  C     0.59936   0.82915   0.90950   0.00000  Uiso   1.00
H1967  H     0.61771   0.83089   0.93523   0.00000  Uiso   1.00
H1968  H     0.62711   0.83095   0.87605   0.00000  Uiso   1.00
C1969  C     0.57634   0.78687   0.90895   0.00000  Uiso   1.00
H1970  H     0.55825   0.78464   0.88318   0.00000  Uiso   1.00
H1971  H     0.60372   0.76232   0.90059   0.00000  Uiso   1.00
H1972  H     0.55106   0.78130   0.94292   0.00000  Uiso   1.00
O1973  O     0.56222   0.71198   0.78408   0.00000  Uiso   1.00
C1974  C     0.60897   0.69795   0.77126   0.00000  Uiso   1.00
H1975  H     0.62627   0.69683   0.73370   0.00000  Uiso   1.00
H1976  H     0.61078   0.66744   0.78412   0.00000  Uiso   1.00
C1977  C     0.63514   0.72715   0.79431   0.00000  Uiso   1.00
H1978  H     0.61890   0.72633   0.83160   0.00000  Uiso   1.00
H1979  H     0.33893   0.71709   0.78429   0.00000  Uiso   1.00
H1980  H     0.63313   0.75930   0.78523   0.00000  Uiso   1.00
O1981  O     0.41996   0.95849   0.74599   0.00000  Uiso   1.00
C1982  C     0.41587   0.95816   0.70227   0.00000  Uiso   1.00
H1983  H     0.43966   0.93407   0.67910   0.00000  Uiso   1.00
H1984  H     0.42429   0.98857   0.68723   0.00000  Uiso   1.00
C1985  C     0.36545   0.94837   0.70627   0.00000  Uiso   1.00
H1986  H     0.34183   0.96857   0.73431   0.00000  Uiso   1.00
H1987  H     0.35869   0.95462   0.67460   0.00000  Uiso   1.00
H1988  H     0.35772   0.91553   0.71373   0.00000  Uiso   1.00
I1989  I     0.63386   0.76877   0.67178   0.00000  Uiso   1.00
I1990  I     0.36430   0.89533   0.83180   0.00000  Uiso   1.00
O1991  O     0.40249   0.79158   0.67955   0.00000  Uiso   1.00
C1992  C     0.40784   0.74883   0.68412   0.00000  Uiso   1.00
H1993  H     0.38208   0.73692   0.71504   0.00000  Uiso   1.00
H1994  H     0.44346   0.74414   0.68555   0.00000  Uiso   1.00
C1995  C     0.40554   0.72230   0.64214   0.00000  Uiso   1.00
H1996  H     0.43606   0.70065   0.62898   0.00000  Uiso   1.00
H1997  H     0.37348   0.70307   0.65099   0.00000  Uiso   1.00
H1998  H     0.40580   0.74193   0.61439   0.00000  Uiso   1.00
O1999  O     0.59815   0.87542   0.82047   0.00000  Uiso   1.00
C2000  C     0.59068   0.91693   0.81285   0.00000  Uiso   1.00
H2001  H     0.55385   0.91954   0.81442   0.00000  Uiso   1.00
H2002  H     0.61415   0.92694   0.77965   0.00000  Uiso   1.00
C2003  C     0.59483   0.94751   0.85106   0.00000  Uiso   1.00
H2004  H     0.63060   0.96052   0.84232   0.00000  Uiso   1.00
H2005  H     0.57017   0.97405   0.85622   0.00000  Uiso   1.00
H2006  H     0.58584   0.93258   0.88350   0.00000  Uiso   1.00
C2007  C     0.83361   0.91322   0.74924   0.00000  Uiso   1.00
C2008  C     0.83241   0.75376   0.75212   0.00000  Uiso   1.00
C2009  C     0.77773   0.82158   0.54777   0.00000  Uiso   1.00
C2010  C     0.87592   0.87016   0.96145   0.00000  Uiso   1.00
C2011  C     0.75700   0.79803   0.51989   0.00000  Uiso   1.00
C2012  C     0.89657   0.89322   0.98999   0.00000  Uiso   1.00
C2013  C     0.87098   0.97977   0.75489   0.00000  Uiso   1.00
C2014  C     0.79366   0.68804   0.74880   0.00000  Uiso   1.00
C2015  C     0.86864   0.68939   0.76211   0.00000  Uiso   1.00
C2016  C     0.79378   0.97880   0.74617   0.00000  Uiso   1.00
C2017  C     0.83139   0.70974   0.75484   0.00000  Uiso   1.00
C2018  C     0.83311   0.95775   0.74900   0.00000  Uiso   1.00
C2019  C     0.98687   0.80991   0.71776   0.00000  Uiso   1.00
C2020  C     0.67974   0.85643   0.78250   0.00000  Uiso   1.00
C2021  C     0.70138   0.81013   0.71717   0.00000  Uiso   1.00
C2022  C     0.96541   0.85620   0.78302   0.00000  Uiso   1.00
C2023  C     0.80440   0.83186   0.83692   0.00000  Uiso   1.00
C2024  C     0.86241   0.83504   0.66295   0.00000  Uiso   1.00
C2025  C     0.78928   0.82277   0.88467   0.00000  Uiso   1.00
C2026  C     0.87737   0.84799   0.61626   0.00000  Uiso   1.00
C2027  C     0.76331   0.77214   0.94159   0.00000  Uiso   1.00
C2028  C     0.89806   0.90701   0.56910   0.00000  Uiso   1.00
C2029  C     0.76938   0.78390   0.89746   0.00000  Uiso   1.00
C2030  C     0.89875   0.88694   0.60723   0.00000  Uiso   1.00
C2031  C     0.80551   0.84807   0.91457   0.00000  Uiso   1.00
C2032  C     0.85733   0.82881   0.58579   0.00000  Uiso   1.00
C2033  C     0.80534   0.83308   0.95565   0.00000  Uiso   1.00
C2034  C     0.85347   0.85062   0.54997   0.00000  Uiso   1.00
C2035  C     0.77558   0.79992   0.97247   0.00000  Uiso   1.00
C2036  C     0.88183   0.88545   0.53657   0.00000  Uiso   1.00
C2037  C     0.83333   0.84945   0.98117   0.00000  Uiso   1.00
C2038  C     0.82232   0.83902   0.52652   0.00000  Uiso   1.00
H2039  H     0.90093   0.96323   0.75580   0.00000  Uiso   1.00
H2040  H     0.76297   0.70391   0.74762   0.00000  Uiso   1.00
N2041  N     0.71426   0.83334   0.75001   0.00000  Uiso   1.00
N2042  N     0.95241   0.83332   0.74999   0.00000  Uiso   1.00
O2043  O     0.79512   0.89442   0.75000   0.00000  Uiso   1.00
O2044  O     0.87154   0.77225   0.75000   0.00000  Uiso   1.00
O2045  O     0.87157   0.89441   0.75000   0.00000  Uiso   1.00
O2046  O     0.79510   0.77226   0.75000   0.00000  Uiso   1.00
O2047  O     0.77328   0.83334   0.81612   0.00000  Uiso   1.00
O2048  O     0.89339   0.83333   0.68388   0.00000  Uiso   1.00
O2049  O     0.84972   0.83333   0.81612   0.00000  Uiso   1.00
O2050  O     0.81695   0.83334   0.68388   0.00000  Uiso   1.00
Zn2051 Zn    0.78229   0.83334   0.75000   0.00000  Uiso   1.00
Zn2052 Zn    0.88438   0.83333   0.75000   0.00000  Uiso   1.00
I2053  I     0.68831   0.77430   0.54898   0.00000  Uiso   1.00
I2054  I     0.95969   0.92577   0.95855   0.00000  Uiso   1.00
I2055  I     0.84715   0.76371   0.58607   0.00000  Uiso   1.00
I2056  I     0.81145   0.91294   0.90594   0.00000  Uiso   1.00
O2057  O     0.92432   0.90448   0.63306   0.00000  Uiso   1.00
C2058  C     0.96916   0.88486   0.61867   0.00000  Uiso   1.00
H2059  H     0.96646   0.85137   0.62456   0.00000  Uiso   1.00
H2060  H     0.98869   0.89906   0.64021   0.00000  Uiso   1.00
C2061  C     0.99805   0.88974   0.56843   0.00000  Uiso   1.00
H2062  H     0.67197   0.92289   0.56222   0.00000  Uiso   1.00
H2063  H     0.69780   0.87217   0.55952   0.00000  Uiso   1.00
H2064  H     0.98081   0.87550   0.54481   0.00000  Uiso   1.00
O2065  O     0.76095   0.75585   0.86536   0.00000  Uiso   1.00
C2066  C     0.71194   0.75118   0.87495   0.00000  Uiso   1.00
H2067  H     0.70019   0.77136   0.85335   0.00000  Uiso   1.00
H2068  H     0.69039   0.75951   0.91120   0.00000  Uiso   1.00
C2069  C     0.70154   0.70618   0.86362   0.00000  Uiso   1.00
H2070  H     0.99643   0.70156   0.87359   0.00000  Uiso   1.00
H2071  H     0.71784   0.69785   0.82677   0.00000  Uiso   1.00
H2072  H     0.71564   0.68478   0.88214   0.00000  Uiso   1.00
I2073  I     0.75627   0.70778   0.95380   0.00000  Uiso   1.00
I2074  I     0.91023   0.97226   0.57042   0.00000  Uiso   1.00
O2075  O     0.75190   0.82804   0.59395   0.00000  Uiso   1.00
C2076  C     0.75566   0.86771   0.61593   0.00000  Uiso   1.00
H2077  H     0.78274   0.86681   0.63225   0.00000  Uiso   1.00
H2078  H     0.72301   0.87225   0.64539   0.00000  Uiso   1.00
C2079  C     0.76222   0.90692   0.58868   0.00000  Uiso   1.00
H2080  H     0.79357   0.92404   0.59089   0.00000  Uiso   1.00
H2081  H     0.73194   0.92836   0.60359   0.00000  Uiso   1.00
H2082  H     0.76629   0.90100   0.55226   0.00000  Uiso   1.00
O2083  O     0.90041   0.86244   0.91552   0.00000  Uiso   1.00
C2084  C     0.93269   0.82915   0.90950   0.00000  Uiso   1.00
H2085  H     0.95104   0.83089   0.93523   0.00000  Uiso   1.00
H2086  H     0.96044   0.83095   0.87605   0.00000  Uiso   1.00
C2087  C     0.90967   0.78687   0.90895   0.00000  Uiso   1.00
H2088  H     0.89158   0.78464   0.88318   0.00000  Uiso   1.00
H2089  H     0.93705   0.76232   0.90059   0.00000  Uiso   1.00
H2090  H     0.88439   0.78130   0.94292   0.00000  Uiso   1.00
O2091  O     0.89555   0.71198   0.78408   0.00000  Uiso   1.00
C2092  C     0.94230   0.69795   0.77126   0.00000  Uiso   1.00
H2093  H     0.95960   0.69683   0.73370   0.00000  Uiso   1.00
H2094  H     0.94411   0.66744   0.78412   0.00000  Uiso   1.00
C2095  C     0.96847   0.72715   0.79431   0.00000  Uiso   1.00
H2096  H     0.95224   0.72633   0.83160   0.00000  Uiso   1.00
H2097  H     0.67227   0.71709   0.78429   0.00000  Uiso   1.00
H2098  H     0.96647   0.75930   0.78523   0.00000  Uiso   1.00
O2099  O     0.75329   0.95849   0.74599   0.00000  Uiso   1.00
C2100  C     0.74920   0.95816   0.70227   0.00000  Uiso   1.00
H2101  H     0.77300   0.93407   0.67910   0.00000  Uiso   1.00
H2102  H     0.75762   0.98857   0.68723   0.00000  Uiso   1.00
C2103  C     0.69878   0.94837   0.70627   0.00000  Uiso   1.00
H2104  H     0.67516   0.96857   0.73431   0.00000  Uiso   1.00
H2105  H     0.69202   0.95462   0.67460   0.00000  Uiso   1.00
H2106  H     0.69105   0.91553   0.71373   0.00000  Uiso   1.00
I2107  I     0.96719   0.76877   0.67178   0.00000  Uiso   1.00
I2108  I     0.69763   0.89533   0.83180   0.00000  Uiso   1.00
O2109  O     0.73582   0.79158   0.67955   0.00000  Uiso   1.00
C2110  C     0.74117   0.74883   0.68412   0.00000  Uiso   1.00
H2111  H     0.71541   0.73692   0.71504   0.00000  Uiso   1.00
H2112  H     0.77679   0.74414   0.68555   0.00000  Uiso   1.00
C2113  C     0.73887   0.72230   0.64214   0.00000  Uiso   1.00
H2114  H     0.76939   0.70065   0.62898   0.00000  Uiso   1.00
H2115  H     0.70681   0.70307   0.65099   0.00000  Uiso   1.00
H2116  H     0.73913   0.74193   0.61439   0.00000  Uiso   1.00
O2117  O     0.93149   0.87542   0.82047   0.00000  Uiso   1.00
C2118  C     0.92401   0.91693   0.81285   0.00000  Uiso   1.00
H2119  H     0.88718   0.91954   0.81442   0.00000  Uiso   1.00
H2120  H     0.94748   0.92694   0.77965   0.00000  Uiso   1.00
C2121  C     0.92816   0.94751   0.85106   0.00000  Uiso   1.00
H2122  H     0.96393   0.96052   0.84232   0.00000  Uiso   1.00
H2123  H     0.90351   0.97405   0.85622   0.00000  Uiso   1.00
H2124  H     0.91918   0.93258   0.88350   0.00000  Uiso   1.00
loop_
_geom_bond_atom_site_label_1
_geom_bond_atom_site_label_2
_geom_bond_distance
_geom_bond_site_symmetry_2
_ccdc_geom_bond_type
C1     O37     1.298   .     A
C1     C12     1.441   .     S
C1     O39     1.313   .     A
C2     C11     1.431   .     S
C2     O38     1.301   .     A
C2     O40     1.306   .     A
C3     O69     1.395   .     S
C3     C5      1.407   .     A
C3     C32     1.419   .     A
C4     C6      1.413   .     A
C4     O77     1.384   .     S
C4     C31     1.412   .     A
C5     I47     2.127   .     S
C5     C1091   1.404   1_554 S
C6     I48     2.136   .     S
C6     C1092   1.413   .     S
C7     H33     1.067   .     S
C7     C12     1.395   .     A
C7     C363    1.390   .     S
C8     H34     1.078   .     S
C8     C11     1.388   .     A
C8     C718    1.373   1_545 S
C9     O85     1.394   .     S
C9     C11     1.401   .     A
C9     C715    1.390   1_545 S
C10    O93     1.382   .     S
C10    C12     1.408   .     A
C10    C362    1.373   .     S
C13    N36     1.372   .     A
C13    I101    2.109   .     S
C13    C133    1.439   .     S
C14    I102    2.119   .     S
C14    N35     1.372   .     A
C14    C252    1.434   1_455 S
C15    N35     1.382   .     A
C15    O103    1.387   .     S
C15    C249    1.439   1_455 S
C16    N36     1.383   .     A
C16    O111    1.385   .     S
C16    C132    1.434   .     S
C17    O43     1.308   .     A
C17    C19     1.458   .     S
C17    O41     1.311   .     A
C18    O42     1.311   .     A
C18    C20     1.467   .     S
C18    O44     1.313   .     A
C19    C23     1.412   .     A
C19    C25     1.400   .     A
C20    C24     1.411   .     A
C20    C26     1.393   .     A
C21    I67     2.138   .     S
C21    C23     1.408   .     A
C21    C29     1.405   .     A
C22    I68     2.136   .     S
C22    C24     1.403   .     A
C22    C30     1.405   .     A
C23    O59     1.386   .     S
C24    O51     1.379   .     S
C25    I50     2.132   .     S
C25    C27     1.402   .     A
C26    I49     2.123   .     S
C26    C28     1.402   .     A
C27    C29     1.406   .     A
C27    C31     1.415   .     A
C28    C32     1.403   .     A
C28    C30     1.408   .     A
C29    C1067   1.404   .     S
C30    C1068   1.413   1_554 S
C31    C1094   1.409   .     S
C32    C1093   1.409   1_554 S
N35    Zn45    2.055   .     S
N36    Zn46    2.055   .     S
O37    Zn45    2.007   .     S
O38    Zn46    2.007   .     S
O39    Zn46    2.018   .     S
O40    Zn45    2.018   .     S
O41    Zn45    1.991   .     S
O42    Zn46    1.991   .     S
O43    Zn46    1.981   .     S
O44    Zn45    1.981   .     S
O51    C52     1.420   .     S
C52    H53     1.109   .     S
C52    C55     1.540   .     S
C52    H54     1.105   .     S
C55    H58     1.107   .     S
C55    H174    1.109   .     S
C55    H175    1.098   .     S
H56    C291    1.109   1_455 S
H57    C291    1.098   1_455 S
O59    C60     1.418   .     S
C60    C63     1.525   .     S
C60    H62     1.117   .     S
C60    H61     1.112   .     S
C63    H65     1.105   .     S
C63    H66     1.107   .     S
C63    H300    1.109   1_455 S
H64    C181    1.109   .     S
O69    C70     1.431   .     S
C70    H71     1.099   .     S
C70    C73     1.552   .     S
C70    H72     1.106   .     S
C73    H74     1.110   .     S
C73    H75     1.105   .     S
C73    H76     1.104   .     S
O77    C78     1.422   .     S
C78    H80     1.106   .     S
C78    H79     1.115   .     S
C78    C81     1.527   .     S
C81    H84     1.108   .     S
C81    H82     1.111   .     S
C81    H83     1.108   .     S
O85    C86     1.406   .     S
C86    H88     1.101   .     S
C86    H87     1.112   .     S
C86    C89     1.514   .     S
C89    H92     1.105   .     S
C89    H90     1.105   .     S
C89    H209    1.106   .     S
H91    C325    1.106   1_455 S
O93    C94     1.410   .     S
C94    H95     1.111   .     S
C94    H96     1.111   .     S
C94    C97     1.517   .     S
C97    H98     1.103   .     S
C97    H99     1.107   .     S
C97    H100    1.109   .     S
O103   C104    1.417   .     S
C104   H105    1.110   .     S
C104   H106    1.104   .     S
C104   C107    1.533   .     S
C107   H110    1.109   .     S
C107   H108    1.110   .     S
C107   H109    1.110   .     S
O111   C112    1.414   .     S
C112   H114    1.112   .     S
C112   H113    1.101   .     S
C112   C115    1.529   .     S
C115   H116    1.108   .     S
C115   H117    1.111   .     S
C115   H118    1.104   .     S
C119   O155    1.298   .     A
C119   C130    1.441   .     S
C119   O157    1.313   .     A
C120   C129    1.431   .     S
C120   O156    1.301   .     A
C120   O158    1.306   .     A
C121   O187    1.395   .     S
C121   C123    1.407   .     A
C121   C150    1.419   .     A
C122   C124    1.413   .     A
C122   O195    1.384   .     S
C122   C149    1.412   .     A
C123   I165    2.127   .     S
C123   C1209   1.404   1_554 S
C124   I166    2.136   .     S
C124   C1210   1.413   .     S
C125   H151    1.067   .     S
C125   C130    1.395   .     A
C125   C481    1.390   .     S
C126   H152    1.078   .     S
C126   C129    1.388   .     A
C126   C836    1.373   1_545 S
C127   O203    1.394   .     S
C127   C129    1.401   .     A
C127   C833    1.390   1_545 S
C128   O211    1.382   .     S
C128   C130    1.408   .     A
C128   C480    1.373   .     S
C131   N154    1.372   .     A
C131   I219    2.109   .     S
C131   C251    1.439   .     S
C132   I220    2.119   .     S
C132   N153    1.372   .     A
C133   N153    1.382   .     A
C133   O221    1.387   .     S
C134   N154    1.383   .     A
C134   O229    1.385   .     S
C134   C250    1.434   .     S
C135   O161    1.308   .     A
C135   C137    1.458   .     S
C135   O159    1.311   .     A
C136   O160    1.311   .     A
C136   C138    1.467   .     S
C136   O162    1.313   .     A
C137   C141    1.412   .     A
C137   C143    1.400   .     A
C138   C142    1.411   .     A
C138   C144    1.393   .     A
C139   I185    2.138   .     S
C139   C141    1.408   .     A
C139   C147    1.405   .     A
C140   I186    2.136   .     S
C140   C142    1.403   .     A
C140   C148    1.405   .     A
C141   O177    1.386   .     S
C142   O169    1.379   .     S
C143   I168    2.132   .     S
C143   C145    1.402   .     A
C144   I167    2.123   .     S
C144   C146    1.402   .     A
C145   C147    1.406   .     A
C145   C149    1.415   .     A
C146   C150    1.403   .     A
C146   C148    1.408   .     A
C147   C1185   1.404   .     S
C148   C1186   1.413   1_554 S
C149   C1212   1.409   .     S
C150   C1211   1.409   1_554 S
N153   Zn163   2.055   .     S
N154   Zn164   2.055   .     S
O155   Zn163   2.007   .     S
O156   Zn164   2.007   .     S
O157   Zn164   2.018   .     S
O158   Zn163   2.018   .     S
O159   Zn163   1.991   .     S
O160   Zn164   1.991   .     S
O161   Zn164   1.981   .     S
O162   Zn163   1.981   .     S
O169   C170    1.420   .     S
C170   H171    1.109   .     S
C170   C173    1.540   .     S
C170   H172    1.105   .     S
C173   H176    1.107   .     S
C173   H292    1.109   .     S
C173   H293    1.098   .     S
O177   C178    1.418   .     S
C178   C181    1.525   .     S
C178   H180    1.117   .     S
C178   H179    1.112   .     S
C181   H183    1.105   .     S
C181   H184    1.107   .     S
H182   C299    1.109   .     S
O187   C188    1.431   .     S
C188   H189    1.099   .     S
C188   C191    1.552   .     S
C188   H190    1.106   .     S
C191   H192    1.110   .     S
C191   H193    1.105   .     S
C191   H194    1.104   .     S
O195   C196    1.422   .     S
C196   H198    1.106   .     S
C196   H197    1.115   .     S
C196   C199    1.527   .     S
C199   H202    1.108   .     S
C199   H200    1.111   .     S
C199   H201    1.108   .     S
O203   C204    1.406   .     S
C204   H206    1.101   .     S
C204   H205    1.112   .     S
C204   C207    1.514   .     S
C207   H210    1.105   .     S
C207   H208    1.105   .     S
C207   H327    1.106   .     S
O211   C212    1.410   .     S
C212   H213    1.111   .     S
C212   H214    1.111   .     S
C212   C215    1.517   .     S
C215   H216    1.103   .     S
C215   H217    1.107   .     S
C215   H218    1.109   .     S
O221   C222    1.417   .     S
C222   H223    1.110   .     S
C222   H224    1.104   .     S
C222   C225    1.533   .     S
C225   H228    1.109   .     S
C225   H226    1.110   .     S
C225   H227    1.110   .     S
O229   C230    1.414   .     S
C230   H232    1.112   .     S
C230   H231    1.101   .     S
C230   C233    1.529   .     S
C233   H234    1.108   .     S
C233   H235    1.111   .     S
C233   H236    1.104   .     S
C237   O273    1.298   .     A
C237   C248    1.441   .     S
C237   O275    1.313   .     A
C238   C247    1.431   .     S
C238   O274    1.301   .     A
C238   O276    1.306   .     A
C239   O305    1.395   .     S
C239   C241    1.407   .     A
C239   C268    1.419   .     A
C240   C242    1.413   .     A
C240   O313    1.384   .     S
C240   C267    1.412   .     A
C241   I283    2.127   .     S
C241   C1327   1.404   1_554 S
C242   I284    2.136   .     S
C242   C1328   1.413   .     S
C243   H269    1.067   .     S
C243   C248    1.395   .     A
C243   C599    1.390   .     S
C244   H270    1.078   .     S
C244   C247    1.388   .     A
C244   C954    1.373   1_545 S
C245   O321    1.394   .     S
C245   C247    1.401   .     A
C245   C951    1.390   1_545 S
C246   O329    1.382   .     S
C246   C248    1.408   .     A
C246   C598    1.373   .     S
C249   N272    1.372   .     A
C249   I337    2.109   .     S
C249   C15     1.439   1_655 S
C250   I338    2.119   .     S
C250   N271    1.372   .     A
C251   N271    1.382   .     A
C251   O339    1.387   .     S
C252   N272    1.383   .     A
C252   O347    1.385   .     S
C252   C14     1.434   1_655 S
C253   O279    1.308   .     A
C253   C255    1.458   .     S
C253   O277    1.311   .     A
C254   O278    1.311   .     A
C254   C256    1.467   .     S
C254   O280    1.313   .     A
C255   C259    1.412   .     A
C255   C261    1.400   .     A
C256   C260    1.411   .     A
C256   C262    1.393   .     A
C257   I303    2.138   .     S
C257   C259    1.408   .     A
C257   C265    1.405   .     A
C258   I304    2.136   .     S
C258   C260    1.403   .     A
C258   C266    1.405   .     A
C259   O295    1.386   .     S
C260   O287    1.379   .     S
C261   I286    2.132   .     S
C261   C263    1.402   .     A
C262   I285    2.123   .     S
C262   C264    1.402   .     A
C263   C265    1.406   .     A
C263   C267    1.415   .     A
C264   C268    1.403   .     A
C264   C266    1.408   .     A
C265   C1303   1.404   .     S
C266   C1304   1.413   1_554 S
C267   C1330   1.409   .     S
C268   C1329   1.409   1_554 S
N271   Zn281   2.055   .     S
N272   Zn282   2.055   .     S
O273   Zn281   2.007   .     S
O274   Zn282   2.007   .     S
O275   Zn282   2.018   .     S
O276   Zn281   2.018   .     S
O277   Zn281   1.991   .     S
O278   Zn282   1.991   .     S
O279   Zn282   1.981   .     S
O280   Zn281   1.981   .     S
O287   C288    1.420   .     S
C288   H289    1.109   .     S
C288   C291    1.540   .     S
C288   H290    1.105   .     S
C291   H294    1.107   .     S
C291   H56     1.109   1_655 S
C291   H57     1.098   1_655 S
O295   C296    1.418   .     S
C296   C299    1.525   .     S
C296   H298    1.117   .     S
C296   H297    1.112   .     S
C299   H301    1.105   .     S
C299   H302    1.107   .     S
H300   C63     1.109   1_655 S
O305   C306    1.431   .     S
C306   H307    1.099   .     S
C306   C309    1.552   .     S
C306   H308    1.106   .     S
C309   H310    1.110   .     S
C309   H311    1.105   .     S
C309   H312    1.104   .     S
O313   C314    1.422   .     S
C314   H316    1.106   .     S
C314   H315    1.115   .     S
C314   C317    1.527   .     S
C317   H320    1.108   .     S
C317   H318    1.111   .     S
C317   H319    1.108   .     S
O321   C322    1.406   .     S
C322   H324    1.101   .     S
C322   H323    1.112   .     S
C322   C325    1.514   .     S
C325   H328    1.105   .     S
C325   H326    1.105   .     S
C325   H91     1.106   1_655 S
O329   C330    1.410   .     S
C330   H331    1.111   .     S
C330   H332    1.111   .     S
C330   C333    1.517   .     S
C333   H334    1.103   .     S
C333   H335    1.107   .     S
C333   H336    1.109   .     S
O339   C340    1.417   .     S
C340   H341    1.110   .     S
C340   H342    1.104   .     S
C340   C343    1.533   .     S
C343   H346    1.109   .     S
C343   H344    1.110   .     S
C343   H345    1.110   .     S
O347   C348    1.414   .     S
C348   H350    1.112   .     S
C348   H349    1.101   .     S
C348   C351    1.529   .     S
C351   H352    1.108   .     S
C351   H353    1.111   .     S
C351   H354    1.104   .     S
C355   O391    1.298   .     A
C355   C366    1.441   .     S
C355   O393    1.313   .     A
C356   C365    1.431   .     S
C356   O392    1.301   .     A
C356   O394    1.306   .     A
C357   O423    1.395   .     S
C357   C359    1.407   .     A
C357   C386    1.419   .     A
C358   C360    1.413   .     A
C358   O431    1.384   .     S
C358   C385    1.412   .     A
C359   I401    2.127   .     S
C359   C1445   1.404   1_554 S
C360   I402    2.136   .     S
C360   C1446   1.413   .     S
C361   H387    1.067   .     S
C361   C366    1.395   .     A
C361   C717    1.390   .     S
C362   H388    1.078   .     S
C362   C365    1.388   .     A
C363   O439    1.394   .     S
C363   C365    1.401   .     A
C364   O447    1.382   .     S
C364   C366    1.408   .     A
C364   C716    1.373   .     S
C367   N390    1.372   .     A
C367   I455    2.109   .     S
C367   C487    1.439   .     S
C368   I456    2.119   .     S
C368   N389    1.372   .     A
C368   C606    1.434   1_455 S
C369   N389    1.382   .     A
C369   O457    1.387   .     S
C369   C603    1.439   1_455 S
C370   N390    1.383   .     A
C370   O465    1.385   .     S
C370   C486    1.434   .     S
C371   O397    1.308   .     A
C371   C373    1.458   .     S
C371   O395    1.311   .     A
C372   O396    1.311   .     A
C372   C374    1.467   .     S
C372   O398    1.313   .     A
C373   C377    1.412   .     A
C373   C379    1.400   .     A
C374   C378    1.411   .     A
C374   C380    1.393   .     A
C375   I421    2.138   .     S
C375   C377    1.408   .     A
C375   C383    1.405   .     A
C376   I422    2.136   .     S
C376   C378    1.403   .     A
C376   C384    1.405   .     A
C377   O413    1.386   .     S
C378   O405    1.379   .     S
C379   I404    2.132   .     S
C379   C381    1.402   .     A
C380   I403    2.123   .     S
C380   C382    1.402   .     A
C381   C383    1.406   .     A
C381   C385    1.415   .     A
C382   C386    1.403   .     A
C382   C384    1.408   .     A
C383   C1421   1.404   .     S
C384   C1422   1.413   1_554 S
C385   C1448   1.409   .     S
C386   C1447   1.409   1_554 S
N389   Zn399   2.055   .     S
N390   Zn400   2.055   .     S
O391   Zn399   2.007   .     S
O392   Zn400   2.007   .     S
O393   Zn400   2.018   .     S
O394   Zn399   2.018   .     S
O395   Zn399   1.991   .     S
O396   Zn400   1.991   .     S
O397   Zn400   1.981   .     S
O398   Zn399   1.981   .     S
O405   C406    1.420   .     S
C406   H407    1.109   .     S
C406   C409    1.540   .     S
C406   H408    1.105   .     S
C409   H412    1.107   .     S
C409   H528    1.109   .     S
C409   H529    1.098   .     S
H410   C645    1.109   1_455 S
H411   C645    1.098   1_455 S
O413   C414    1.418   .     S
C414   C417    1.525   .     S
C414   H416    1.117   .     S
C414   H415    1.112   .     S
C417   H419    1.105   .     S
C417   H420    1.107   .     S
C417   H654    1.109   1_455 S
H418   C535    1.109   .     S
O423   C424    1.431   .     S
C424   H425    1.099   .     S
C424   C427    1.552   .     S
C424   H426    1.106   .     S
C427   H428    1.110   .     S
C427   H429    1.105   .     S
C427   H430    1.104   .     S
O431   C432    1.422   .     S
C432   H434    1.106   .     S
C432   H433    1.115   .     S
C432   C435    1.527   .     S
C435   H438    1.108   .     S
C435   H436    1.111   .     S
C435   H437    1.108   .     S
O439   C440    1.406   .     S
C440   H442    1.101   .     S
C440   H441    1.112   .     S
C440   C443    1.514   .     S
C443   H446    1.105   .     S
C443   H444    1.105   .     S
C443   H563    1.106   .     S
H445   C679    1.106   1_455 S
O447   C448    1.410   .     S
C448   H449    1.111   .     S
C448   H450    1.111   .     S
C448   C451    1.517   .     S
C451   H452    1.103   .     S
C451   H453    1.107   .     S
C451   H454    1.109   .     S
O457   C458    1.417   .     S
C458   H459    1.110   .     S
C458   H460    1.104   .     S
C458   C461    1.533   .     S
C461   H464    1.109   .     S
C461   H462    1.110   .     S
C461   H463    1.110   .     S
O465   C466    1.414   .     S
C466   H468    1.112   .     S
C466   H467    1.101   .     S
C466   C469    1.529   .     S
C469   H470    1.108   .     S
C469   H471    1.111   .     S
C469   H472    1.104   .     S
C473   O509    1.298   .     A
C473   C484    1.441   .     S
C473   O511    1.313   .     A
C474   C483    1.431   .     S
C474   O510    1.301   .     A
C474   O512    1.306   .     A
C475   O541    1.395   .     S
C475   C477    1.407   .     A
C475   C504    1.419   .     A
C476   C478    1.413   .     A
C476   O549    1.384   .     S
C476   C503    1.412   .     A
C477   I519    2.127   .     S
C477   C1563   1.404   1_554 S
C478   I520    2.136   .     S
C478   C1564   1.413   .     S
C479   H505    1.067   .     S
C479   C484    1.395   .     A
C479   C835    1.390   .     S
C480   H506    1.078   .     S
C480   C483    1.388   .     A
C481   O557    1.394   .     S
C481   C483    1.401   .     A
C482   O565    1.382   .     S
C482   C484    1.408   .     A
C482   C834    1.373   .     S
C485   N508    1.372   .     A
C485   I573    2.109   .     S
C485   C605    1.439   .     S
C486   I574    2.119   .     S
C486   N507    1.372   .     A
C487   N507    1.382   .     A
C487   O575    1.387   .     S
C488   N508    1.383   .     A
C488   O583    1.385   .     S
C488   C604    1.434   .     S
C489   O515    1.308   .     A
C489   C491    1.458   .     S
C489   O513    1.311   .     A
C490   O514    1.311   .     A
C490   C492    1.467   .     S
C490   O516    1.313   .     A
C491   C495    1.412   .     A
C491   C497    1.400   .     A
C492   C496    1.411   .     A
C492   C498    1.393   .     A
C493   I539    2.138   .     S
C493   C495    1.408   .     A
C493   C501    1.405   .     A
C494   I540    2.136   .     S
C494   C496    1.403   .     A
C494   C502    1.405   .     A
C495   O531    1.386   .     S
C496   O523    1.379   .     S
C497   I522    2.132   .     S
C497   C499    1.402   .     A
C498   I521    2.123   .     S
C498   C500    1.402   .     A
C499   C501    1.406   .     A
C499   C503    1.415   .     A
C500   C504    1.403   .     A
C500   C502    1.408   .     A
C501   C1539   1.404   .     S
C502   C1540   1.413   1_554 S
C503   C1566   1.409   .     S
C504   C1565   1.409   1_554 S
N507   Zn517   2.055   .     S
N508   Zn518   2.055   .     S
O509   Zn517   2.007   .     S
O510   Zn518   2.007   .     S
O511   Zn518   2.018   .     S
O512   Zn517   2.018   .     S
O513   Zn517   1.991   .     S
O514   Zn518   1.991   .     S
O515   Zn518   1.981   .     S
O516   Zn517   1.981   .     S
O523   C524    1.420   .     S
C524   H525    1.109   .     S
C524   C527    1.540   .     S
C524   H526    1.105   .     S
C527   H530    1.107   .     S
C527   H646    1.109   .     S
C527   H647    1.098   .     S
O531   C532    1.418   .     S
C532   C535    1.525   .     S
C532   H534    1.117   .     S
C532   H533    1.112   .     S
C535   H537    1.105   .     S
C535   H538    1.107   .     S
H536   C653    1.109   .     S
O541   C542    1.431   .     S
C542   H543    1.099   .     S
C542   C545    1.552   .     S
C542   H544    1.106   .     S
C545   H546    1.110   .     S
C545   H547    1.105   .     S
C545   H548    1.104   .     S
O549   C550    1.422   .     S
C550   H552    1.106   .     S
C550   H551    1.115   .     S
C550   C553    1.527   .     S
C553   H556    1.108   .     S
C553   H554    1.111   .     S
C553   H555    1.108   .     S
O557   C558    1.406   .     S
C558   H560    1.101   .     S
C558   H559    1.112   .     S
C558   C561    1.514   .     S
C561   H564    1.105   .     S
C561   H562    1.105   .     S
C561   H681    1.106   .     S
O565   C566    1.410   .     S
C566   H567    1.111   .     S
C566   H568    1.111   .     S
C566   C569    1.517   .     S
C569   H570    1.103   .     S
C569   H571    1.107   .     S
C569   H572    1.109   .     S
O575   C576    1.417   .     S
C576   H577    1.110   .     S
C576   H578    1.104   .     S
C576   C579    1.533   .     S
C579   H582    1.109   .     S
C579   H580    1.110   .     S
C579   H581    1.110   .     S
O583   C584    1.414   .     S
C584   H586    1.112   .     S
C584   H585    1.101   .     S
C584   C587    1.529   .     S
C587   H588    1.108   .     S
C587   H589    1.111   .     S
C587   H590    1.104   .     S
C591   O627    1.298   .     A
C591   C602    1.441   .     S
C591   O629    1.313   .     A
C592   C601    1.431   .     S
C592   O628    1.301   .     A
C592   O630    1.306   .     A
C593   O659    1.395   .     S
C593   C595    1.407   .     A
C593   C622    1.419   .     A
C594   C596    1.413   .     A
C594   O667    1.384   .     S
C594   C621    1.412   .     A
C595   I637    2.127   .     S
C595   C1681   1.404   1_554 S
C596   I638    2.136   .     S
C596   C1682   1.413   .     S
C597   H623    1.067   .     S
C597   C602    1.395   .     A
C597   C953    1.390   .     S
C598   H624    1.078   .     S
C598   C601    1.388   .     A
C599   O675    1.394   .     S
C599   C601    1.401   .     A
C600   O683    1.382   .     S
C600   C602    1.408   .     A
C600   C952    1.373   .     S
C603   N626    1.372   .     A
C603   I691    2.109   .     S
C603   C369    1.439   1_655 S
C604   I692    2.119   .     S
C604   N625    1.372   .     A
C605   N625    1.382   .     A
C605   O693    1.387   .     S
C606   N626    1.383   .     A
C606   O701    1.385   .     S
C606   C368    1.434   1_655 S
C607   O633    1.308   .     A
C607   C609    1.458   .     S
C607   O631    1.311   .     A
C608   O632    1.311   .     A
C608   C610    1.467   .     S
C608   O634    1.313   .     A
C609   C613    1.412   .     A
C609   C615    1.400   .     A
C610   C614    1.411   .     A
C610   C616    1.393   .     A
C611   I657    2.138   .     S
C611   C613    1.408   .     A
C611   C619    1.405   .     A
C612   I658    2.136   .     S
C612   C614    1.403   .     A
C612   C620    1.405   .     A
C613   O649    1.386   .     S
C614   O641    1.379   .     S
C615   I640    2.132   .     S
C615   C617    1.402   .     A
C616   I639    2.123   .     S
C616   C618    1.402   .     A
C617   C619    1.406   .     A
C617   C621    1.415   .     A
C618   C622    1.403   .     A
C618   C620    1.408   .     A
C619   C1657   1.404   .     S
C620   C1658   1.413   1_554 S
C621   C1684   1.409   .     S
C622   C1683   1.409   1_554 S
N625   Zn635   2.055   .     S
N626   Zn636   2.055   .     S
O627   Zn635   2.007   .     S
O628   Zn636   2.007   .     S
O629   Zn636   2.018   .     S
O630   Zn635   2.018   .     S
O631   Zn635   1.991   .     S
O632   Zn636   1.991   .     S
O633   Zn636   1.981   .     S
O634   Zn635   1.981   .     S
O641   C642    1.420   .     S
C642   H643    1.109   .     S
C642   C645    1.540   .     S
C642   H644    1.105   .     S
C645   H648    1.107   .     S
C645   H410    1.109   1_655 S
C645   H411    1.098   1_655 S
O649   C650    1.418   .     S
C650   C653    1.525   .     S
C650   H652    1.117   .     S
C650   H651    1.112   .     S
C653   H655    1.105   .     S
C653   H656    1.107   .     S
H654   C417    1.109   1_655 S
O659   C660    1.431   .     S
C660   H661    1.099   .     S
C660   C663    1.552   .     S
C660   H662    1.106   .     S
C663   H664    1.110   .     S
C663   H665    1.105   .     S
C663   H666    1.104   .     S
O667   C668    1.422   .     S
C668   H670    1.106   .     S
C668   H669    1.115   .     S
C668   C671    1.527   .     S
C671   H674    1.108   .     S
C671   H672    1.111   .     S
C671   H673    1.108   .     S
O675   C676    1.406   .     S
C676   H678    1.101   .     S
C676   H677    1.112   .     S
C676   C679    1.514   .     S
C679   H682    1.105   .     S
C679   H680    1.105   .     S
C679   H445    1.106   1_655 S
O683   C684    1.410   .     S
C684   H685    1.111   .     S
C684   H686    1.111   .     S
C684   C687    1.517   .     S
C687   H688    1.103   .     S
C687   H689    1.107   .     S
C687   H690    1.109   .     S
O693   C694    1.417   .     S
C694   H695    1.110   .     S
C694   H696    1.104   .     S
C694   C697    1.533   .     S
C697   H700    1.109   .     S
C697   H698    1.110   .     S
C697   H699    1.110   .     S
O701   C702    1.414   .     S
C702   H704    1.112   .     S
C702   H703    1.101   .     S
C702   C705    1.529   .     S
C705   H706    1.108   .     S
C705   H707    1.111   .     S
C705   H708    1.104   .     S
C709   O745    1.298   .     A
C709   C720    1.441   .     S
C709   O747    1.313   .     A
C710   C719    1.431   .     S
C710   O746    1.301   .     A
C710   O748    1.306   .     A
C711   O777    1.395   .     S
C711   C713    1.407   .     A
C711   C740    1.419   .     A
C712   C714    1.413   .     A
C712   O785    1.384   .     S
C712   C739    1.412   .     A
C713   I755    2.127   .     S
C713   C1799   1.404   1_554 S
C714   I756    2.136   .     S
C714   C1800   1.413   .     S
C715   H741    1.067   .     S
C715   C720    1.395   .     A
C715   C9      1.390   1_565 S
C716   H742    1.078   .     S
C716   C719    1.388   .     A
C717   O793    1.394   .     S
C717   C719    1.401   .     A
C718   O801    1.382   .     S
C718   C720    1.408   .     A
C718   C8      1.373   1_565 S
C721   N744    1.372   .     A
C721   I809    2.109   .     S
C721   C841    1.439   .     S
C722   I810    2.119   .     S
C722   N743    1.372   .     A
C722   C960    1.434   1_455 S
C723   N743    1.382   .     A
C723   O811    1.387   .     S
C723   C957    1.439   1_455 S
C724   N744    1.383   .     A
C724   O819    1.385   .     S
C724   C840    1.434   .     S
C725   O751    1.308   .     A
C725   C727    1.458   .     S
C725   O749    1.311   .     A
C726   O750    1.311   .     A
C726   C728    1.467   .     S
C726   O752    1.313   .     A
C727   C731    1.412   .     A
C727   C733    1.400   .     A
C728   C732    1.411   .     A
C728   C734    1.393   .     A
C729   I775    2.138   .     S
C729   C731    1.408   .     A
C729   C737    1.405   .     A
C730   I776    2.136   .     S
C730   C732    1.403   .     A
C730   C738    1.405   .     A
C731   O767    1.386   .     S
C732   O759    1.379   .     S
C733   I758    2.132   .     S
C733   C735    1.402   .     A
C734   I757    2.123   .     S
C734   C736    1.402   .     A
C735   C737    1.406   .     A
C735   C739    1.415   .     A
C736   C740    1.403   .     A
C736   C738    1.408   .     A
C737   C1775   1.404   .     S
C738   C1776   1.413   1_554 S
C739   C1802   1.409   .     S
C740   C1801   1.409   1_554 S
N743   Zn753   2.055   .     S
N744   Zn754   2.055   .     S
O745   Zn753   2.007   .     S
O746   Zn754   2.007   .     S
O747   Zn754   2.018   .     S
O748   Zn753   2.018   .     S
O749   Zn753   1.991   .     S
O750   Zn754   1.991   .     S
O751   Zn754   1.981   .     S
O752   Zn753   1.981   .     S
O759   C760    1.420   .     S
C760   H761    1.109   .     S
C760   C763    1.540   .     S
C760   H762    1.105   .     S
C763   H766    1.107   .     S
C763   H882    1.109   .     S
C763   H883    1.098   .     S
H764   C999    1.109   1_455 S
H765   C999    1.098   1_455 S
O767   C768    1.418   .     S
C768   C771    1.525   .     S
C768   H770    1.117   .     S
C768   H769    1.112   .     S
C771   H773    1.105   .     S
C771   H774    1.107   .     S
C771   H1008   1.109   1_455 S
H772   C889    1.109   .     S
O777   C778    1.431   .     S
C778   H779    1.099   .     S
C778   C781    1.552   .     S
C778   H780    1.106   .     S
C781   H782    1.110   .     S
C781   H783    1.105   .     S
C781   H784    1.104   .     S
O785   C786    1.422   .     S
C786   H788    1.106   .     S
C786   H787    1.115   .     S
C786   C789    1.527   .     S
C789   H792    1.108   .     S
C789   H790    1.111   .     S
C789   H791    1.108   .     S
O793   C794    1.406   .     S
C794   H796    1.101   .     S
C794   H795    1.112   .     S
C794   C797    1.514   .     S
C797   H800    1.105   .     S
C797   H798    1.105   .     S
C797   H917    1.106   .     S
H799   C1033   1.106   1_455 S
O801   C802    1.410   .     S
C802   H803    1.111   .     S
C802   H804    1.111   .     S
C802   C805    1.517   .     S
C805   H806    1.103   .     S
C805   H807    1.107   .     S
C805   H808    1.109   .     S
O811   C812    1.417   .     S
C812   H813    1.110   .     S
C812   H814    1.104   .     S
C812   C815    1.533   .     S
C815   H818    1.109   .     S
C815   H816    1.110   .     S
C815   H817    1.110   .     S
O819   C820    1.414   .     S
C820   H822    1.112   .     S
C820   H821    1.101   .     S
C820   C823    1.529   .     S
C823   H824    1.108   .     S
C823   H825    1.111   .     S
C823   H826    1.104   .     S
C827   O863    1.298   .     A
C827   C838    1.441   .     S
C827   O865    1.313   .     A
C828   C837    1.431   .     S
C828   O864    1.301   .     A
C828   O866    1.306   .     A
C829   O895    1.395   .     S
C829   C831    1.407   .     A
C829   C858    1.419   .     A
C830   C832    1.413   .     A
C830   O903    1.384   .     S
C830   C857    1.412   .     A
C831   I873    2.127   .     S
C831   C1917   1.404   1_554 S
C832   I874    2.136   .     S
C832   C1918   1.413   .     S
C833   H859    1.067   .     S
C833   C838    1.395   .     A
C833   C127    1.390   1_565 S
C834   H860    1.078   .     S
C834   C837    1.388   .     A
C835   O911    1.394   .     S
C835   C837    1.401   .     A
C836   O919    1.382   .     S
C836   C838    1.408   .     A
C836   C126    1.373   1_565 S
C839   N862    1.372   .     A
C839   I927    2.109   .     S
C839   C959    1.439   .     S
C840   I928    2.119   .     S
C840   N861    1.372   .     A
C841   N861    1.382   .     A
C841   O929    1.387   .     S
C842   N862    1.383   .     A
C842   O937    1.385   .     S
C842   C958    1.434   .     S
C843   O869    1.308   .     A
C843   C845    1.458   .     S
C843   O867    1.311   .     A
C844   O868    1.311   .     A
C844   C846    1.467   .     S
C844   O870    1.313   .     A
C845   C849    1.412   .     A
C845   C851    1.400   .     A
C846   C850    1.411   .     A
C846   C852    1.393   .     A
C847   I893    2.138   .     S
C847   C849    1.408   .     A
C847   C855    1.405   .     A
C848   I894    2.136   .     S
C848   C850    1.403   .     A
C848   C856    1.405   .     A
C849   O885    1.386   .     S
C850   O877    1.379   .     S
C851   I876    2.132   .     S
C851   C853    1.402   .     A
C852   I875    2.123   .     S
C852   C854    1.402   .     A
C853   C855    1.406   .     A
C853   C857    1.415   .     A
C854   C858    1.403   .     A
C854   C856    1.408   .     A
C855   C1893   1.404   .     S
C856   C1894   1.413   1_554 S
C857   C1920   1.409   .     S
C858   C1919   1.409   1_554 S
N861   Zn871   2.055   .     S
N862   Zn872   2.055   .     S
O863   Zn871   2.007   .     S
O864   Zn872   2.007   .     S
O865   Zn872   2.018   .     S
O866   Zn871   2.018   .     S
O867   Zn871   1.991   .     S
O868   Zn872   1.991   .     S
O869   Zn872   1.981   .     S
O870   Zn871   1.981   .     S
O877   C878    1.420   .     S
C878   H879    1.109   .     S
C878   C881    1.540   .     S
C878   H880    1.105   .     S
C881   H884    1.107   .     S
C881   H1000   1.109   .     S
C881   H1001   1.098   .     S
O885   C886    1.418   .     S
C886   C889    1.525   .     S
C886   H888    1.117   .     S
C886   H887    1.112   .     S
C889   H891    1.105   .     S
C889   H892    1.107   .     S
H890   C1007   1.109   .     S
O895   C896    1.431   .     S
C896   H897    1.099   .     S
C896   C899    1.552   .     S
C896   H898    1.106   .     S
C899   H900    1.110   .     S
C899   H901    1.105   .     S
C899   H902    1.104   .     S
O903   C904    1.422   .     S
C904   H906    1.106   .     S
C904   H905    1.115   .     S
C904   C907    1.527   .     S
C907   H910    1.108   .     S
C907   H908    1.111   .     S
C907   H909    1.108   .     S
O911   C912    1.406   .     S
C912   H914    1.101   .     S
C912   H913    1.112   .     S
C912   C915    1.514   .     S
C915   H918    1.105   .     S
C915   H916    1.105   .     S
C915   H1035   1.106   .     S
O919   C920    1.410   .     S
C920   H921    1.111   .     S
C920   H922    1.111   .     S
C920   C923    1.517   .     S
C923   H924    1.103   .     S
C923   H925    1.107   .     S
C923   H926    1.109   .     S
O929   C930    1.417   .     S
C930   H931    1.110   .     S
C930   H932    1.104   .     S
C930   C933    1.533   .     S
C933   H936    1.109   .     S
C933   H934    1.110   .     S
C933   H935    1.110   .     S
O937   C938    1.414   .     S
C938   H940    1.112   .     S
C938   H939    1.101   .     S
C938   C941    1.529   .     S
C941   H942    1.108   .     S
C941   H943    1.111   .     S
C941   H944    1.104   .     S
C945   O981    1.298   .     A
C945   C956    1.441   .     S
C945   O983    1.313   .     A
C946   C955    1.431   .     S
C946   O982    1.301   .     A
C946   O984    1.306   .     A
C947   O1013   1.395   .     S
C947   C949    1.407   .     A
C947   C976    1.419   .     A
C948   C950    1.413   .     A
C948   O1021   1.384   .     S
C948   C975    1.412   .     A
C949   I991    2.127   .     S
C949   C2035   1.404   1_554 S
C950   I992    2.136   .     S
C950   C2036   1.413   .     S
C951   H977    1.067   .     S
C951   C956    1.395   .     A
C951   C245    1.390   1_565 S
C952   H978    1.078   .     S
C952   C955    1.388   .     A
C953   O1029   1.394   .     S
C953   C955    1.401   .     A
C954   O1037   1.382   .     S
C954   C956    1.408   .     A
C954   C244    1.373   1_565 S
C957   N980    1.372   .     A
C957   I1045   2.109   .     S
C957   C723    1.439   1_655 S
C958   I1046   2.119   .     S
C958   N979    1.372   .     A
C959   N979    1.382   .     A
C959   O1047   1.387   .     S
C960   N980    1.383   .     A
C960   O1055   1.385   .     S
C960   C722    1.434   1_655 S
C961   O987    1.308   .     A
C961   C963    1.458   .     S
C961   O985    1.311   .     A
C962   O986    1.311   .     A
C962   C964    1.467   .     S
C962   O988    1.313   .     A
C963   C967    1.412   .     A
C963   C969    1.400   .     A
C964   C968    1.411   .     A
C964   C970    1.393   .     A
C965   I1011   2.138   .     S
C965   C967    1.408   .     A
C965   C973    1.405   .     A
C966   I1012   2.136   .     S
C966   C968    1.403   .     A
C966   C974    1.405   .     A
C967   O1003   1.386   .     S
C968   O995    1.379   .     S
C969   I994    2.132   .     S
C969   C971    1.402   .     A
C970   I993    2.123   .     S
C970   C972    1.402   .     A
C971   C973    1.406   .     A
C971   C975    1.415   .     A
C972   C976    1.403   .     A
C972   C974    1.408   .     A
C973   C2011   1.404   .     S
C974   C2012   1.413   1_554 S
C975   C2038   1.409   .     S
C976   C2037   1.409   1_554 S
N979   Zn989   2.055   .     S
N980   Zn990   2.055   .     S
O981   Zn989   2.007   .     S
O982   Zn990   2.007   .     S
O983   Zn990   2.018   .     S
O984   Zn989   2.018   .     S
O985   Zn989   1.991   .     S
O986   Zn990   1.991   .     S
O987   Zn990   1.981   .     S
O988   Zn989   1.981   .     S
O995   C996    1.420   .     S
C996   H997    1.109   .     S
C996   C999    1.540   .     S
C996   H998    1.105   .     S
C999   H1002   1.107   .     S
C999   H764    1.109   1_655 S
C999   H765    1.098   1_655 S
O1003  C1004   1.418   .     S
C1004  C1007   1.525   .     S
C1004  H1006   1.117   .     S
C1004  H1005   1.112   .     S
C1007  H1009   1.105   .     S
C1007  H1010   1.107   .     S
H1008  C771    1.109   1_655 S
O1013  C1014   1.431   .     S
C1014  H1015   1.099   .     S
C1014  C1017   1.552   .     S
C1014  H1016   1.106   .     S
C1017  H1018   1.110   .     S
C1017  H1019   1.105   .     S
C1017  H1020   1.104   .     S
O1021  C1022   1.422   .     S
C1022  H1024   1.106   .     S
C1022  H1023   1.115   .     S
C1022  C1025   1.527   .     S
C1025  H1028   1.108   .     S
C1025  H1026   1.111   .     S
C1025  H1027   1.108   .     S
O1029  C1030   1.406   .     S
C1030  H1032   1.101   .     S
C1030  H1031   1.112   .     S
C1030  C1033   1.514   .     S
C1033  H1036   1.105   .     S
C1033  H1034   1.105   .     S
C1033  H799    1.106   1_655 S
O1037  C1038   1.410   .     S
C1038  H1039   1.111   .     S
C1038  H1040   1.111   .     S
C1038  C1041   1.517   .     S
C1041  H1042   1.103   .     S
C1041  H1043   1.107   .     S
C1041  H1044   1.109   .     S
O1047  C1048   1.417   .     S
C1048  H1049   1.110   .     S
C1048  H1050   1.104   .     S
C1048  C1051   1.533   .     S
C1051  H1054   1.109   .     S
C1051  H1052   1.110   .     S
C1051  H1053   1.110   .     S
O1055  C1056   1.414   .     S
C1056  H1058   1.112   .     S
C1056  H1057   1.101   .     S
C1056  C1059   1.529   .     S
C1059  H1060   1.108   .     S
C1059  H1061   1.111   .     S
C1059  H1062   1.104   .     S
C1063  O1099   1.298   .     A
C1063  C1074   1.441   .     S
C1063  O1101   1.313   .     A
C1064  C1073   1.431   .     S
C1064  O1100   1.301   .     A
C1064  O1102   1.306   .     A
C1065  O1131   1.395   .     S
C1065  C1067   1.407   .     A
C1065  C1094   1.419   .     A
C1066  C1068   1.413   .     A
C1066  O1139   1.384   .     S
C1066  C1093   1.412   .     A
C1067  I1109   2.127   .     S
C1068  I1110   2.136   .     S
C1068  C30     1.413   1_556 S
C1069  H1095   1.067   .     S
C1069  C1074   1.395   .     A
C1069  C1425   1.390   .     S
C1070  H1096   1.078   .     S
C1070  C1073   1.388   .     A
C1070  C1780   1.373   1_545 S
C1071  O1147   1.394   .     S
C1071  C1073   1.401   .     A
C1071  C1777   1.390   1_545 S
C1072  O1155   1.382   .     S
C1072  C1074   1.408   .     A
C1072  C1424   1.373   .     S
C1075  N1098   1.372   .     A
C1075  I1163   2.109   .     S
C1075  C1195   1.439   .     S
C1076  I1164   2.119   .     S
C1076  N1097   1.372   .     A
C1076  C1314   1.434   1_455 S
C1077  N1097   1.382   .     A
C1077  O1165   1.387   .     S
C1077  C1311   1.439   1_455 S
C1078  N1098   1.383   .     A
C1078  O1173   1.385   .     S
C1078  C1194   1.434   .     S
C1079  O1105   1.308   .     A
C1079  C1081   1.458   .     S
C1079  O1103   1.311   .     A
C1080  O1104   1.311   .     A
C1080  C1082   1.467   .     S
C1080  O1106   1.313   .     A
C1081  C1085   1.412   .     A
C1081  C1087   1.400   .     A
C1082  C1086   1.411   .     A
C1082  C1088   1.393   .     A
C1083  I1129   2.138   .     S
C1083  C1085   1.408   .     A
C1083  C1091   1.405   .     A
C1084  I1130   2.136   .     S
C1084  C1086   1.403   .     A
C1084  C1092   1.405   .     A
C1085  O1121   1.386   .     S
C1086  O1113   1.379   .     S
C1087  I1112   2.132   .     S
C1087  C1089   1.402   .     A
C1088  I1111   2.123   .     S
C1088  C1090   1.402   .     A
C1089  C1091   1.406   .     A
C1089  C1093   1.415   .     A
C1090  C1094   1.403   .     A
C1090  C1092   1.408   .     A
C1091  C5      1.404   1_556 S
C1093  C32     1.409   1_556 S
N1097  Zn1107  2.055   .     S
N1098  Zn1108  2.055   .     S
O1099  Zn1107  2.007   .     S
O1100  Zn1108  2.007   .     S
O1101  Zn1108  2.018   .     S
O1102  Zn1107  2.018   .     S
O1103  Zn1107  1.991   .     S
O1104  Zn1108  1.991   .     S
O1105  Zn1108  1.981   .     S
O1106  Zn1107  1.981   .     S
O1113  C1114   1.420   .     S
C1114  H1115   1.109   .     S
C1114  C1117   1.540   .     S
C1114  H1116   1.105   .     S
C1117  H1120   1.107   .     S
C1117  H1236   1.109   .     S
C1117  H1237   1.098   .     S
H1118  C1353   1.109   1_455 S
H1119  C1353   1.098   1_455 S
O1121  C1122   1.418   .     S
C1122  C1125   1.525   .     S
C1122  H1124   1.117   .     S
C1122  H1123   1.112   .     S
C1125  H1127   1.105   .     S
C1125  H1128   1.107   .     S
C1125  H1362   1.109   1_455 S
H1126  C1243   1.109   .     S
O1131  C1132   1.431   .     S
C1132  H1133   1.099   .     S
C1132  C1135   1.552   .     S
C1132  H1134   1.106   .     S
C1135  H1136   1.110   .     S
C1135  H1137   1.105   .     S
C1135  H1138   1.104   .     S
O1139  C1140   1.422   .     S
C1140  H1142   1.106   .     S
C1140  H1141   1.115   .     S
C1140  C1143   1.527   .     S
C1143  H1146   1.108   .     S
C1143  H1144   1.111   .     S
C1143  H1145   1.108   .     S
O1147  C1148   1.406   .     S
C1148  H1150   1.101   .     S
C1148  H1149   1.112   .     S
C1148  C1151   1.514   .     S
C1151  H1154   1.105   .     S
C1151  H1152   1.105   .     S
C1151  H1271   1.106   .     S
H1153  C1387   1.106   1_455 S
O1155  C1156   1.410   .     S
C1156  H1157   1.111   .     S
C1156  H1158   1.111   .     S
C1156  C1159   1.517   .     S
C1159  H1160   1.103   .     S
C1159  H1161   1.107   .     S
C1159  H1162   1.109   .     S
O1165  C1166   1.417   .     S
C1166  H1167   1.110   .     S
C1166  H1168   1.104   .     S
C1166  C1169   1.533   .     S
C1169  H1172   1.109   .     S
C1169  H1170   1.110   .     S
C1169  H1171   1.110   .     S
O1173  C1174   1.414   .     S
C1174  H1176   1.112   .     S
C1174  H1175   1.101   .     S
C1174  C1177   1.529   .     S
C1177  H1178   1.108   .     S
C1177  H1179   1.111   .     S
C1177  H1180   1.104   .     S
C1181  O1217   1.298   .     A
C1181  C1192   1.441   .     S
C1181  O1219   1.313   .     A
C1182  C1191   1.431   .     S
C1182  O1218   1.301   .     A
C1182  O1220   1.306   .     A
C1183  O1249   1.395   .     S
C1183  C1185   1.407   .     A
C1183  C1212   1.419   .     A
C1184  C1186   1.413   .     A
C1184  O1257   1.384   .     S
C1184  C1211   1.412   .     A
C1185  I1227   2.127   .     S
C1186  I1228   2.136   .     S
C1186  C148    1.413   1_556 S
C1187  H1213   1.067   .     S
C1187  C1192   1.395   .     A
C1187  C1543   1.390   .     S
C1188  H1214   1.078   .     S
C1188  C1191   1.388   .     A
C1188  C1898   1.373   1_545 S
C1189  O1265   1.394   .     S
C1189  C1191   1.401   .     A
C1189  C1895   1.390   1_545 S
C1190  O1273   1.382   .     S
C1190  C1192   1.408   .     A
C1190  C1542   1.373   .     S
C1193  N1216   1.372   .     A
C1193  I1281   2.109   .     S
C1193  C1313   1.439   .     S
C1194  I1282   2.119   .     S
C1194  N1215   1.372   .     A
C1195  N1215   1.382   .     A
C1195  O1283   1.387   .     S
C1196  N1216   1.383   .     A
C1196  O1291   1.385   .     S
C1196  C1312   1.434   .     S
C1197  O1223   1.308   .     A
C1197  C1199   1.458   .     S
C1197  O1221   1.311   .     A
C1198  O1222   1.311   .     A
C1198  C1200   1.467   .     S
C1198  O1224   1.313   .     A
C1199  C1203   1.412   .     A
C1199  C1205   1.400   .     A
C1200  C1204   1.411   .     A
C1200  C1206   1.393   .     A
C1201  I1247   2.138   .     S
C1201  C1203   1.408   .     A
C1201  C1209   1.405   .     A
C1202  I1248   2.136   .     S
C1202  C1204   1.403   .     A
C1202  C1210   1.405   .     A
C1203  O1239   1.386   .     S
C1204  O1231   1.379   .     S
C1205  I1230   2.132   .     S
C1205  C1207   1.402   .     A
C1206  I1229   2.123   .     S
C1206  C1208   1.402   .     A
C1207  C1209   1.406   .     A
C1207  C1211   1.415   .     A
C1208  C1212   1.403   .     A
C1208  C1210   1.408   .     A
C1209  C123    1.404   1_556 S
C1211  C150    1.409   1_556 S
N1215  Zn1225  2.055   .     S
N1216  Zn1226  2.055   .     S
O1217  Zn1225  2.007   .     S
O1218  Zn1226  2.007   .     S
O1219  Zn1226  2.018   .     S
O1220  Zn1225  2.018   .     S
O1221  Zn1225  1.991   .     S
O1222  Zn1226  1.991   .     S
O1223  Zn1226  1.981   .     S
O1224  Zn1225  1.981   .     S
O1231  C1232   1.420   .     S
C1232  H1233   1.109   .     S
C1232  C1235   1.540   .     S
C1232  H1234   1.105   .     S
C1235  H1238   1.107   .     S
C1235  H1354   1.109   .     S
C1235  H1355   1.098   .     S
O1239  C1240   1.418   .     S
C1240  C1243   1.525   .     S
C1240  H1242   1.117   .     S
C1240  H1241   1.112   .     S
C1243  H1245   1.105   .     S
C1243  H1246   1.107   .     S
H1244  C1361   1.109   .     S
O1249  C1250   1.431   .     S
C1250  H1251   1.099   .     S
C1250  C1253   1.552   .     S
C1250  H1252   1.106   .     S
C1253  H1254   1.110   .     S
C1253  H1255   1.105   .     S
C1253  H1256   1.104   .     S
O1257  C1258   1.422   .     S
C1258  H1260   1.106   .     S
C1258  H1259   1.115   .     S
C1258  C1261   1.527   .     S
C1261  H1264   1.108   .     S
C1261  H1262   1.111   .     S
C1261  H1263   1.108   .     S
O1265  C1266   1.406   .     S
C1266  H1268   1.101   .     S
C1266  H1267   1.112   .     S
C1266  C1269   1.514   .     S
C1269  H1272   1.105   .     S
C1269  H1270   1.105   .     S
C1269  H1389   1.106   .     S
O1273  C1274   1.410   .     S
C1274  H1275   1.111   .     S
C1274  H1276   1.111   .     S
C1274  C1277   1.517   .     S
C1277  H1278   1.103   .     S
C1277  H1279   1.107   .     S
C1277  H1280   1.109   .     S
O1283  C1284   1.417   .     S
C1284  H1285   1.110   .     S
C1284  H1286   1.104   .     S
C1284  C1287   1.533   .     S
C1287  H1290   1.109   .     S
C1287  H1288   1.110   .     S
C1287  H1289   1.110   .     S
O1291  C1292   1.414   .     S
C1292  H1294   1.112   .     S
C1292  H1293   1.101   .     S
C1292  C1295   1.529   .     S
C1295  H1296   1.108   .     S
C1295  H1297   1.111   .     S
C1295  H1298   1.104   .     S
C1299  O1335   1.298   .     A
C1299  C1310   1.441   .     S
C1299  O1337   1.313   .     A
C1300  C1309   1.431   .     S
C1300  O1336   1.301   .     A
C1300  O1338   1.306   .     A
C1301  O1367   1.395   .     S
C1301  C1303   1.407   .     A
C1301  C1330   1.419   .     A
C1302  C1304   1.413   .     A
C1302  O1375   1.384   .     S
C1302  C1329   1.412   .     A
C1303  I1345   2.127   .     S
C1304  I1346   2.136   .     S
C1304  C266    1.413   1_556 S
C1305  H1331   1.067   .     S
C1305  C1310   1.395   .     A
C1305  C1661   1.390   .     S
C1306  H1332   1.078   .     S
C1306  C1309   1.388   .     A
C1306  C2016   1.373   1_545 S
C1307  O1383   1.394   .     S
C1307  C1309   1.401   .     A
C1307  C2013   1.390   1_545 S
C1308  O1391   1.382   .     S
C1308  C1310   1.408   .     A
C1308  C1660   1.373   .     S
C1311  N1334   1.372   .     A
C1311  I1399   2.109   .     S
C1311  C1077   1.439   1_655 S
C1312  I1400   2.119   .     S
C1312  N1333   1.372   .     A
C1313  N1333   1.382   .     A
C1313  O1401   1.387   .     S
C1314  N1334   1.383   .     A
C1314  O1409   1.385   .     S
C1314  C1076   1.434   1_655 S
C1315  O1341   1.308   .     A
C1315  C1317   1.458   .     S
C1315  O1339   1.311   .     A
C1316  O1340   1.311   .     A
C1316  C1318   1.467   .     S
C1316  O1342   1.313   .     A
C1317  C1321   1.412   .     A
C1317  C1323   1.400   .     A
C1318  C1322   1.411   .     A
C1318  C1324   1.393   .     A
C1319  I1365   2.138   .     S
C1319  C1321   1.408   .     A
C1319  C1327   1.405   .     A
C1320  I1366   2.136   .     S
C1320  C1322   1.403   .     A
C1320  C1328   1.405   .     A
C1321  O1357   1.386   .     S
C1322  O1349   1.379   .     S
C1323  I1348   2.132   .     S
C1323  C1325   1.402   .     A
C1324  I1347   2.123   .     S
C1324  C1326   1.402   .     A
C1325  C1327   1.406   .     A
C1325  C1329   1.415   .     A
C1326  C1330   1.403   .     A
C1326  C1328   1.408   .     A
C1327  C241    1.404   1_556 S
C1329  C268    1.409   1_556 S
N1333  Zn1343  2.055   .     S
N1334  Zn1344  2.055   .     S
O1335  Zn1343  2.007   .     S
O1336  Zn1344  2.007   .     S
O1337  Zn1344  2.018   .     S
O1338  Zn1343  2.018   .     S
O1339  Zn1343  1.991   .     S
O1340  Zn1344  1.991   .     S
O1341  Zn1344  1.981   .     S
O1342  Zn1343  1.981   .     S
O1349  C1350   1.420   .     S
C1350  H1351   1.109   .     S
C1350  C1353   1.540   .     S
C1350  H1352   1.105   .     S
C1353  H1356   1.107   .     S
C1353  H1118   1.109   1_655 S
C1353  H1119   1.098   1_655 S
O1357  C1358   1.418   .     S
C1358  C1361   1.525   .     S
C1358  H1360   1.117   .     S
C1358  H1359   1.112   .     S
C1361  H1363   1.105   .     S
C1361  H1364   1.107   .     S
H1362  C1125   1.109   1_655 S
O1367  C1368   1.431   .     S
C1368  H1369   1.099   .     S
C1368  C1371   1.552   .     S
C1368  H1370   1.106   .     S
C1371  H1372   1.110   .     S
C1371  H1373   1.105   .     S
C1371  H1374   1.104   .     S
O1375  C1376   1.422   .     S
C1376  H1378   1.106   .     S
C1376  H1377   1.115   .     S
C1376  C1379   1.527   .     S
C1379  H1382   1.108   .     S
C1379  H1380   1.111   .     S
C1379  H1381   1.108   .     S
O1383  C1384   1.406   .     S
C1384  H1386   1.101   .     S
C1384  H1385   1.112   .     S
C1384  C1387   1.514   .     S
C1387  H1390   1.105   .     S
C1387  H1388   1.105   .     S
C1387  H1153   1.106   1_655 S
O1391  C1392   1.410   .     S
C1392  H1393   1.111   .     S
C1392  H1394   1.111   .     S
C1392  C1395   1.517   .     S
C1395  H1396   1.103   .     S
C1395  H1397   1.107   .     S
C1395  H1398   1.109   .     S
O1401  C1402   1.417   .     S
C1402  H1403   1.110   .     S
C1402  H1404   1.104   .     S
C1402  C1405   1.533   .     S
C1405  H1408   1.109   .     S
C1405  H1406   1.110   .     S
C1405  H1407   1.110   .     S
O1409  C1410   1.414   .     S
C1410  H1412   1.112   .     S
C1410  H1411   1.101   .     S
C1410  C1413   1.529   .     S
C1413  H1414   1.108   .     S
C1413  H1415   1.111   .     S
C1413  H1416   1.104   .     S
C1417  O1453   1.298   .     A
C1417  C1428   1.441   .     S
C1417  O1455   1.313   .     A
C1418  C1427   1.431   .     S
C1418  O1454   1.301   .     A
C1418  O1456   1.306   .     A
C1419  O1485   1.395   .     S
C1419  C1421   1.407   .     A
C1419  C1448   1.419   .     A
C1420  C1422   1.413   .     A
C1420  O1493   1.384   .     S
C1420  C1447   1.412   .     A
C1421  I1463   2.127   .     S
C1422  I1464   2.136   .     S
C1422  C384    1.413   1_556 S
C1423  H1449   1.067   .     S
C1423  C1428   1.395   .     A
C1423  C1779   1.390   .     S
C1424  H1450   1.078   .     S
C1424  C1427   1.388   .     A
C1425  O1501   1.394   .     S
C1425  C1427   1.401   .     A
C1426  O1509   1.382   .     S
C1426  C1428   1.408   .     A
C1426  C1778   1.373   .     S
C1429  N1452   1.372   .     A
C1429  I1517   2.109   .     S
C1429  C1549   1.439   .     S
C1430  I1518   2.119   .     S
C1430  N1451   1.372   .     A
C1430  C1668   1.434   1_455 S
C1431  N1451   1.382   .     A
C1431  O1519   1.387   .     S
C1431  C1665   1.439   1_455 S
C1432  N1452   1.383   .     A
C1432  O1527   1.385   .     S
C1432  C1548   1.434   .     S
C1433  O1459   1.308   .     A
C1433  C1435   1.458   .     S
C1433  O1457   1.311   .     A
C1434  O1458   1.311   .     A
C1434  C1436   1.467   .     S
C1434  O1460   1.313   .     A
C1435  C1439   1.412   .     A
C1435  C1441   1.400   .     A
C1436  C1440   1.411   .     A
C1436  C1442   1.393   .     A
C1437  I1483   2.138   .     S
C1437  C1439   1.408   .     A
C1437  C1445   1.405   .     A
C1438  I1484   2.136   .     S
C1438  C1440   1.403   .     A
C1438  C1446   1.405   .     A
C1439  O1475   1.386   .     S
C1440  O1467   1.379   .     S
C1441  I1466   2.132   .     S
C1441  C1443   1.402   .     A
C1442  I1465   2.123   .     S
C1442  C1444   1.402   .     A
C1443  C1445   1.406   .     A
C1443  C1447   1.415   .     A
C1444  C1448   1.403   .     A
C1444  C1446   1.408   .     A
C1445  C359    1.404   1_556 S
C1447  C386    1.409   1_556 S
N1451  Zn1461  2.055   .     S
N1452  Zn1462  2.055   .     S
O1453  Zn1461  2.007   .     S
O1454  Zn1462  2.007   .     S
O1455  Zn1462  2.018   .     S
O1456  Zn1461  2.018   .     S
O1457  Zn1461  1.991   .     S
O1458  Zn1462  1.991   .     S
O1459  Zn1462  1.981   .     S
O1460  Zn1461  1.981   .     S
O1467  C1468   1.420   .     S
C1468  H1469   1.109   .     S
C1468  C1471   1.540   .     S
C1468  H1470   1.105   .     S
C1471  H1474   1.107   .     S
C1471  H1590   1.109   .     S
C1471  H1591   1.098   .     S
H1472  C1707   1.109   1_455 S
H1473  C1707   1.098   1_455 S
O1475  C1476   1.418   .     S
C1476  C1479   1.525   .     S
C1476  H1478   1.117   .     S
C1476  H1477   1.112   .     S
C1479  H1481   1.105   .     S
C1479  H1482   1.107   .     S
C1479  H1716   1.109   1_455 S
H1480  C1597   1.109   .     S
O1485  C1486   1.431   .     S
C1486  H1487   1.099   .     S
C1486  C1489   1.552   .     S
C1486  H1488   1.106   .     S
C1489  H1490   1.110   .     S
C1489  H1491   1.105   .     S
C1489  H1492   1.104   .     S
O1493  C1494   1.422   .     S
C1494  H1496   1.106   .     S
C1494  H1495   1.115   .     S
C1494  C1497   1.527   .     S
C1497  H1500   1.108   .     S
C1497  H1498   1.111   .     S
C1497  H1499   1.108   .     S
O1501  C1502   1.406   .     S
C1502  H1504   1.101   .     S
C1502  H1503   1.112   .     S
C1502  C1505   1.514   .     S
C1505  H1508   1.105   .     S
C1505  H1506   1.105   .     S
C1505  H1625   1.106   .     S
H1507  C1741   1.106   1_455 S
O1509  C1510   1.410   .     S
C1510  H1511   1.111   .     S
C1510  H1512   1.111   .     S
C1510  C1513   1.517   .     S
C1513  H1514   1.103   .     S
C1513  H1515   1.107   .     S
C1513  H1516   1.109   .     S
O1519  C1520   1.417   .     S
C1520  H1521   1.110   .     S
C1520  H1522   1.104   .     S
C1520  C1523   1.533   .     S
C1523  H1526   1.109   .     S
C1523  H1524   1.110   .     S
C1523  H1525   1.110   .     S
O1527  C1528   1.414   .     S
C1528  H1530   1.112   .     S
C1528  H1529   1.101   .     S
C1528  C1531   1.529   .     S
C1531  H1532   1.108   .     S
C1531  H1533   1.111   .     S
C1531  H1534   1.104   .     S
C1535  O1571   1.298   .     A
C1535  C1546   1.441   .     S
C1535  O1573   1.313   .     A
C1536  C1545   1.431   .     S
C1536  O1572   1.301   .     A
C1536  O1574   1.306   .     A
C1537  O1603   1.395   .     S
C1537  C1539   1.407   .     A
C1537  C1566   1.419   .     A
C1538  C1540   1.413   .     A
C1538  O1611   1.384   .     S
C1538  C1565   1.412   .     A
C1539  I1581   2.127   .     S
C1540  I1582   2.136   .     S
C1540  C502    1.413   1_556 S
C1541  H1567   1.067   .     S
C1541  C1546   1.395   .     A
C1541  C1897   1.390   .     S
C1542  H1568   1.078   .     S
C1542  C1545   1.388   .     A
C1543  O1619   1.394   .     S
C1543  C1545   1.401   .     A
C1544  O1627   1.382   .     S
C1544  C1546   1.408   .     A
C1544  C1896   1.373   .     S
C1547  N1570   1.372   .     A
C1547  I1635   2.109   .     S
C1547  C1667   1.439   .     S
C1548  I1636   2.119   .     S
C1548  N1569   1.372   .     A
C1549  N1569   1.382   .     A
C1549  O1637   1.387   .     S
C1550  N1570   1.383   .     A
C1550  O1645   1.385   .     S
C1550  C1666   1.434   .     S
C1551  O1577   1.308   .     A
C1551  C1553   1.458   .     S
C1551  O1575   1.311   .     A
C1552  O1576   1.311   .     A
C1552  C1554   1.467   .     S
C1552  O1578   1.313   .     A
C1553  C1557   1.412   .     A
C1553  C1559   1.400   .     A
C1554  C1558   1.411   .     A
C1554  C1560   1.393   .     A
C1555  I1601   2.138   .     S
C1555  C1557   1.408   .     A
C1555  C1563   1.405   .     A
C1556  I1602   2.136   .     S
C1556  C1558   1.403   .     A
C1556  C1564   1.405   .     A
C1557  O1593   1.386   .     S
C1558  O1585   1.379   .     S
C1559  I1584   2.132   .     S
C1559  C1561   1.402   .     A
C1560  I1583   2.123   .     S
C1560  C1562   1.402   .     A
C1561  C1563   1.406   .     A
C1561  C1565   1.415   .     A
C1562  C1566   1.403   .     A
C1562  C1564   1.408   .     A
C1563  C477    1.404   1_556 S
C1565  C504    1.409   1_556 S
N1569  Zn1579  2.055   .     S
N1570  Zn1580  2.055   .     S
O1571  Zn1579  2.007   .     S
O1572  Zn1580  2.007   .     S
O1573  Zn1580  2.018   .     S
O1574  Zn1579  2.018   .     S
O1575  Zn1579  1.991   .     S
O1576  Zn1580  1.991   .     S
O1577  Zn1580  1.981   .     S
O1578  Zn1579  1.981   .     S
O1585  C1586   1.420   .     S
C1586  H1587   1.109   .     S
C1586  C1589   1.540   .     S
C1586  H1588   1.105   .     S
C1589  H1592   1.107   .     S
C1589  H1708   1.109   .     S
C1589  H1709   1.098   .     S
O1593  C1594   1.418   .     S
C1594  C1597   1.525   .     S
C1594  H1596   1.117   .     S
C1594  H1595   1.112   .     S
C1597  H1599   1.105   .     S
C1597  H1600   1.107   .     S
H1598  C1715   1.109   .     S
O1603  C1604   1.431   .     S
C1604  H1605   1.099   .     S
C1604  C1607   1.552   .     S
C1604  H1606   1.106   .     S
C1607  H1608   1.110   .     S
C1607  H1609   1.105   .     S
C1607  H1610   1.104   .     S
O1611  C1612   1.422   .     S
C1612  H1614   1.106   .     S
C1612  H1613   1.115   .     S
C1612  C1615   1.527   .     S
C1615  H1618   1.108   .     S
C1615  H1616   1.111   .     S
C1615  H1617   1.108   .     S
O1619  C1620   1.406   .     S
C1620  H1622   1.101   .     S
C1620  H1621   1.112   .     S
C1620  C1623   1.514   .     S
C1623  H1626   1.105   .     S
C1623  H1624   1.105   .     S
C1623  H1743   1.106   .     S
O1627  C1628   1.410   .     S
C1628  H1629   1.111   .     S
C1628  H1630   1.111   .     S
C1628  C1631   1.517   .     S
C1631  H1632   1.103   .     S
C1631  H1633   1.107   .     S
C1631  H1634   1.109   .     S
O1637  C1638   1.417   .     S
C1638  H1639   1.110   .     S
C1638  H1640   1.104   .     S
C1638  C1641   1.533   .     S
C1641  H1644   1.109   .     S
C1641  H1642   1.110   .     S
C1641  H1643   1.110   .     S
O1645  C1646   1.414   .     S
C1646  H1648   1.112   .     S
C1646  H1647   1.101   .     S
C1646  C1649   1.529   .     S
C1649  H1650   1.108   .     S
C1649  H1651   1.111   .     S
C1649  H1652   1.104   .     S
C1653  O1689   1.298   .     A
C1653  C1664   1.441   .     S
C1653  O1691   1.313   .     A
C1654  C1663   1.431   .     S
C1654  O1690   1.301   .     A
C1654  O1692   1.306   .     A
C1655  O1721   1.395   .     S
C1655  C1657   1.407   .     A
C1655  C1684   1.419   .     A
C1656  C1658   1.413   .     A
C1656  O1729   1.384   .     S
C1656  C1683   1.412   .     A
C1657  I1699   2.127   .     S
C1658  I1700   2.136   .     S
C1658  C620    1.413   1_556 S
C1659  H1685   1.067   .     S
C1659  C1664   1.395   .     A
C1659  C2015   1.390   .     S
C1660  H1686   1.078   .     S
C1660  C1663   1.388   .     A
C1661  O1737   1.394   .     S
C1661  C1663   1.401   .     A
C1662  O1745   1.382   .     S
C1662  C1664   1.408   .     A
C1662  C2014   1.373   .     S
C1665  N1688   1.372   .     A
C1665  I1753   2.109   .     S
C1665  C1431   1.439   1_655 S
C1666  I1754   2.119   .     S
C1666  N1687   1.372   .     A
C1667  N1687   1.382   .     A
C1667  O1755   1.387   .     S
C1668  N1688   1.383   .     A
C1668  O1763   1.385   .     S
C1668  C1430   1.434   1_655 S
C1669  O1695   1.308   .     A
C1669  C1671   1.458   .     S
C1669  O1693   1.311   .     A
C1670  O1694   1.311   .     A
C1670  C1672   1.467   .     S
C1670  O1696   1.313   .     A
C1671  C1675   1.412   .     A
C1671  C1677   1.400   .     A
C1672  C1676   1.411   .     A
C1672  C1678   1.393   .     A
C1673  I1719   2.138   .     S
C1673  C1675   1.408   .     A
C1673  C1681   1.405   .     A
C1674  I1720   2.136   .     S
C1674  C1676   1.403   .     A
C1674  C1682   1.405   .     A
C1675  O1711   1.386   .     S
C1676  O1703   1.379   .     S
C1677  I1702   2.132   .     S
C1677  C1679   1.402   .     A
C1678  I1701   2.123   .     S
C1678  C1680   1.402   .     A
C1679  C1681   1.406   .     A
C1679  C1683   1.415   .     A
C1680  C1684   1.403   .     A
C1680  C1682   1.408   .     A
C1681  C595    1.404   1_556 S
C1683  C622    1.409   1_556 S
N1687  Zn1697  2.055   .     S
N1688  Zn1698  2.055   .     S
O1689  Zn1697  2.007   .     S
O1690  Zn1698  2.007   .     S
O1691  Zn1698  2.018   .     S
O1692  Zn1697  2.018   .     S
O1693  Zn1697  1.991   .     S
O1694  Zn1698  1.991   .     S
O1695  Zn1698  1.981   .     S
O1696  Zn1697  1.981   .     S
O1703  C1704   1.420   .     S
C1704  H1705   1.109   .     S
C1704  C1707   1.540   .     S
C1704  H1706   1.105   .     S
C1707  H1710   1.107   .     S
C1707  H1472   1.109   1_655 S
C1707  H1473   1.098   1_655 S
O1711  C1712   1.418   .     S
C1712  C1715   1.525   .     S
C1712  H1714   1.117   .     S
C1712  H1713   1.112   .     S
C1715  H1717   1.105   .     S
C1715  H1718   1.107   .     S
H1716  C1479   1.109   1_655 S
O1721  C1722   1.431   .     S
C1722  H1723   1.099   .     S
C1722  C1725   1.552   .     S
C1722  H1724   1.106   .     S
C1725  H1726   1.110   .     S
C1725  H1727   1.105   .     S
C1725  H1728   1.104   .     S
O1729  C1730   1.422   .     S
C1730  H1732   1.106   .     S
C1730  H1731   1.115   .     S
C1730  C1733   1.527   .     S
C1733  H1736   1.108   .     S
C1733  H1734   1.111   .     S
C1733  H1735   1.108   .     S
O1737  C1738   1.406   .     S
C1738  H1740   1.101   .     S
C1738  H1739   1.112   .     S
C1738  C1741   1.514   .     S
C1741  H1744   1.105   .     S
C1741  H1742   1.105   .     S
C1741  H1507   1.106   1_655 S
O1745  C1746   1.410   .     S
C1746  H1747   1.111   .     S
C1746  H1748   1.111   .     S
C1746  C1749   1.517   .     S
C1749  H1750   1.103   .     S
C1749  H1751   1.107   .     S
C1749  H1752   1.109   .     S
O1755  C1756   1.417   .     S
C1756  H1757   1.110   .     S
C1756  H1758   1.104   .     S
C1756  C1759   1.533   .     S
C1759  H1762   1.109   .     S
C1759  H1760   1.110   .     S
C1759  H1761   1.110   .     S
O1763  C1764   1.414   .     S
C1764  H1766   1.112   .     S
C1764  H1765   1.101   .     S
C1764  C1767   1.529   .     S
C1767  H1768   1.108   .     S
C1767  H1769   1.111   .     S
C1767  H1770   1.104   .     S
C1771  O1807   1.298   .     A
C1771  C1782   1.441   .     S
C1771  O1809   1.313   .     A
C1772  C1781   1.431   .     S
C1772  O1808   1.301   .     A
C1772  O1810   1.306   .     A
C1773  O1839   1.395   .     S
C1773  C1775   1.407   .     A
C1773  C1802   1.419   .     A
C1774  C1776   1.413   .     A
C1774  O1847   1.384   .     S
C1774  C1801   1.412   .     A
C1775  I1817   2.127   .     S
C1776  I1818   2.136   .     S
C1776  C738    1.413   1_556 S
C1777  H1803   1.067   .     S
C1777  C1782   1.395   .     A
C1777  C1071   1.390   1_565 S
C1778  H1804   1.078   .     S
C1778  C1781   1.388   .     A
C1779  O1855   1.394   .     S
C1779  C1781   1.401   .     A
C1780  O1863   1.382   .     S
C1780  C1782   1.408   .     A
C1780  C1070   1.373   1_565 S
C1783  N1806   1.372   .     A
C1783  I1871   2.109   .     S
C1783  C1903   1.439   .     S
C1784  I1872   2.119   .     S
C1784  N1805   1.372   .     A
C1784  C2022   1.434   1_455 S
C1785  N1805   1.382   .     A
C1785  O1873   1.387   .     S
C1785  C2019   1.439   1_455 S
C1786  N1806   1.383   .     A
C1786  O1881   1.385   .     S
C1786  C1902   1.434   .     S
C1787  O1813   1.308   .     A
C1787  C1789   1.458   .     S
C1787  O1811   1.311   .     A
C1788  O1812   1.311   .     A
C1788  C1790   1.467   .     S
C1788  O1814   1.313   .     A
C1789  C1793   1.412   .     A
C1789  C1795   1.400   .     A
C1790  C1794   1.411   .     A
C1790  C1796   1.393   .     A
C1791  I1837   2.138   .     S
C1791  C1793   1.408   .     A
C1791  C1799   1.405   .     A
C1792  I1838   2.136   .     S
C1792  C1794   1.403   .     A
C1792  C1800   1.405   .     A
C1793  O1829   1.386   .     S
C1794  O1821   1.379   .     S
C1795  I1820   2.132   .     S
C1795  C1797   1.402   .     A
C1796  I1819   2.123   .     S
C1796  C1798   1.402   .     A
C1797  C1799   1.406   .     A
C1797  C1801   1.415   .     A
C1798  C1802   1.403   .     A
C1798  C1800   1.408   .     A
C1799  C713    1.404   1_556 S
C1801  C740    1.409   1_556 S
N1805  Zn1815  2.055   .     S
N1806  Zn1816  2.055   .     S
O1807  Zn1815  2.007   .     S
O1808  Zn1816  2.007   .     S
O1809  Zn1816  2.018   .     S
O1810  Zn1815  2.018   .     S
O1811  Zn1815  1.991   .     S
O1812  Zn1816  1.991   .     S
O1813  Zn1816  1.981   .     S
O1814  Zn1815  1.981   .     S
O1821  C1822   1.420   .     S
C1822  H1823   1.109   .     S
C1822  C1825   1.540   .     S
C1822  H1824   1.105   .     S
C1825  H1828   1.107   .     S
C1825  H1944   1.109   .     S
C1825  H1945   1.098   .     S
H1826  C2061   1.109   1_455 S
H1827  C2061   1.098   1_455 S
O1829  C1830   1.418   .     S
C1830  C1833   1.525   .     S
C1830  H1832   1.117   .     S
C1830  H1831   1.112   .     S
C1833  H1835   1.105   .     S
C1833  H1836   1.107   .     S
C1833  H2070   1.109   1_455 S
H1834  C1951   1.109   .     S
O1839  C1840   1.431   .     S
C1840  H1841   1.099   .     S
C1840  C1843   1.552   .     S
C1840  H1842   1.106   .     S
C1843  H1844   1.110   .     S
C1843  H1845   1.105   .     S
C1843  H1846   1.104   .     S
O1847  C1848   1.422   .     S
C1848  H1850   1.106   .     S
C1848  H1849   1.115   .     S
C1848  C1851   1.527   .     S
C1851  H1854   1.108   .     S
C1851  H1852   1.111   .     S
C1851  H1853   1.108   .     S
O1855  C1856   1.406   .     S
C1856  H1858   1.101   .     S
C1856  H1857   1.112   .     S
C1856  C1859   1.514   .     S
C1859  H1862   1.105   .     S
C1859  H1860   1.105   .     S
C1859  H1979   1.106   .     S
H1861  C2095   1.106   1_455 S
O1863  C1864   1.410   .     S
C1864  H1865   1.111   .     S
C1864  H1866   1.111   .     S
C1864  C1867   1.517   .     S
C1867  H1868   1.103   .     S
C1867  H1869   1.107   .     S
C1867  H1870   1.109   .     S
O1873  C1874   1.417   .     S
C1874  H1875   1.110   .     S
C1874  H1876   1.104   .     S
C1874  C1877   1.533   .     S
C1877  H1880   1.109   .     S
C1877  H1878   1.110   .     S
C1877  H1879   1.110   .     S
O1881  C1882   1.414   .     S
C1882  H1884   1.112   .     S
C1882  H1883   1.101   .     S
C1882  C1885   1.529   .     S
C1885  H1886   1.108   .     S
C1885  H1887   1.111   .     S
C1885  H1888   1.104   .     S
C1889  O1925   1.298   .     A
C1889  C1900   1.441   .     S
C1889  O1927   1.313   .     A
C1890  C1899   1.431   .     S
C1890  O1926   1.301   .     A
C1890  O1928   1.306   .     A
C1891  O1957   1.395   .     S
C1891  C1893   1.407   .     A
C1891  C1920   1.419   .     A
C1892  C1894   1.413   .     A
C1892  O1965   1.384   .     S
C1892  C1919   1.412   .     A
C1893  I1935   2.127   .     S
C1894  I1936   2.136   .     S
C1894  C856    1.413   1_556 S
C1895  H1921   1.067   .     S
C1895  C1900   1.395   .     A
C1895  C1189   1.390   1_565 S
C1896  H1922   1.078   .     S
C1896  C1899   1.388   .     A
C1897  O1973   1.394   .     S
C1897  C1899   1.401   .     A
C1898  O1981   1.382   .     S
C1898  C1900   1.408   .     A
C1898  C1188   1.373   1_565 S
C1901  N1924   1.372   .     A
C1901  I1989   2.109   .     S
C1901  C2021   1.439   .     S
C1902  I1990   2.119   .     S
C1902  N1923   1.372   .     A
C1903  N1923   1.382   .     A
C1903  O1991   1.387   .     S
C1904  N1924   1.383   .     A
C1904  O1999   1.385   .     S
C1904  C2020   1.434   .     S
C1905  O1931   1.308   .     A
C1905  C1907   1.458   .     S
C1905  O1929   1.311   .     A
C1906  O1930   1.311   .     A
C1906  C1908   1.467   .     S
C1906  O1932   1.313   .     A
C1907  C1911   1.412   .     A
C1907  C1913   1.400   .     A
C1908  C1912   1.411   .     A
C1908  C1914   1.393   .     A
C1909  I1955   2.138   .     S
C1909  C1911   1.408   .     A
C1909  C1917   1.405   .     A
C1910  I1956   2.136   .     S
C1910  C1912   1.403   .     A
C1910  C1918   1.405   .     A
C1911  O1947   1.386   .     S
C1912  O1939   1.379   .     S
C1913  I1938   2.132   .     S
C1913  C1915   1.402   .     A
C1914  I1937   2.123   .     S
C1914  C1916   1.402   .     A
C1915  C1917   1.406   .     A
C1915  C1919   1.415   .     A
C1916  C1920   1.403   .     A
C1916  C1918   1.408   .     A
C1917  C831    1.404   1_556 S
C1919  C858    1.409   1_556 S
N1923  Zn1933  2.055   .     S
N1924  Zn1934  2.055   .     S
O1925  Zn1933  2.007   .     S
O1926  Zn1934  2.007   .     S
O1927  Zn1934  2.018   .     S
O1928  Zn1933  2.018   .     S
O1929  Zn1933  1.991   .     S
O1930  Zn1934  1.991   .     S
O1931  Zn1934  1.981   .     S
O1932  Zn1933  1.981   .     S
O1939  C1940   1.420   .     S
C1940  H1941   1.109   .     S
C1940  C1943   1.540   .     S
C1940  H1942   1.105   .     S
C1943  H1946   1.107   .     S
C1943  H2062   1.109   .     S
C1943  H2063   1.098   .     S
O1947  C1948   1.418   .     S
C1948  C1951   1.525   .     S
C1948  H1950   1.117   .     S
C1948  H1949   1.112   .     S
C1951  H1953   1.105   .     S
C1951  H1954   1.107   .     S
H1952  C2069   1.109   .     S
O1957  C1958   1.431   .     S
C1958  H1959   1.099   .     S
C1958  C1961   1.552   .     S
C1958  H1960   1.106   .     S
C1961  H1962   1.110   .     S
C1961  H1963   1.105   .     S
C1961  H1964   1.104   .     S
O1965  C1966   1.422   .     S
C1966  H1968   1.106   .     S
C1966  H1967   1.115   .     S
C1966  C1969   1.527   .     S
C1969  H1972   1.108   .     S
C1969  H1970   1.111   .     S
C1969  H1971   1.108   .     S
O1973  C1974   1.406   .     S
C1974  H1976   1.101   .     S
C1974  H1975   1.112   .     S
C1974  C1977   1.514   .     S
C1977  H1980   1.105   .     S
C1977  H1978   1.105   .     S
C1977  H2097   1.106   .     S
O1981  C1982   1.410   .     S
C1982  H1983   1.111   .     S
C1982  H1984   1.111   .     S
C1982  C1985   1.517   .     S
C1985  H1986   1.103   .     S
C1985  H1987   1.107   .     S
C1985  H1988   1.109   .     S
O1991  C1992   1.417   .     S
C1992  H1993   1.110   .     S
C1992  H1994   1.104   .     S
C1992  C1995   1.533   .     S
C1995  H1998   1.109   .     S
C1995  H1996   1.110   .     S
C1995  H1997   1.110   .     S
O1999  C2000   1.414   .     S
C2000  H2002   1.112   .     S
C2000  H2001   1.101   .     S
C2000  C2003   1.529   .     S
C2003  H2004   1.108   .     S
C2003  H2005   1.111   .     S
C2003  H2006   1.104   .     S
C2007  O2043   1.298   .     A
C2007  C2018   1.441   .     S
C2007  O2045   1.313   .     A
C2008  C2017   1.431   .     S
C2008  O2044   1.301   .     A
C2008  O2046   1.306   .     A
C2009  O2075   1.395   .     S
C2009  C2011   1.407   .     A
C2009  C2038   1.419   .     A
C2010  C2012   1.413   .     A
C2010  O2083   1.384   .     S
C2010  C2037   1.412   .     A
C2011  I2053   2.127   .     S
C2012  I2054   2.136   .     S
C2012  C974    1.413   1_556 S
C2013  H2039   1.067   .     S
C2013  C2018   1.395   .     A
C2013  C1307   1.390   1_565 S
C2014  H2040   1.078   .     S
C2014  C2017   1.388   .     A
C2015  O2091   1.394   .     S
C2015  C2017   1.401   .     A
C2016  O2099   1.382   .     S
C2016  C2018   1.408   .     A
C2016  C1306   1.373   1_565 S
C2019  N2042   1.372   .     A
C2019  I2107   2.109   .     S
C2019  C1785   1.439   1_655 S
C2020  I2108   2.119   .     S
C2020  N2041   1.372   .     A
C2021  N2041   1.382   .     A
C2021  O2109   1.387   .     S
C2022  N2042   1.383   .     A
C2022  O2117   1.385   .     S
C2022  C1784   1.434   1_655 S
C2023  O2049   1.308   .     A
C2023  C2025   1.458   .     S
C2023  O2047   1.311   .     A
C2024  O2048   1.311   .     A
C2024  C2026   1.467   .     S
C2024  O2050   1.313   .     A
C2025  C2029   1.412   .     A
C2025  C2031   1.400   .     A
C2026  C2030   1.411   .     A
C2026  C2032   1.393   .     A
C2027  I2073   2.138   .     S
C2027  C2029   1.408   .     A
C2027  C2035   1.405   .     A
C2028  I2074   2.136   .     S
C2028  C2030   1.403   .     A
C2028  C2036   1.405   .     A
C2029  O2065   1.386   .     S
C2030  O2057   1.379   .     S
C2031  I2056   2.132   .     S
C2031  C2033   1.402   .     A
C2032  I2055   2.123   .     S
C2032  C2034   1.402   .     A
C2033  C2035   1.406   .     A
C2033  C2037   1.415   .     A
C2034  C2038   1.403   .     A
C2034  C2036   1.408   .     A
C2035  C949    1.404   1_556 S
C2037  C976    1.409   1_556 S
N2041  Zn2051  2.055   .     S
N2042  Zn2052  2.055   .     S
O2043  Zn2051  2.007   .     S
O2044  Zn2052  2.007   .     S
O2045  Zn2052  2.018   .     S
O2046  Zn2051  2.018   .     S
O2047  Zn2051  1.991   .     S
O2048  Zn2052  1.991   .     S
O2049  Zn2052  1.981   .     S
O2050  Zn2051  1.981   .     S
O2057  C2058   1.420   .     S
C2058  H2059   1.109   .     S
C2058  C2061   1.540   .     S
C2058  H2060   1.105   .     S
C2061  H2064   1.107   .     S
C2061  H1826   1.109   1_655 S
C2061  H1827   1.098   1_655 S
O2065  C2066   1.418   .     S
C2066  C2069   1.525   .     S
C2066  H2068   1.117   .     S
C2066  H2067   1.112   .     S
C2069  H2071   1.105   .     S
C2069  H2072   1.107   .     S
H2070  C1833   1.109   1_655 S
O2075  C2076   1.431   .     S
C2076  H2077   1.099   .     S
C2076  C2079   1.552   .     S
C2076  H2078   1.106   .     S
C2079  H2080   1.110   .     S
C2079  H2081   1.105   .     S
C2079  H2082   1.104   .     S
O2083  C2084   1.422   .     S
C2084  H2086   1.106   .     S
C2084  H2085   1.115   .     S
C2084  C2087   1.527   .     S
C2087  H2090   1.108   .     S
C2087  H2088   1.111   .     S
C2087  H2089   1.108   .     S
O2091  C2092   1.406   .     S
C2092  H2094   1.101   .     S
C2092  H2093   1.112   .     S
C2092  C2095   1.514   .     S
C2095  H2098   1.105   .     S
C2095  H2096   1.105   .     S
C2095  H1861   1.106   1_655 S
O2099  C2100   1.410   .     S
C2100  H2101   1.111   .     S
C2100  H2102   1.111   .     S
C2100  C2103   1.517   .     S
C2103  H2104   1.103   .     S
C2103  H2105   1.107   .     S
C2103  H2106   1.109   .     S
O2109  C2110   1.417   .     S
C2110  H2111   1.110   .     S
C2110  H2112   1.104   .     S
C2110  C2113   1.533   .     S
C2113  H2116   1.109   .     S
C2113  H2114   1.110   .     S
C2113  H2115   1.110   .     S
O2117  C2118   1.414   .     S
C2118  H2120   1.112   .     S
C2118  H2119   1.101   .     S
C2118  C2121   1.529   .     S
C2121  H2122   1.108   .     S
C2121  H2123   1.111   .     S
C2121  H2124   1.104   .     S
