data_str_m3_o2_o10_pcu_sym.27
_audit_creation_date              2020-01-03
_audit_creation_method            'Materials Studio'
_symmetry_space_group_name_H-M    'P1'
_symmetry_Int_Tables_number       1
_symmetry_cell_setting            triclinic
loop_
_symmetry_equiv_pos_as_xyz
  x,y,z
_cell_length_a                    25.7850
_cell_length_b                    29.7830
_cell_length_c                    28.5816
_cell_angle_alpha                 89.6242
_cell_angle_beta                  97.6445
_cell_angle_gamma                 90.8319
loop_
_atom_site_label
_atom_site_type_symbol
_atom_site_fract_x
_atom_site_fract_y
_atom_site_fract_z
_atom_site_U_iso_or_equiv
_atom_site_adp_type
_atom_site_occupancy
C1     C     0.16769   0.16392   0.25021   0.00000  Uiso   1.00
C2     C     0.13745   0.21646   0.44319   0.00000  Uiso   1.00
C3     C     0.16508   0.25212   0.02671   0.00000  Uiso   1.00
C4     C     0.16828   0.24767   0.47330   0.00000  Uiso   1.00
C5     C     0.06732   0.24953   0.23808   0.00000  Uiso   1.00
C6     C     0.26601   0.25043   0.26193   0.00000  Uiso   1.00
C7     C     0.01328   0.24187   0.23330   0.00000  Uiso   1.00
C8     C     0.32004   0.25807   0.26672   0.00000  Uiso   1.00
C9     C     0.15869   0.04409   0.28376   0.00000  Uiso   1.00
C10    C     0.16313   0.45553   0.21267   0.00000  Uiso   1.00
C11    C     0.15162   0.08985   0.28315   0.00000  Uiso   1.00
C12    C     0.16793   0.33613   0.25006   0.00000  Uiso   1.00
C13    C     0.15604   0.40959   0.21154   0.00000  Uiso   1.00
C14    C     0.17478   0.11619   0.25108   0.00000  Uiso   1.00
C15    C     0.17523   0.38409   0.25088   0.00000  Uiso   1.00
C16    C     0.20621   0.09716   0.22036   0.00000  Uiso   1.00
C17    C     0.20302   0.40422   0.29089   0.00000  Uiso   1.00
C18    C     0.21467   0.05108   0.22105   0.00000  Uiso   1.00
C19    C     0.21133   0.45050   0.29243   0.00000  Uiso   1.00
C20    C     0.19045   0.02460   0.25354   0.00000  Uiso   1.00
C21    C     0.19091   0.47610   0.25246   0.00000  Uiso   1.00
C22    C     0.24749   0.03170   0.18580   0.00000  Uiso   1.00
C23    C     0.12824   0.22689   0.04917   0.00000  Uiso   1.00
C24    C     0.29923   0.01301   0.20951   0.00000  Uiso   1.00
C25    C     0.23971   0.47103   0.33747   0.00000  Uiso   1.00
C26    C     0.29277   0.49141   0.33058   0.00000  Uiso   1.00
C27    C     0.20534   0.27272   0.45091   0.00000  Uiso   1.00
C28    C     0.13044   0.22537   0.09839   0.00000  Uiso   1.00
C29    C     0.20314   0.27433   0.40168   0.00000  Uiso   1.00
C30    C     0.19860   0.27941   0.10630   0.00000  Uiso   1.00
C31    C     0.13444   0.22081   0.39364   0.00000  Uiso   1.00
C32    C     0.19564   0.28358   0.05672   0.00000  Uiso   1.00
Cl33   Cl    0.32161   0.20242   0.18911   0.00000  Uiso   1.00
Cl34   Cl    0.01167   0.29746   0.31097   0.00000  Uiso   1.00
Cl35   Cl    0.24194   0.31469   0.14269   0.00000  Uiso   1.00
Cl36   Cl    0.09051   0.18608   0.35720   0.00000  Uiso   1.00
Cl37   Cl    0.21820   0.33555   0.03597   0.00000  Uiso   1.00
Cl38   Cl    0.11472   0.16444   0.46367   0.00000  Uiso   1.00
H39    H     0.13816   0.02355   0.30701   0.00000  Uiso   1.00
H40    H     0.23161   0.29427   0.38577   0.00000  Uiso   1.00
H41    H     0.32080   0.03863   0.23290   0.00000  Uiso   1.00
H42    H     0.29239   0.48231   0.23005   0.00000  Uiso   1.00
H43    H     0.32385   0.00374   0.18210   0.00000  Uiso   1.00
H44    H     0.22539   0.00516   0.16429   0.00000  Uiso   1.00
H45    H     0.25682   0.05802   0.16032   0.00000  Uiso   1.00
H46    H     0.31669   0.46650   0.31456   0.00000  Uiso   1.00
H47    H     0.28776   0.02188   0.30808   0.00000  Uiso   1.00
H48    H     0.31405   0.00148   0.36536   0.00000  Uiso   1.00
H49    H     0.21543   0.49686   0.35142   0.00000  Uiso   1.00
H50    H     0.14541   0.47535   0.18299   0.00000  Uiso   1.00
H51    H     0.24663   0.44508   0.36568   0.00000  Uiso   1.00
H52    H     0.12694   0.10450   0.30668   0.00000  Uiso   1.00
H53    H     0.13432   0.39413   0.18059   0.00000  Uiso   1.00
H54    H     0.22441   0.11845   0.19608   0.00000  Uiso   1.00
H55    H     0.21838   0.38368   0.32089   0.00000  Uiso   1.00
H56    H     0.09504   0.21035   0.02979   0.00000  Uiso   1.00
H57    H     0.23865   0.28903   0.47040   0.00000  Uiso   1.00
H58    H     0.10216   0.20528   0.11436   0.00000  Uiso   1.00
N59    N     0.16667   0.24999   0.12624   0.00000  Uiso   1.00
N60    N     0.16667   0.25001   0.37377   0.00000  Uiso   1.00
O61    O     0.16667   0.18453   0.28974   0.00000  Uiso   1.00
O62    O     0.16666   0.31546   0.21026   0.00000  Uiso   1.00
O63    O     0.16667   0.18453   0.21026   0.00000  Uiso   1.00
O64    O     0.16666   0.31547   0.28974   0.00000  Uiso   1.00
O65    O     0.09058   0.25000   0.28045   0.00000  Uiso   1.00
O66    O     0.24275   0.25000   0.21956   0.00000  Uiso   1.00
O67    O     0.09058   0.24999   0.20097   0.00000  Uiso   1.00
O68    O     0.24275   0.25000   0.29904   0.00000  Uiso   1.00
Zn69   Zn    0.16667   0.25000   0.30307   0.00000  Uiso   1.00
Zn70   Zn    0.16667   0.24999   0.19693   0.00000  Uiso   1.00
C71    C     0.50102   0.16392   0.25021   0.00000  Uiso   1.00
C72    C     0.47079   0.21646   0.44319   0.00000  Uiso   1.00
C73    C     0.49842   0.25212   0.02671   0.00000  Uiso   1.00
C74    C     0.50161   0.24767   0.47330   0.00000  Uiso   1.00
C75    C     0.40066   0.24953   0.23808   0.00000  Uiso   1.00
C76    C     0.59934   0.25043   0.26193   0.00000  Uiso   1.00
C77    C     0.34661   0.24187   0.23330   0.00000  Uiso   1.00
C78    C     0.65338   0.25807   0.26672   0.00000  Uiso   1.00
C79    C     0.49203   0.04409   0.28376   0.00000  Uiso   1.00
C80    C     0.49646   0.45553   0.21267   0.00000  Uiso   1.00
C81    C     0.48495   0.08985   0.28315   0.00000  Uiso   1.00
C82    C     0.50127   0.33613   0.25006   0.00000  Uiso   1.00
C83    C     0.48937   0.40959   0.21154   0.00000  Uiso   1.00
C84    C     0.50812   0.11619   0.25108   0.00000  Uiso   1.00
C85    C     0.50856   0.38409   0.25088   0.00000  Uiso   1.00
C86    C     0.53955   0.09716   0.22036   0.00000  Uiso   1.00
C87    C     0.53636   0.40422   0.29089   0.00000  Uiso   1.00
C88    C     0.54800   0.05108   0.22105   0.00000  Uiso   1.00
C89    C     0.54466   0.45050   0.29243   0.00000  Uiso   1.00
C90    C     0.52379   0.02460   0.25354   0.00000  Uiso   1.00
C91    C     0.52424   0.47610   0.25246   0.00000  Uiso   1.00
C92    C     0.58082   0.03170   0.18580   0.00000  Uiso   1.00
C93    C     0.46157   0.22689   0.04917   0.00000  Uiso   1.00
C94    C     0.63257   0.01301   0.20951   0.00000  Uiso   1.00
C95    C     0.57305   0.47103   0.33747   0.00000  Uiso   1.00
C96    C     0.62610   0.49141   0.33058   0.00000  Uiso   1.00
C97    C     0.53867   0.27272   0.45091   0.00000  Uiso   1.00
C98    C     0.46378   0.22537   0.09839   0.00000  Uiso   1.00
C99    C     0.53648   0.27433   0.40168   0.00000  Uiso   1.00
C100   C     0.53193   0.27941   0.10630   0.00000  Uiso   1.00
C101   C     0.46777   0.22081   0.39364   0.00000  Uiso   1.00
C102   C     0.52898   0.28358   0.05672   0.00000  Uiso   1.00
Cl103  Cl    0.65494   0.20242   0.18911   0.00000  Uiso   1.00
Cl104  Cl    0.34501   0.29746   0.31097   0.00000  Uiso   1.00
Cl105  Cl    0.57527   0.31469   0.14269   0.00000  Uiso   1.00
Cl106  Cl    0.42385   0.18608   0.35720   0.00000  Uiso   1.00
Cl107  Cl    0.55153   0.33555   0.03597   0.00000  Uiso   1.00
Cl108  Cl    0.44806   0.16444   0.46367   0.00000  Uiso   1.00
H109   H     0.47149   0.02355   0.30701   0.00000  Uiso   1.00
H110   H     0.56494   0.29427   0.38577   0.00000  Uiso   1.00
H111   H     0.65413   0.03863   0.23290   0.00000  Uiso   1.00
H112   H     0.62573   0.48231   0.23005   0.00000  Uiso   1.00
H113   H     0.65719   0.00374   0.18210   0.00000  Uiso   1.00
H114   H     0.55872   0.00516   0.16429   0.00000  Uiso   1.00
H115   H     0.59015   0.05802   0.16032   0.00000  Uiso   1.00
H116   H     0.65003   0.46650   0.31456   0.00000  Uiso   1.00
H117   H     0.62109   0.02188   0.30808   0.00000  Uiso   1.00
H118   H     0.64738   0.00148   0.36536   0.00000  Uiso   1.00
H119   H     0.54876   0.49686   0.35142   0.00000  Uiso   1.00
H120   H     0.47875   0.47535   0.18299   0.00000  Uiso   1.00
H121   H     0.57996   0.44508   0.36568   0.00000  Uiso   1.00
H122   H     0.46027   0.10450   0.30668   0.00000  Uiso   1.00
H123   H     0.46765   0.39413   0.18059   0.00000  Uiso   1.00
H124   H     0.55775   0.11845   0.19608   0.00000  Uiso   1.00
H125   H     0.55172   0.38368   0.32089   0.00000  Uiso   1.00
H126   H     0.42837   0.21035   0.02979   0.00000  Uiso   1.00
H127   H     0.57199   0.28903   0.47040   0.00000  Uiso   1.00
H128   H     0.43549   0.20528   0.11436   0.00000  Uiso   1.00
N129   N     0.50000   0.24999   0.12624   0.00000  Uiso   1.00
N130   N     0.50000   0.25001   0.37377   0.00000  Uiso   1.00
O131   O     0.50000   0.18453   0.28974   0.00000  Uiso   1.00
O132   O     0.50000   0.31546   0.21026   0.00000  Uiso   1.00
O133   O     0.50000   0.18453   0.21026   0.00000  Uiso   1.00
O134   O     0.50000   0.31547   0.28974   0.00000  Uiso   1.00
O135   O     0.42392   0.25000   0.28045   0.00000  Uiso   1.00
O136   O     0.57608   0.25000   0.21956   0.00000  Uiso   1.00
O137   O     0.42392   0.24999   0.20097   0.00000  Uiso   1.00
O138   O     0.57608   0.25000   0.29904   0.00000  Uiso   1.00
Zn139  Zn    0.50000   0.25000   0.30307   0.00000  Uiso   1.00
Zn140  Zn    0.50000   0.24999   0.19693   0.00000  Uiso   1.00
C141   C     0.83436   0.16392   0.25021   0.00000  Uiso   1.00
C142   C     0.80412   0.21646   0.44319   0.00000  Uiso   1.00
C143   C     0.83175   0.25212   0.02671   0.00000  Uiso   1.00
C144   C     0.83495   0.24767   0.47330   0.00000  Uiso   1.00
C145   C     0.73399   0.24953   0.23808   0.00000  Uiso   1.00
C146   C     0.93267   0.25043   0.26193   0.00000  Uiso   1.00
C147   C     0.67994   0.24187   0.23330   0.00000  Uiso   1.00
C148   C     0.98671   0.25807   0.26672   0.00000  Uiso   1.00
C149   C     0.82536   0.04409   0.28376   0.00000  Uiso   1.00
C150   C     0.82980   0.45553   0.21267   0.00000  Uiso   1.00
C151   C     0.81828   0.08985   0.28315   0.00000  Uiso   1.00
C152   C     0.83460   0.33613   0.25006   0.00000  Uiso   1.00
C153   C     0.82270   0.40959   0.21154   0.00000  Uiso   1.00
C154   C     0.84145   0.11619   0.25108   0.00000  Uiso   1.00
C155   C     0.84190   0.38409   0.25088   0.00000  Uiso   1.00
C156   C     0.87288   0.09716   0.22036   0.00000  Uiso   1.00
C157   C     0.86969   0.40422   0.29089   0.00000  Uiso   1.00
C158   C     0.88133   0.05108   0.22105   0.00000  Uiso   1.00
C159   C     0.87800   0.45050   0.29243   0.00000  Uiso   1.00
C160   C     0.85712   0.02460   0.25354   0.00000  Uiso   1.00
C161   C     0.85757   0.47610   0.25246   0.00000  Uiso   1.00
C162   C     0.91415   0.03170   0.18580   0.00000  Uiso   1.00
C163   C     0.79491   0.22689   0.04917   0.00000  Uiso   1.00
C164   C     0.96590   0.01301   0.20951   0.00000  Uiso   1.00
C165   C     0.90638   0.47103   0.33747   0.00000  Uiso   1.00
C166   C     0.95944   0.49141   0.33058   0.00000  Uiso   1.00
C167   C     0.87201   0.27272   0.45091   0.00000  Uiso   1.00
C168   C     0.79711   0.22537   0.09839   0.00000  Uiso   1.00
C169   C     0.86981   0.27433   0.40168   0.00000  Uiso   1.00
C170   C     0.86526   0.27941   0.10630   0.00000  Uiso   1.00
C171   C     0.80110   0.22081   0.39364   0.00000  Uiso   1.00
C172   C     0.86231   0.28358   0.05672   0.00000  Uiso   1.00
Cl173  Cl    0.98828   0.20242   0.18911   0.00000  Uiso   1.00
Cl174  Cl    0.67834   0.29746   0.31097   0.00000  Uiso   1.00
Cl175  Cl    0.90860   0.31469   0.14269   0.00000  Uiso   1.00
Cl176  Cl    0.75718   0.18608   0.35720   0.00000  Uiso   1.00
Cl177  Cl    0.88486   0.33555   0.03597   0.00000  Uiso   1.00
Cl178  Cl    0.78139   0.16444   0.46367   0.00000  Uiso   1.00
H179   H     0.80482   0.02355   0.30701   0.00000  Uiso   1.00
H180   H     0.89827   0.29427   0.38577   0.00000  Uiso   1.00
H181   H     0.98747   0.03863   0.23290   0.00000  Uiso   1.00
H182   H     0.95906   0.48231   0.23005   0.00000  Uiso   1.00
H183   H     0.99052   0.00374   0.18210   0.00000  Uiso   1.00
H184   H     0.89205   0.00516   0.16429   0.00000  Uiso   1.00
H185   H     0.92348   0.05802   0.16032   0.00000  Uiso   1.00
H186   H     0.98336   0.46650   0.31456   0.00000  Uiso   1.00
H187   H     0.95442   0.02188   0.30808   0.00000  Uiso   1.00
H188   H     0.98072   0.00148   0.36536   0.00000  Uiso   1.00
H189   H     0.88209   0.49686   0.35142   0.00000  Uiso   1.00
H190   H     0.81208   0.47535   0.18299   0.00000  Uiso   1.00
H191   H     0.91329   0.44508   0.36568   0.00000  Uiso   1.00
H192   H     0.79360   0.10450   0.30668   0.00000  Uiso   1.00
H193   H     0.80098   0.39413   0.18059   0.00000  Uiso   1.00
H194   H     0.89108   0.11845   0.19608   0.00000  Uiso   1.00
H195   H     0.88505   0.38368   0.32089   0.00000  Uiso   1.00
H196   H     0.76170   0.21035   0.02979   0.00000  Uiso   1.00
H197   H     0.90532   0.28903   0.47040   0.00000  Uiso   1.00
H198   H     0.76882   0.20528   0.11436   0.00000  Uiso   1.00
N199   N     0.83333   0.24999   0.12624   0.00000  Uiso   1.00
N200   N     0.83333   0.25001   0.37377   0.00000  Uiso   1.00
O201   O     0.83334   0.18453   0.28974   0.00000  Uiso   1.00
O202   O     0.83333   0.31546   0.21026   0.00000  Uiso   1.00
O203   O     0.83334   0.18453   0.21026   0.00000  Uiso   1.00
O204   O     0.83333   0.31547   0.28974   0.00000  Uiso   1.00
O205   O     0.75725   0.25000   0.28045   0.00000  Uiso   1.00
O206   O     0.90942   0.25000   0.21956   0.00000  Uiso   1.00
O207   O     0.75725   0.24999   0.20097   0.00000  Uiso   1.00
O208   O     0.90942   0.25000   0.29904   0.00000  Uiso   1.00
Zn209  Zn    0.83333   0.25000   0.30307   0.00000  Uiso   1.00
Zn210  Zn    0.83333   0.24999   0.19693   0.00000  Uiso   1.00
C211   C     0.16769   0.66392   0.25021   0.00000  Uiso   1.00
C212   C     0.13745   0.71646   0.44319   0.00000  Uiso   1.00
C213   C     0.16508   0.75212   0.02671   0.00000  Uiso   1.00
C214   C     0.16828   0.74767   0.47330   0.00000  Uiso   1.00
C215   C     0.06732   0.74953   0.23808   0.00000  Uiso   1.00
C216   C     0.26601   0.75043   0.26193   0.00000  Uiso   1.00
C217   C     0.01328   0.74187   0.23330   0.00000  Uiso   1.00
C218   C     0.32004   0.75807   0.26672   0.00000  Uiso   1.00
C219   C     0.15869   0.54409   0.28376   0.00000  Uiso   1.00
C220   C     0.16313   0.95553   0.21267   0.00000  Uiso   1.00
C221   C     0.15162   0.58985   0.28315   0.00000  Uiso   1.00
C222   C     0.16793   0.83613   0.25006   0.00000  Uiso   1.00
C223   C     0.15604   0.90959   0.21154   0.00000  Uiso   1.00
C224   C     0.17478   0.61619   0.25108   0.00000  Uiso   1.00
C225   C     0.17523   0.88409   0.25088   0.00000  Uiso   1.00
C226   C     0.20621   0.59716   0.22036   0.00000  Uiso   1.00
C227   C     0.20302   0.90422   0.29089   0.00000  Uiso   1.00
C228   C     0.21467   0.55108   0.22105   0.00000  Uiso   1.00
C229   C     0.21133   0.95050   0.29243   0.00000  Uiso   1.00
C230   C     0.19045   0.52460   0.25354   0.00000  Uiso   1.00
C231   C     0.19091   0.97610   0.25246   0.00000  Uiso   1.00
C232   C     0.24749   0.53170   0.18580   0.00000  Uiso   1.00
C233   C     0.12824   0.72689   0.04917   0.00000  Uiso   1.00
C234   C     0.29923   0.51301   0.20951   0.00000  Uiso   1.00
C235   C     0.23971   0.97103   0.33747   0.00000  Uiso   1.00
C236   C     0.29277   0.99141   0.33058   0.00000  Uiso   1.00
C237   C     0.20534   0.77272   0.45091   0.00000  Uiso   1.00
C238   C     0.13044   0.72537   0.09839   0.00000  Uiso   1.00
C239   C     0.20314   0.77433   0.40168   0.00000  Uiso   1.00
C240   C     0.19860   0.77941   0.10630   0.00000  Uiso   1.00
C241   C     0.13444   0.72081   0.39364   0.00000  Uiso   1.00
C242   C     0.19564   0.78358   0.05672   0.00000  Uiso   1.00
Cl243  Cl    0.32161   0.70242   0.18911   0.00000  Uiso   1.00
Cl244  Cl    0.01167   0.79746   0.31097   0.00000  Uiso   1.00
Cl245  Cl    0.24194   0.81469   0.14269   0.00000  Uiso   1.00
Cl246  Cl    0.09051   0.68608   0.35720   0.00000  Uiso   1.00
Cl247  Cl    0.21820   0.83555   0.03597   0.00000  Uiso   1.00
Cl248  Cl    0.11472   0.66444   0.46367   0.00000  Uiso   1.00
H249   H     0.13816   0.52355   0.30701   0.00000  Uiso   1.00
H250   H     0.23161   0.79427   0.38577   0.00000  Uiso   1.00
H251   H     0.32080   0.53863   0.23290   0.00000  Uiso   1.00
H252   H     0.29239   0.98231   0.23005   0.00000  Uiso   1.00
H253   H     0.32385   0.50374   0.18210   0.00000  Uiso   1.00
H254   H     0.22539   0.50516   0.16429   0.00000  Uiso   1.00
H255   H     0.25682   0.55802   0.16032   0.00000  Uiso   1.00
H256   H     0.31669   0.96650   0.31456   0.00000  Uiso   1.00
H257   H     0.28776   0.52188   0.30808   0.00000  Uiso   1.00
H258   H     0.31405   0.50148   0.36536   0.00000  Uiso   1.00
H259   H     0.21543   0.99686   0.35142   0.00000  Uiso   1.00
H260   H     0.14541   0.97535   0.18299   0.00000  Uiso   1.00
H261   H     0.24663   0.94508   0.36568   0.00000  Uiso   1.00
H262   H     0.12694   0.60450   0.30668   0.00000  Uiso   1.00
H263   H     0.13432   0.89413   0.18059   0.00000  Uiso   1.00
H264   H     0.22441   0.61845   0.19608   0.00000  Uiso   1.00
H265   H     0.21838   0.88368   0.32089   0.00000  Uiso   1.00
H266   H     0.09504   0.71035   0.02979   0.00000  Uiso   1.00
H267   H     0.23865   0.78903   0.47040   0.00000  Uiso   1.00
H268   H     0.10216   0.70528   0.11436   0.00000  Uiso   1.00
N269   N     0.16667   0.74999   0.12624   0.00000  Uiso   1.00
N270   N     0.16667   0.75001   0.37377   0.00000  Uiso   1.00
O271   O     0.16667   0.68453   0.28974   0.00000  Uiso   1.00
O272   O     0.16666   0.81546   0.21026   0.00000  Uiso   1.00
O273   O     0.16667   0.68453   0.21026   0.00000  Uiso   1.00
O274   O     0.16666   0.81547   0.28974   0.00000  Uiso   1.00
O275   O     0.09058   0.75000   0.28045   0.00000  Uiso   1.00
O276   O     0.24275   0.75000   0.21956   0.00000  Uiso   1.00
O277   O     0.09058   0.74999   0.20097   0.00000  Uiso   1.00
O278   O     0.24275   0.75000   0.29904   0.00000  Uiso   1.00
Zn279  Zn    0.16667   0.75000   0.30307   0.00000  Uiso   1.00
Zn280  Zn    0.16667   0.74999   0.19693   0.00000  Uiso   1.00
C281   C     0.50102   0.66392   0.25021   0.00000  Uiso   1.00
C282   C     0.47079   0.71646   0.44319   0.00000  Uiso   1.00
C283   C     0.49842   0.75212   0.02671   0.00000  Uiso   1.00
C284   C     0.50161   0.74767   0.47330   0.00000  Uiso   1.00
C285   C     0.40066   0.74953   0.23808   0.00000  Uiso   1.00
C286   C     0.59934   0.75043   0.26193   0.00000  Uiso   1.00
C287   C     0.34661   0.74187   0.23330   0.00000  Uiso   1.00
C288   C     0.65338   0.75807   0.26672   0.00000  Uiso   1.00
C289   C     0.49203   0.54409   0.28376   0.00000  Uiso   1.00
C290   C     0.49646   0.95553   0.21267   0.00000  Uiso   1.00
C291   C     0.48495   0.58985   0.28315   0.00000  Uiso   1.00
C292   C     0.50127   0.83613   0.25006   0.00000  Uiso   1.00
C293   C     0.48937   0.90959   0.21154   0.00000  Uiso   1.00
C294   C     0.50812   0.61619   0.25108   0.00000  Uiso   1.00
C295   C     0.50856   0.88409   0.25088   0.00000  Uiso   1.00
C296   C     0.53955   0.59716   0.22036   0.00000  Uiso   1.00
C297   C     0.53636   0.90422   0.29089   0.00000  Uiso   1.00
C298   C     0.54800   0.55108   0.22105   0.00000  Uiso   1.00
C299   C     0.54466   0.95050   0.29243   0.00000  Uiso   1.00
C300   C     0.52379   0.52460   0.25354   0.00000  Uiso   1.00
C301   C     0.52424   0.97610   0.25246   0.00000  Uiso   1.00
C302   C     0.58082   0.53170   0.18580   0.00000  Uiso   1.00
C303   C     0.46157   0.72689   0.04917   0.00000  Uiso   1.00
C304   C     0.63257   0.51301   0.20951   0.00000  Uiso   1.00
C305   C     0.57305   0.97103   0.33747   0.00000  Uiso   1.00
C306   C     0.62610   0.99141   0.33058   0.00000  Uiso   1.00
C307   C     0.53867   0.77272   0.45091   0.00000  Uiso   1.00
C308   C     0.46378   0.72537   0.09839   0.00000  Uiso   1.00
C309   C     0.53648   0.77433   0.40168   0.00000  Uiso   1.00
C310   C     0.53193   0.77941   0.10630   0.00000  Uiso   1.00
C311   C     0.46777   0.72081   0.39364   0.00000  Uiso   1.00
C312   C     0.52898   0.78358   0.05672   0.00000  Uiso   1.00
Cl313  Cl    0.65494   0.70242   0.18911   0.00000  Uiso   1.00
Cl314  Cl    0.34501   0.79746   0.31097   0.00000  Uiso   1.00
Cl315  Cl    0.57527   0.81469   0.14269   0.00000  Uiso   1.00
Cl316  Cl    0.42385   0.68608   0.35720   0.00000  Uiso   1.00
Cl317  Cl    0.55153   0.83555   0.03597   0.00000  Uiso   1.00
Cl318  Cl    0.44806   0.66444   0.46367   0.00000  Uiso   1.00
H319   H     0.47149   0.52355   0.30701   0.00000  Uiso   1.00
H320   H     0.56494   0.79427   0.38577   0.00000  Uiso   1.00
H321   H     0.65413   0.53863   0.23290   0.00000  Uiso   1.00
H322   H     0.62573   0.98231   0.23005   0.00000  Uiso   1.00
H323   H     0.65719   0.50374   0.18210   0.00000  Uiso   1.00
H324   H     0.55872   0.50516   0.16429   0.00000  Uiso   1.00
H325   H     0.59015   0.55802   0.16032   0.00000  Uiso   1.00
H326   H     0.65003   0.96650   0.31456   0.00000  Uiso   1.00
H327   H     0.62109   0.52188   0.30808   0.00000  Uiso   1.00
H328   H     0.64738   0.50148   0.36536   0.00000  Uiso   1.00
H329   H     0.54876   0.99686   0.35142   0.00000  Uiso   1.00
H330   H     0.47875   0.97535   0.18299   0.00000  Uiso   1.00
H331   H     0.57996   0.94508   0.36568   0.00000  Uiso   1.00
H332   H     0.46027   0.60450   0.30668   0.00000  Uiso   1.00
H333   H     0.46765   0.89413   0.18059   0.00000  Uiso   1.00
H334   H     0.55775   0.61845   0.19608   0.00000  Uiso   1.00
H335   H     0.55172   0.88368   0.32089   0.00000  Uiso   1.00
H336   H     0.42837   0.71035   0.02979   0.00000  Uiso   1.00
H337   H     0.57199   0.78903   0.47040   0.00000  Uiso   1.00
H338   H     0.43549   0.70528   0.11436   0.00000  Uiso   1.00
N339   N     0.50000   0.74999   0.12624   0.00000  Uiso   1.00
N340   N     0.50000   0.75001   0.37377   0.00000  Uiso   1.00
O341   O     0.50000   0.68453   0.28974   0.00000  Uiso   1.00
O342   O     0.50000   0.81546   0.21026   0.00000  Uiso   1.00
O343   O     0.50000   0.68453   0.21026   0.00000  Uiso   1.00
O344   O     0.50000   0.81547   0.28974   0.00000  Uiso   1.00
O345   O     0.42392   0.75000   0.28045   0.00000  Uiso   1.00
O346   O     0.57608   0.75000   0.21956   0.00000  Uiso   1.00
O347   O     0.42392   0.74999   0.20097   0.00000  Uiso   1.00
O348   O     0.57608   0.75000   0.29904   0.00000  Uiso   1.00
Zn349  Zn    0.50000   0.75000   0.30307   0.00000  Uiso   1.00
Zn350  Zn    0.50000   0.74999   0.19693   0.00000  Uiso   1.00
C351   C     0.83436   0.66392   0.25021   0.00000  Uiso   1.00
C352   C     0.80412   0.71646   0.44319   0.00000  Uiso   1.00
C353   C     0.83175   0.75212   0.02671   0.00000  Uiso   1.00
C354   C     0.83495   0.74767   0.47330   0.00000  Uiso   1.00
C355   C     0.73399   0.74953   0.23808   0.00000  Uiso   1.00
C356   C     0.93267   0.75043   0.26193   0.00000  Uiso   1.00
C357   C     0.67994   0.74187   0.23330   0.00000  Uiso   1.00
C358   C     0.98671   0.75807   0.26672   0.00000  Uiso   1.00
C359   C     0.82536   0.54409   0.28376   0.00000  Uiso   1.00
C360   C     0.82980   0.95553   0.21267   0.00000  Uiso   1.00
C361   C     0.81828   0.58985   0.28315   0.00000  Uiso   1.00
C362   C     0.83460   0.83613   0.25006   0.00000  Uiso   1.00
C363   C     0.82270   0.90959   0.21154   0.00000  Uiso   1.00
C364   C     0.84145   0.61619   0.25108   0.00000  Uiso   1.00
C365   C     0.84190   0.88409   0.25088   0.00000  Uiso   1.00
C366   C     0.87288   0.59716   0.22036   0.00000  Uiso   1.00
C367   C     0.86969   0.90422   0.29089   0.00000  Uiso   1.00
C368   C     0.88133   0.55108   0.22105   0.00000  Uiso   1.00
C369   C     0.87800   0.95050   0.29243   0.00000  Uiso   1.00
C370   C     0.85712   0.52460   0.25354   0.00000  Uiso   1.00
C371   C     0.85757   0.97610   0.25246   0.00000  Uiso   1.00
C372   C     0.91415   0.53170   0.18580   0.00000  Uiso   1.00
C373   C     0.79491   0.72689   0.04917   0.00000  Uiso   1.00
C374   C     0.96590   0.51301   0.20951   0.00000  Uiso   1.00
C375   C     0.90638   0.97103   0.33747   0.00000  Uiso   1.00
C376   C     0.95944   0.99141   0.33058   0.00000  Uiso   1.00
C377   C     0.87201   0.77272   0.45091   0.00000  Uiso   1.00
C378   C     0.79711   0.72537   0.09839   0.00000  Uiso   1.00
C379   C     0.86981   0.77433   0.40168   0.00000  Uiso   1.00
C380   C     0.86526   0.77941   0.10630   0.00000  Uiso   1.00
C381   C     0.80110   0.72081   0.39364   0.00000  Uiso   1.00
C382   C     0.86231   0.78358   0.05672   0.00000  Uiso   1.00
Cl383  Cl    0.98828   0.70242   0.18911   0.00000  Uiso   1.00
Cl384  Cl    0.67834   0.79746   0.31097   0.00000  Uiso   1.00
Cl385  Cl    0.90860   0.81469   0.14269   0.00000  Uiso   1.00
Cl386  Cl    0.75718   0.68608   0.35720   0.00000  Uiso   1.00
Cl387  Cl    0.88486   0.83555   0.03597   0.00000  Uiso   1.00
Cl388  Cl    0.78139   0.66444   0.46367   0.00000  Uiso   1.00
H389   H     0.80482   0.52355   0.30701   0.00000  Uiso   1.00
H390   H     0.89827   0.79427   0.38577   0.00000  Uiso   1.00
H391   H     0.98747   0.53863   0.23290   0.00000  Uiso   1.00
H392   H     0.95906   0.98231   0.23005   0.00000  Uiso   1.00
H393   H     0.99052   0.50374   0.18210   0.00000  Uiso   1.00
H394   H     0.89205   0.50516   0.16429   0.00000  Uiso   1.00
H395   H     0.92348   0.55802   0.16032   0.00000  Uiso   1.00
H396   H     0.98336   0.96650   0.31456   0.00000  Uiso   1.00
H397   H     0.95442   0.52188   0.30808   0.00000  Uiso   1.00
H398   H     0.98072   0.50148   0.36536   0.00000  Uiso   1.00
H399   H     0.88209   0.99686   0.35142   0.00000  Uiso   1.00
H400   H     0.81208   0.97535   0.18299   0.00000  Uiso   1.00
H401   H     0.91329   0.94508   0.36568   0.00000  Uiso   1.00
H402   H     0.79360   0.60450   0.30668   0.00000  Uiso   1.00
H403   H     0.80098   0.89413   0.18059   0.00000  Uiso   1.00
H404   H     0.89108   0.61845   0.19608   0.00000  Uiso   1.00
H405   H     0.88505   0.88368   0.32089   0.00000  Uiso   1.00
H406   H     0.76170   0.71035   0.02979   0.00000  Uiso   1.00
H407   H     0.90532   0.78903   0.47040   0.00000  Uiso   1.00
H408   H     0.76882   0.70528   0.11436   0.00000  Uiso   1.00
N409   N     0.83333   0.74999   0.12624   0.00000  Uiso   1.00
N410   N     0.83333   0.75001   0.37377   0.00000  Uiso   1.00
O411   O     0.83334   0.68453   0.28974   0.00000  Uiso   1.00
O412   O     0.83333   0.81546   0.21026   0.00000  Uiso   1.00
O413   O     0.83334   0.68453   0.21026   0.00000  Uiso   1.00
O414   O     0.83333   0.81547   0.28974   0.00000  Uiso   1.00
O415   O     0.75725   0.75000   0.28045   0.00000  Uiso   1.00
O416   O     0.90942   0.75000   0.21956   0.00000  Uiso   1.00
O417   O     0.75725   0.74999   0.20097   0.00000  Uiso   1.00
O418   O     0.90942   0.75000   0.29904   0.00000  Uiso   1.00
Zn419  Zn    0.83333   0.75000   0.30307   0.00000  Uiso   1.00
Zn420  Zn    0.83333   0.74999   0.19693   0.00000  Uiso   1.00
C421   C     0.16769   0.16392   0.75021   0.00000  Uiso   1.00
C422   C     0.13745   0.21646   0.94319   0.00000  Uiso   1.00
C423   C     0.16508   0.25212   0.52671   0.00000  Uiso   1.00
C424   C     0.16828   0.24767   0.97330   0.00000  Uiso   1.00
C425   C     0.06732   0.24953   0.73808   0.00000  Uiso   1.00
C426   C     0.26601   0.25043   0.76193   0.00000  Uiso   1.00
C427   C     0.01328   0.24187   0.73330   0.00000  Uiso   1.00
C428   C     0.32004   0.25807   0.76672   0.00000  Uiso   1.00
C429   C     0.15869   0.04409   0.78376   0.00000  Uiso   1.00
C430   C     0.16313   0.45553   0.71267   0.00000  Uiso   1.00
C431   C     0.15162   0.08985   0.78315   0.00000  Uiso   1.00
C432   C     0.16793   0.33613   0.75006   0.00000  Uiso   1.00
C433   C     0.15604   0.40959   0.71154   0.00000  Uiso   1.00
C434   C     0.17478   0.11619   0.75108   0.00000  Uiso   1.00
C435   C     0.17523   0.38409   0.75088   0.00000  Uiso   1.00
C436   C     0.20621   0.09716   0.72036   0.00000  Uiso   1.00
C437   C     0.20302   0.40422   0.79089   0.00000  Uiso   1.00
C438   C     0.21467   0.05108   0.72105   0.00000  Uiso   1.00
C439   C     0.21133   0.45050   0.79243   0.00000  Uiso   1.00
C440   C     0.19045   0.02460   0.75354   0.00000  Uiso   1.00
C441   C     0.19091   0.47610   0.75246   0.00000  Uiso   1.00
C442   C     0.24749   0.03170   0.68580   0.00000  Uiso   1.00
C443   C     0.12824   0.22689   0.54917   0.00000  Uiso   1.00
C444   C     0.29923   0.01301   0.70951   0.00000  Uiso   1.00
C445   C     0.23971   0.47103   0.83747   0.00000  Uiso   1.00
C446   C     0.29277   0.49141   0.83058   0.00000  Uiso   1.00
C447   C     0.20534   0.27272   0.95091   0.00000  Uiso   1.00
C448   C     0.13044   0.22537   0.59839   0.00000  Uiso   1.00
C449   C     0.20314   0.27433   0.90168   0.00000  Uiso   1.00
C450   C     0.19860   0.27941   0.60630   0.00000  Uiso   1.00
C451   C     0.13444   0.22081   0.89364   0.00000  Uiso   1.00
C452   C     0.19564   0.28358   0.55672   0.00000  Uiso   1.00
Cl453  Cl    0.32161   0.20242   0.68911   0.00000  Uiso   1.00
Cl454  Cl    0.01167   0.29746   0.81097   0.00000  Uiso   1.00
Cl455  Cl    0.24194   0.31469   0.64269   0.00000  Uiso   1.00
Cl456  Cl    0.09051   0.18608   0.85720   0.00000  Uiso   1.00
Cl457  Cl    0.21820   0.33555   0.53597   0.00000  Uiso   1.00
Cl458  Cl    0.11472   0.16444   0.96367   0.00000  Uiso   1.00
H459   H     0.13816   0.02355   0.80701   0.00000  Uiso   1.00
H460   H     0.23161   0.29427   0.88577   0.00000  Uiso   1.00
H461   H     0.32080   0.03863   0.73290   0.00000  Uiso   1.00
H462   H     0.29239   0.48231   0.73005   0.00000  Uiso   1.00
H463   H     0.32385   0.00374   0.68210   0.00000  Uiso   1.00
H464   H     0.22539   0.00516   0.66429   0.00000  Uiso   1.00
H465   H     0.25682   0.05802   0.66032   0.00000  Uiso   1.00
H466   H     0.31669   0.46650   0.81456   0.00000  Uiso   1.00
H467   H     0.28776   0.02188   0.80808   0.00000  Uiso   1.00
H468   H     0.31405   0.00148   0.86536   0.00000  Uiso   1.00
H469   H     0.21543   0.49686   0.85142   0.00000  Uiso   1.00
H470   H     0.14541   0.47535   0.68299   0.00000  Uiso   1.00
H471   H     0.24663   0.44508   0.86568   0.00000  Uiso   1.00
H472   H     0.12694   0.10450   0.80668   0.00000  Uiso   1.00
H473   H     0.13432   0.39413   0.68059   0.00000  Uiso   1.00
H474   H     0.22441   0.11845   0.69608   0.00000  Uiso   1.00
H475   H     0.21838   0.38368   0.82089   0.00000  Uiso   1.00
H476   H     0.09504   0.21035   0.52979   0.00000  Uiso   1.00
H477   H     0.23865   0.28903   0.97040   0.00000  Uiso   1.00
H478   H     0.10216   0.20528   0.61436   0.00000  Uiso   1.00
N479   N     0.16667   0.24999   0.62624   0.00000  Uiso   1.00
N480   N     0.16667   0.25001   0.87377   0.00000  Uiso   1.00
O481   O     0.16667   0.18453   0.78974   0.00000  Uiso   1.00
O482   O     0.16666   0.31546   0.71026   0.00000  Uiso   1.00
O483   O     0.16667   0.18453   0.71026   0.00000  Uiso   1.00
O484   O     0.16666   0.31547   0.78974   0.00000  Uiso   1.00
O485   O     0.09058   0.25000   0.78045   0.00000  Uiso   1.00
O486   O     0.24275   0.25000   0.71956   0.00000  Uiso   1.00
O487   O     0.09058   0.24999   0.70097   0.00000  Uiso   1.00
O488   O     0.24275   0.25000   0.79904   0.00000  Uiso   1.00
Zn489  Zn    0.16667   0.25000   0.80307   0.00000  Uiso   1.00
Zn490  Zn    0.16667   0.24999   0.69693   0.00000  Uiso   1.00
C491   C     0.50102   0.16392   0.75021   0.00000  Uiso   1.00
C492   C     0.47079   0.21646   0.94319   0.00000  Uiso   1.00
C493   C     0.49842   0.25212   0.52671   0.00000  Uiso   1.00
C494   C     0.50161   0.24767   0.97330   0.00000  Uiso   1.00
C495   C     0.40066   0.24953   0.73808   0.00000  Uiso   1.00
C496   C     0.59934   0.25043   0.76193   0.00000  Uiso   1.00
C497   C     0.34661   0.24187   0.73330   0.00000  Uiso   1.00
C498   C     0.65338   0.25807   0.76672   0.00000  Uiso   1.00
C499   C     0.49203   0.04409   0.78376   0.00000  Uiso   1.00
C500   C     0.49646   0.45553   0.71267   0.00000  Uiso   1.00
C501   C     0.48495   0.08985   0.78315   0.00000  Uiso   1.00
C502   C     0.50127   0.33613   0.75006   0.00000  Uiso   1.00
C503   C     0.48937   0.40959   0.71154   0.00000  Uiso   1.00
C504   C     0.50812   0.11619   0.75108   0.00000  Uiso   1.00
C505   C     0.50856   0.38409   0.75088   0.00000  Uiso   1.00
C506   C     0.53955   0.09716   0.72036   0.00000  Uiso   1.00
C507   C     0.53636   0.40422   0.79089   0.00000  Uiso   1.00
C508   C     0.54800   0.05108   0.72105   0.00000  Uiso   1.00
C509   C     0.54466   0.45050   0.79243   0.00000  Uiso   1.00
C510   C     0.52379   0.02460   0.75354   0.00000  Uiso   1.00
C511   C     0.52424   0.47610   0.75246   0.00000  Uiso   1.00
C512   C     0.58082   0.03170   0.68580   0.00000  Uiso   1.00
C513   C     0.46157   0.22689   0.54917   0.00000  Uiso   1.00
C514   C     0.63257   0.01301   0.70951   0.00000  Uiso   1.00
C515   C     0.57305   0.47103   0.83747   0.00000  Uiso   1.00
C516   C     0.62610   0.49141   0.83058   0.00000  Uiso   1.00
C517   C     0.53867   0.27272   0.95091   0.00000  Uiso   1.00
C518   C     0.46378   0.22537   0.59839   0.00000  Uiso   1.00
C519   C     0.53648   0.27433   0.90168   0.00000  Uiso   1.00
C520   C     0.53193   0.27941   0.60630   0.00000  Uiso   1.00
C521   C     0.46777   0.22081   0.89364   0.00000  Uiso   1.00
C522   C     0.52898   0.28358   0.55672   0.00000  Uiso   1.00
Cl523  Cl    0.65494   0.20242   0.68911   0.00000  Uiso   1.00
Cl524  Cl    0.34501   0.29746   0.81097   0.00000  Uiso   1.00
Cl525  Cl    0.57527   0.31469   0.64269   0.00000  Uiso   1.00
Cl526  Cl    0.42385   0.18608   0.85720   0.00000  Uiso   1.00
Cl527  Cl    0.55153   0.33555   0.53597   0.00000  Uiso   1.00
Cl528  Cl    0.44806   0.16444   0.96367   0.00000  Uiso   1.00
H529   H     0.47149   0.02355   0.80701   0.00000  Uiso   1.00
H530   H     0.56494   0.29427   0.88577   0.00000  Uiso   1.00
H531   H     0.65413   0.03863   0.73290   0.00000  Uiso   1.00
H532   H     0.62573   0.48231   0.73005   0.00000  Uiso   1.00
H533   H     0.65719   0.00374   0.68210   0.00000  Uiso   1.00
H534   H     0.55872   0.00516   0.66429   0.00000  Uiso   1.00
H535   H     0.59015   0.05802   0.66032   0.00000  Uiso   1.00
H536   H     0.65003   0.46650   0.81456   0.00000  Uiso   1.00
H537   H     0.62109   0.02188   0.80808   0.00000  Uiso   1.00
H538   H     0.64738   0.00148   0.86536   0.00000  Uiso   1.00
H539   H     0.54876   0.49686   0.85142   0.00000  Uiso   1.00
H540   H     0.47875   0.47535   0.68299   0.00000  Uiso   1.00
H541   H     0.57996   0.44508   0.86568   0.00000  Uiso   1.00
H542   H     0.46027   0.10450   0.80668   0.00000  Uiso   1.00
H543   H     0.46765   0.39413   0.68059   0.00000  Uiso   1.00
H544   H     0.55775   0.11845   0.69608   0.00000  Uiso   1.00
H545   H     0.55172   0.38368   0.82089   0.00000  Uiso   1.00
H546   H     0.42837   0.21035   0.52979   0.00000  Uiso   1.00
H547   H     0.57199   0.28903   0.97040   0.00000  Uiso   1.00
H548   H     0.43549   0.20528   0.61436   0.00000  Uiso   1.00
N549   N     0.50000   0.24999   0.62624   0.00000  Uiso   1.00
N550   N     0.50000   0.25001   0.87377   0.00000  Uiso   1.00
O551   O     0.50000   0.18453   0.78974   0.00000  Uiso   1.00
O552   O     0.50000   0.31546   0.71026   0.00000  Uiso   1.00
O553   O     0.50000   0.18453   0.71026   0.00000  Uiso   1.00
O554   O     0.50000   0.31547   0.78974   0.00000  Uiso   1.00
O555   O     0.42392   0.25000   0.78045   0.00000  Uiso   1.00
O556   O     0.57608   0.25000   0.71956   0.00000  Uiso   1.00
O557   O     0.42392   0.24999   0.70097   0.00000  Uiso   1.00
O558   O     0.57608   0.25000   0.79904   0.00000  Uiso   1.00
Zn559  Zn    0.50000   0.25000   0.80307   0.00000  Uiso   1.00
Zn560  Zn    0.50000   0.24999   0.69693   0.00000  Uiso   1.00
C561   C     0.83436   0.16392   0.75021   0.00000  Uiso   1.00
C562   C     0.80412   0.21646   0.94319   0.00000  Uiso   1.00
C563   C     0.83175   0.25212   0.52671   0.00000  Uiso   1.00
C564   C     0.83495   0.24767   0.97330   0.00000  Uiso   1.00
C565   C     0.73399   0.24953   0.73808   0.00000  Uiso   1.00
C566   C     0.93267   0.25043   0.76193   0.00000  Uiso   1.00
C567   C     0.67994   0.24187   0.73330   0.00000  Uiso   1.00
C568   C     0.98671   0.25807   0.76672   0.00000  Uiso   1.00
C569   C     0.82536   0.04409   0.78376   0.00000  Uiso   1.00
C570   C     0.82980   0.45553   0.71267   0.00000  Uiso   1.00
C571   C     0.81828   0.08985   0.78315   0.00000  Uiso   1.00
C572   C     0.83460   0.33613   0.75006   0.00000  Uiso   1.00
C573   C     0.82270   0.40959   0.71154   0.00000  Uiso   1.00
C574   C     0.84145   0.11619   0.75108   0.00000  Uiso   1.00
C575   C     0.84190   0.38409   0.75088   0.00000  Uiso   1.00
C576   C     0.87288   0.09716   0.72036   0.00000  Uiso   1.00
C577   C     0.86969   0.40422   0.79089   0.00000  Uiso   1.00
C578   C     0.88133   0.05108   0.72105   0.00000  Uiso   1.00
C579   C     0.87800   0.45050   0.79243   0.00000  Uiso   1.00
C580   C     0.85712   0.02460   0.75354   0.00000  Uiso   1.00
C581   C     0.85757   0.47610   0.75246   0.00000  Uiso   1.00
C582   C     0.91415   0.03170   0.68580   0.00000  Uiso   1.00
C583   C     0.79491   0.22689   0.54917   0.00000  Uiso   1.00
C584   C     0.96590   0.01301   0.70951   0.00000  Uiso   1.00
C585   C     0.90638   0.47103   0.83747   0.00000  Uiso   1.00
C586   C     0.95944   0.49141   0.83058   0.00000  Uiso   1.00
C587   C     0.87201   0.27272   0.95091   0.00000  Uiso   1.00
C588   C     0.79711   0.22537   0.59839   0.00000  Uiso   1.00
C589   C     0.86981   0.27433   0.90168   0.00000  Uiso   1.00
C590   C     0.86526   0.27941   0.60630   0.00000  Uiso   1.00
C591   C     0.80110   0.22081   0.89364   0.00000  Uiso   1.00
C592   C     0.86231   0.28358   0.55672   0.00000  Uiso   1.00
Cl593  Cl    0.98828   0.20242   0.68911   0.00000  Uiso   1.00
Cl594  Cl    0.67834   0.29746   0.81097   0.00000  Uiso   1.00
Cl595  Cl    0.90860   0.31469   0.64269   0.00000  Uiso   1.00
Cl596  Cl    0.75718   0.18608   0.85720   0.00000  Uiso   1.00
Cl597  Cl    0.88486   0.33555   0.53597   0.00000  Uiso   1.00
Cl598  Cl    0.78139   0.16444   0.96367   0.00000  Uiso   1.00
H599   H     0.80482   0.02355   0.80701   0.00000  Uiso   1.00
H600   H     0.89827   0.29427   0.88577   0.00000  Uiso   1.00
H601   H     0.98747   0.03863   0.73290   0.00000  Uiso   1.00
H602   H     0.95906   0.48231   0.73005   0.00000  Uiso   1.00
H603   H     0.99052   0.00374   0.68210   0.00000  Uiso   1.00
H604   H     0.89205   0.00516   0.66429   0.00000  Uiso   1.00
H605   H     0.92348   0.05802   0.66032   0.00000  Uiso   1.00
H606   H     0.98336   0.46650   0.81456   0.00000  Uiso   1.00
H607   H     0.95442   0.02188   0.80808   0.00000  Uiso   1.00
H608   H     0.98072   0.00148   0.86536   0.00000  Uiso   1.00
H609   H     0.88209   0.49686   0.85142   0.00000  Uiso   1.00
H610   H     0.81208   0.47535   0.68299   0.00000  Uiso   1.00
H611   H     0.91329   0.44508   0.86568   0.00000  Uiso   1.00
H612   H     0.79360   0.10450   0.80668   0.00000  Uiso   1.00
H613   H     0.80098   0.39413   0.68059   0.00000  Uiso   1.00
H614   H     0.89108   0.11845   0.69608   0.00000  Uiso   1.00
H615   H     0.88505   0.38368   0.82089   0.00000  Uiso   1.00
H616   H     0.76170   0.21035   0.52979   0.00000  Uiso   1.00
H617   H     0.90532   0.28903   0.97040   0.00000  Uiso   1.00
H618   H     0.76882   0.20528   0.61436   0.00000  Uiso   1.00
N619   N     0.83333   0.24999   0.62624   0.00000  Uiso   1.00
N620   N     0.83333   0.25001   0.87377   0.00000  Uiso   1.00
O621   O     0.83334   0.18453   0.78974   0.00000  Uiso   1.00
O622   O     0.83333   0.31546   0.71026   0.00000  Uiso   1.00
O623   O     0.83334   0.18453   0.71026   0.00000  Uiso   1.00
O624   O     0.83333   0.31547   0.78974   0.00000  Uiso   1.00
O625   O     0.75725   0.25000   0.78045   0.00000  Uiso   1.00
O626   O     0.90942   0.25000   0.71956   0.00000  Uiso   1.00
O627   O     0.75725   0.24999   0.70097   0.00000  Uiso   1.00
O628   O     0.90942   0.25000   0.79904   0.00000  Uiso   1.00
Zn629  Zn    0.83333   0.25000   0.80307   0.00000  Uiso   1.00
Zn630  Zn    0.83333   0.24999   0.69693   0.00000  Uiso   1.00
C631   C     0.16769   0.66392   0.75021   0.00000  Uiso   1.00
C632   C     0.13745   0.71646   0.94319   0.00000  Uiso   1.00
C633   C     0.16508   0.75212   0.52671   0.00000  Uiso   1.00
C634   C     0.16828   0.74767   0.97330   0.00000  Uiso   1.00
C635   C     0.06732   0.74953   0.73808   0.00000  Uiso   1.00
C636   C     0.26601   0.75043   0.76193   0.00000  Uiso   1.00
C637   C     0.01328   0.74187   0.73330   0.00000  Uiso   1.00
C638   C     0.32004   0.75807   0.76672   0.00000  Uiso   1.00
C639   C     0.15869   0.54409   0.78376   0.00000  Uiso   1.00
C640   C     0.16313   0.95553   0.71267   0.00000  Uiso   1.00
C641   C     0.15162   0.58985   0.78315   0.00000  Uiso   1.00
C642   C     0.16793   0.83613   0.75006   0.00000  Uiso   1.00
C643   C     0.15604   0.90959   0.71154   0.00000  Uiso   1.00
C644   C     0.17478   0.61619   0.75108   0.00000  Uiso   1.00
C645   C     0.17523   0.88409   0.75088   0.00000  Uiso   1.00
C646   C     0.20621   0.59716   0.72036   0.00000  Uiso   1.00
C647   C     0.20302   0.90422   0.79089   0.00000  Uiso   1.00
C648   C     0.21467   0.55108   0.72105   0.00000  Uiso   1.00
C649   C     0.21133   0.95050   0.79243   0.00000  Uiso   1.00
C650   C     0.19045   0.52460   0.75354   0.00000  Uiso   1.00
C651   C     0.19091   0.97610   0.75246   0.00000  Uiso   1.00
C652   C     0.24749   0.53170   0.68580   0.00000  Uiso   1.00
C653   C     0.12824   0.72689   0.54917   0.00000  Uiso   1.00
C654   C     0.29923   0.51301   0.70951   0.00000  Uiso   1.00
C655   C     0.23971   0.97103   0.83747   0.00000  Uiso   1.00
C656   C     0.29277   0.99141   0.83058   0.00000  Uiso   1.00
C657   C     0.20534   0.77272   0.95091   0.00000  Uiso   1.00
C658   C     0.13044   0.72537   0.59839   0.00000  Uiso   1.00
C659   C     0.20314   0.77433   0.90168   0.00000  Uiso   1.00
C660   C     0.19860   0.77941   0.60630   0.00000  Uiso   1.00
C661   C     0.13444   0.72081   0.89364   0.00000  Uiso   1.00
C662   C     0.19564   0.78358   0.55672   0.00000  Uiso   1.00
Cl663  Cl    0.32161   0.70242   0.68911   0.00000  Uiso   1.00
Cl664  Cl    0.01167   0.79746   0.81097   0.00000  Uiso   1.00
Cl665  Cl    0.24194   0.81469   0.64269   0.00000  Uiso   1.00
Cl666  Cl    0.09051   0.68608   0.85720   0.00000  Uiso   1.00
Cl667  Cl    0.21820   0.83555   0.53597   0.00000  Uiso   1.00
Cl668  Cl    0.11472   0.66444   0.96367   0.00000  Uiso   1.00
H669   H     0.13816   0.52355   0.80701   0.00000  Uiso   1.00
H670   H     0.23161   0.79427   0.88577   0.00000  Uiso   1.00
H671   H     0.32080   0.53863   0.73290   0.00000  Uiso   1.00
H672   H     0.29239   0.98231   0.73005   0.00000  Uiso   1.00
H673   H     0.32385   0.50374   0.68210   0.00000  Uiso   1.00
H674   H     0.22539   0.50516   0.66429   0.00000  Uiso   1.00
H675   H     0.25682   0.55802   0.66032   0.00000  Uiso   1.00
H676   H     0.31669   0.96650   0.81456   0.00000  Uiso   1.00
H677   H     0.28776   0.52188   0.80808   0.00000  Uiso   1.00
H678   H     0.31405   0.50148   0.86536   0.00000  Uiso   1.00
H679   H     0.21543   0.99686   0.85142   0.00000  Uiso   1.00
H680   H     0.14541   0.97535   0.68299   0.00000  Uiso   1.00
H681   H     0.24663   0.94508   0.86568   0.00000  Uiso   1.00
H682   H     0.12694   0.60450   0.80668   0.00000  Uiso   1.00
H683   H     0.13432   0.89413   0.68059   0.00000  Uiso   1.00
H684   H     0.22441   0.61845   0.69608   0.00000  Uiso   1.00
H685   H     0.21838   0.88368   0.82089   0.00000  Uiso   1.00
H686   H     0.09504   0.71035   0.52979   0.00000  Uiso   1.00
H687   H     0.23865   0.78903   0.97040   0.00000  Uiso   1.00
H688   H     0.10216   0.70528   0.61436   0.00000  Uiso   1.00
N689   N     0.16667   0.74999   0.62624   0.00000  Uiso   1.00
N690   N     0.16667   0.75001   0.87377   0.00000  Uiso   1.00
O691   O     0.16667   0.68453   0.78974   0.00000  Uiso   1.00
O692   O     0.16666   0.81546   0.71026   0.00000  Uiso   1.00
O693   O     0.16667   0.68453   0.71026   0.00000  Uiso   1.00
O694   O     0.16666   0.81547   0.78974   0.00000  Uiso   1.00
O695   O     0.09058   0.75000   0.78045   0.00000  Uiso   1.00
O696   O     0.24275   0.75000   0.71956   0.00000  Uiso   1.00
O697   O     0.09058   0.74999   0.70097   0.00000  Uiso   1.00
O698   O     0.24275   0.75000   0.79904   0.00000  Uiso   1.00
Zn699  Zn    0.16667   0.75000   0.80307   0.00000  Uiso   1.00
Zn700  Zn    0.16667   0.74999   0.69693   0.00000  Uiso   1.00
C701   C     0.50102   0.66392   0.75021   0.00000  Uiso   1.00
C702   C     0.47079   0.71646   0.94319   0.00000  Uiso   1.00
C703   C     0.49842   0.75212   0.52671   0.00000  Uiso   1.00
C704   C     0.50161   0.74767   0.97330   0.00000  Uiso   1.00
C705   C     0.40066   0.74953   0.73808   0.00000  Uiso   1.00
C706   C     0.59934   0.75043   0.76193   0.00000  Uiso   1.00
C707   C     0.34661   0.74187   0.73330   0.00000  Uiso   1.00
C708   C     0.65338   0.75807   0.76672   0.00000  Uiso   1.00
C709   C     0.49203   0.54409   0.78376   0.00000  Uiso   1.00
C710   C     0.49646   0.95553   0.71267   0.00000  Uiso   1.00
C711   C     0.48495   0.58985   0.78315   0.00000  Uiso   1.00
C712   C     0.50127   0.83613   0.75006   0.00000  Uiso   1.00
C713   C     0.48937   0.90959   0.71154   0.00000  Uiso   1.00
C714   C     0.50812   0.61619   0.75108   0.00000  Uiso   1.00
C715   C     0.50856   0.88409   0.75088   0.00000  Uiso   1.00
C716   C     0.53955   0.59716   0.72036   0.00000  Uiso   1.00
C717   C     0.53636   0.90422   0.79089   0.00000  Uiso   1.00
C718   C     0.54800   0.55108   0.72105   0.00000  Uiso   1.00
C719   C     0.54466   0.95050   0.79243   0.00000  Uiso   1.00
C720   C     0.52379   0.52460   0.75354   0.00000  Uiso   1.00
C721   C     0.52424   0.97610   0.75246   0.00000  Uiso   1.00
C722   C     0.58082   0.53170   0.68580   0.00000  Uiso   1.00
C723   C     0.46157   0.72689   0.54917   0.00000  Uiso   1.00
C724   C     0.63257   0.51301   0.70951   0.00000  Uiso   1.00
C725   C     0.57305   0.97103   0.83747   0.00000  Uiso   1.00
C726   C     0.62610   0.99141   0.83058   0.00000  Uiso   1.00
C727   C     0.53867   0.77272   0.95091   0.00000  Uiso   1.00
C728   C     0.46378   0.72537   0.59839   0.00000  Uiso   1.00
C729   C     0.53648   0.77433   0.90168   0.00000  Uiso   1.00
C730   C     0.53193   0.77941   0.60630   0.00000  Uiso   1.00
C731   C     0.46777   0.72081   0.89364   0.00000  Uiso   1.00
C732   C     0.52898   0.78358   0.55672   0.00000  Uiso   1.00
Cl733  Cl    0.65494   0.70242   0.68911   0.00000  Uiso   1.00
Cl734  Cl    0.34501   0.79746   0.81097   0.00000  Uiso   1.00
Cl735  Cl    0.57527   0.81469   0.64269   0.00000  Uiso   1.00
Cl736  Cl    0.42385   0.68608   0.85720   0.00000  Uiso   1.00
Cl737  Cl    0.55153   0.83555   0.53597   0.00000  Uiso   1.00
Cl738  Cl    0.44806   0.66444   0.96367   0.00000  Uiso   1.00
H739   H     0.47149   0.52355   0.80701   0.00000  Uiso   1.00
H740   H     0.56494   0.79427   0.88577   0.00000  Uiso   1.00
H741   H     0.65413   0.53863   0.73290   0.00000  Uiso   1.00
H742   H     0.62573   0.98231   0.73005   0.00000  Uiso   1.00
H743   H     0.65719   0.50374   0.68210   0.00000  Uiso   1.00
H744   H     0.55872   0.50516   0.66429   0.00000  Uiso   1.00
H745   H     0.59015   0.55802   0.66032   0.00000  Uiso   1.00
H746   H     0.65003   0.96650   0.81456   0.00000  Uiso   1.00
H747   H     0.62109   0.52188   0.80808   0.00000  Uiso   1.00
H748   H     0.64738   0.50148   0.86536   0.00000  Uiso   1.00
H749   H     0.54876   0.99686   0.85142   0.00000  Uiso   1.00
H750   H     0.47875   0.97535   0.68299   0.00000  Uiso   1.00
H751   H     0.57996   0.94508   0.86568   0.00000  Uiso   1.00
H752   H     0.46027   0.60450   0.80668   0.00000  Uiso   1.00
H753   H     0.46765   0.89413   0.68059   0.00000  Uiso   1.00
H754   H     0.55775   0.61845   0.69608   0.00000  Uiso   1.00
H755   H     0.55172   0.88368   0.82089   0.00000  Uiso   1.00
H756   H     0.42837   0.71035   0.52979   0.00000  Uiso   1.00
H757   H     0.57199   0.78903   0.97040   0.00000  Uiso   1.00
H758   H     0.43549   0.70528   0.61436   0.00000  Uiso   1.00
N759   N     0.50000   0.74999   0.62624   0.00000  Uiso   1.00
N760   N     0.50000   0.75001   0.87377   0.00000  Uiso   1.00
O761   O     0.50000   0.68453   0.78974   0.00000  Uiso   1.00
O762   O     0.50000   0.81546   0.71026   0.00000  Uiso   1.00
O763   O     0.50000   0.68453   0.71026   0.00000  Uiso   1.00
O764   O     0.50000   0.81547   0.78974   0.00000  Uiso   1.00
O765   O     0.42392   0.75000   0.78045   0.00000  Uiso   1.00
O766   O     0.57608   0.75000   0.71956   0.00000  Uiso   1.00
O767   O     0.42392   0.74999   0.70097   0.00000  Uiso   1.00
O768   O     0.57608   0.75000   0.79904   0.00000  Uiso   1.00
Zn769  Zn    0.50000   0.75000   0.80307   0.00000  Uiso   1.00
Zn770  Zn    0.50000   0.74999   0.69693   0.00000  Uiso   1.00
C771   C     0.83436   0.66392   0.75021   0.00000  Uiso   1.00
C772   C     0.80412   0.71646   0.94319   0.00000  Uiso   1.00
C773   C     0.83175   0.75212   0.52671   0.00000  Uiso   1.00
C774   C     0.83495   0.74767   0.97330   0.00000  Uiso   1.00
C775   C     0.73399   0.74953   0.73808   0.00000  Uiso   1.00
C776   C     0.93267   0.75043   0.76193   0.00000  Uiso   1.00
C777   C     0.67994   0.74187   0.73330   0.00000  Uiso   1.00
C778   C     0.98671   0.75807   0.76672   0.00000  Uiso   1.00
C779   C     0.82536   0.54409   0.78376   0.00000  Uiso   1.00
C780   C     0.82980   0.95553   0.71267   0.00000  Uiso   1.00
C781   C     0.81828   0.58985   0.78315   0.00000  Uiso   1.00
C782   C     0.83460   0.83613   0.75006   0.00000  Uiso   1.00
C783   C     0.82270   0.90959   0.71154   0.00000  Uiso   1.00
C784   C     0.84145   0.61619   0.75108   0.00000  Uiso   1.00
C785   C     0.84190   0.88409   0.75088   0.00000  Uiso   1.00
C786   C     0.87288   0.59716   0.72036   0.00000  Uiso   1.00
C787   C     0.86969   0.90422   0.79089   0.00000  Uiso   1.00
C788   C     0.88133   0.55108   0.72105   0.00000  Uiso   1.00
C789   C     0.87800   0.95050   0.79243   0.00000  Uiso   1.00
C790   C     0.85712   0.52460   0.75354   0.00000  Uiso   1.00
C791   C     0.85757   0.97610   0.75246   0.00000  Uiso   1.00
C792   C     0.91415   0.53170   0.68580   0.00000  Uiso   1.00
C793   C     0.79491   0.72689   0.54917   0.00000  Uiso   1.00
C794   C     0.96590   0.51301   0.70951   0.00000  Uiso   1.00
C795   C     0.90638   0.97103   0.83747   0.00000  Uiso   1.00
C796   C     0.95944   0.99141   0.83058   0.00000  Uiso   1.00
C797   C     0.87201   0.77272   0.95091   0.00000  Uiso   1.00
C798   C     0.79711   0.72537   0.59839   0.00000  Uiso   1.00
C799   C     0.86981   0.77433   0.90168   0.00000  Uiso   1.00
C800   C     0.86526   0.77941   0.60630   0.00000  Uiso   1.00
C801   C     0.80110   0.72081   0.89364   0.00000  Uiso   1.00
C802   C     0.86231   0.78358   0.55672   0.00000  Uiso   1.00
Cl803  Cl    0.98828   0.70242   0.68911   0.00000  Uiso   1.00
Cl804  Cl    0.67834   0.79746   0.81097   0.00000  Uiso   1.00
Cl805  Cl    0.90860   0.81469   0.64269   0.00000  Uiso   1.00
Cl806  Cl    0.75718   0.68608   0.85720   0.00000  Uiso   1.00
Cl807  Cl    0.88486   0.83555   0.53597   0.00000  Uiso   1.00
Cl808  Cl    0.78139   0.66444   0.96367   0.00000  Uiso   1.00
H809   H     0.80482   0.52355   0.80701   0.00000  Uiso   1.00
H810   H     0.89827   0.79427   0.88577   0.00000  Uiso   1.00
H811   H     0.98747   0.53863   0.73290   0.00000  Uiso   1.00
H812   H     0.95906   0.98231   0.73005   0.00000  Uiso   1.00
H813   H     0.99052   0.50374   0.68210   0.00000  Uiso   1.00
H814   H     0.89205   0.50516   0.66429   0.00000  Uiso   1.00
H815   H     0.92348   0.55802   0.66032   0.00000  Uiso   1.00
H816   H     0.98336   0.96650   0.81456   0.00000  Uiso   1.00
H817   H     0.95442   0.52188   0.80808   0.00000  Uiso   1.00
H818   H     0.98072   0.50148   0.86536   0.00000  Uiso   1.00
H819   H     0.88209   0.99686   0.85142   0.00000  Uiso   1.00
H820   H     0.81208   0.97535   0.68299   0.00000  Uiso   1.00
H821   H     0.91329   0.94508   0.86568   0.00000  Uiso   1.00
H822   H     0.79360   0.60450   0.80668   0.00000  Uiso   1.00
H823   H     0.80098   0.89413   0.68059   0.00000  Uiso   1.00
H824   H     0.89108   0.61845   0.69608   0.00000  Uiso   1.00
H825   H     0.88505   0.88368   0.82089   0.00000  Uiso   1.00
H826   H     0.76170   0.71035   0.52979   0.00000  Uiso   1.00
H827   H     0.90532   0.78903   0.97040   0.00000  Uiso   1.00
H828   H     0.76882   0.70528   0.61436   0.00000  Uiso   1.00
N829   N     0.83333   0.74999   0.62624   0.00000  Uiso   1.00
N830   N     0.83333   0.75001   0.87377   0.00000  Uiso   1.00
O831   O     0.83334   0.68453   0.78974   0.00000  Uiso   1.00
O832   O     0.83333   0.81546   0.71026   0.00000  Uiso   1.00
O833   O     0.83334   0.68453   0.71026   0.00000  Uiso   1.00
O834   O     0.83333   0.81547   0.78974   0.00000  Uiso   1.00
O835   O     0.75725   0.75000   0.78045   0.00000  Uiso   1.00
O836   O     0.90942   0.75000   0.71956   0.00000  Uiso   1.00
O837   O     0.75725   0.74999   0.70097   0.00000  Uiso   1.00
O838   O     0.90942   0.75000   0.79904   0.00000  Uiso   1.00
Zn839  Zn    0.83333   0.75000   0.80307   0.00000  Uiso   1.00
Zn840  Zn    0.83333   0.74999   0.69693   0.00000  Uiso   1.00
loop_
_geom_bond_atom_site_label_1
_geom_bond_atom_site_label_2
_geom_bond_distance
_geom_bond_site_symmetry_2
_ccdc_geom_bond_type
C1     C14     1.436   .     S
C1     O63     1.290   .     A
C1     O61     1.293   .     A
C2     C4      1.429   .     A
C2     Cl38    1.772   .     S
C2     C31     1.413   .     A
C3     C23     1.419   .     A
C3     C32     1.430   .     A
C3     C424    1.546   1_554 S
C4     C27     1.419   .     A
C4     C423    1.546   .     S
C5     O67     1.286   .     A
C5     C7      1.398   .     S
C5     O65     1.278   .     A
C6     O68     1.286   .     A
C6     O66     1.278   .     A
C6     C8      1.397   .     S
C7     C148    1.343   1_455 S
C7     Cl173   1.781   1_455 S
C8     C77     1.343   .     S
C8     Cl104   1.781   .     S
C9     C11     1.378   .     A
C9     C20     1.401   .     A
C9     H39     1.084   .     S
C10    C21     1.400   .     A
C10    H50     1.084   .     S
C10    C13     1.378   .     A
C11    C14     1.391   .     A
C11    H52     1.083   .     S
C12    C15     1.438   .     S
C12    O64     1.291   .     A
C12    O62     1.293   .     A
C13    H53     1.084   .     S
C13    C15     1.392   .     A
C14    C16     1.399   .     A
C15    C17     1.400   .     A
C16    H54     1.084   .     S
C16    C18     1.392   .     A
C17    H55     1.084   .     S
C17    C19     1.392   .     A
C18    C20     1.416   .     A
C18    C22     1.521   .     S
C19    C25     1.521   .     S
C19    C21     1.416   .     A
C20    C231    1.445   1_545 S
C21    C230    1.445   .     S
C22    H45     1.112   .     S
C22    C24     1.525   .     S
C22    H44     1.108   .     S
C23    C28     1.401   .     A
C23    H56     1.071   .     S
C24    H41     1.111   .     S
C24    H43     1.110   .     S
C24    H252    1.108   1_545 S
C25    H51     1.112   .     S
C25    H49     1.108   .     S
C25    C26     1.525   .     S
C26    H46     1.111   .     S
C26    H257    1.108   .     S
C26    H258    1.110   .     S
C27    C29     1.401   .     A
C27    H57     1.072   .     S
C28    H58     1.082   .     S
C28    N59     1.354   .     A
C29    N60     1.354   .     A
C29    H40     1.082   .     S
C30    N59     1.367   .     A
C30    C32     1.414   .     A
C30    Cl35    1.762   .     S
C31    N60     1.367   .     A
C31    Cl36    1.762   .     S
C32    Cl37    1.772   .     S
Cl33   C77     1.781   .     S
Cl34   C148    1.781   1_455 S
H42    C234    1.108   .     S
H47    C236    1.108   1_545 S
H48    C236    1.110   1_545 S
N59    Zn70    2.021   .     S
N60    Zn69    2.021   .     S
O61    Zn69    1.989   .     S
O62    Zn70    1.989   .     S
O63    Zn70    1.984   .     S
O64    Zn69    1.984   .     S
O65    Zn69    1.982   .     S
O66    Zn70    1.982   .     S
O67    Zn70    1.980   .     S
O68    Zn69    1.980   .     S
C71    C84     1.436   .     S
C71    O133    1.290   .     A
C71    O131    1.293   .     A
C72    C74     1.429   .     A
C72    Cl108   1.772   .     S
C72    C101    1.413   .     A
C73    C93     1.419   .     A
C73    C102    1.430   .     A
C73    C494    1.546   1_554 S
C74    C97     1.419   .     A
C74    C493    1.546   .     S
C75    O137    1.286   .     A
C75    C77     1.398   .     S
C75    O135    1.278   .     A
C76    O138    1.286   .     A
C76    O136    1.278   .     A
C76    C78     1.397   .     S
C78    C147    1.343   .     S
C78    Cl174   1.781   .     S
C79    C81     1.378   .     A
C79    C90     1.401   .     A
C79    H109    1.084   .     S
C80    C91     1.400   .     A
C80    H120    1.084   .     S
C80    C83     1.378   .     A
C81    C84     1.391   .     A
C81    H122    1.083   .     S
C82    C85     1.438   .     S
C82    O134    1.291   .     A
C82    O132    1.293   .     A
C83    H123    1.084   .     S
C83    C85     1.392   .     A
C84    C86     1.399   .     A
C85    C87     1.400   .     A
C86    H124    1.084   .     S
C86    C88     1.392   .     A
C87    H125    1.084   .     S
C87    C89     1.392   .     A
C88    C90     1.416   .     A
C88    C92     1.521   .     S
C89    C95     1.521   .     S
C89    C91     1.416   .     A
C90    C301    1.445   1_545 S
C91    C300    1.445   .     S
C92    H115    1.112   .     S
C92    C94     1.525   .     S
C92    H114    1.108   .     S
C93    C98     1.401   .     A
C93    H126    1.071   .     S
C94    H111    1.111   .     S
C94    H113    1.110   .     S
C94    H322    1.108   1_545 S
C95    H121    1.112   .     S
C95    H119    1.108   .     S
C95    C96     1.525   .     S
C96    H116    1.111   .     S
C96    H327    1.108   .     S
C96    H328    1.110   .     S
C97    C99     1.401   .     A
C97    H127    1.072   .     S
C98    H128    1.082   .     S
C98    N129    1.354   .     A
C99    N130    1.354   .     A
C99    H110    1.082   .     S
C100   N129    1.367   .     A
C100   C102    1.414   .     A
C100   Cl105   1.762   .     S
C101   N130    1.367   .     A
C101   Cl106   1.762   .     S
C102   Cl107   1.772   .     S
Cl103  C147    1.781   .     S
H112   C304    1.108   .     S
H117   C306    1.108   1_545 S
H118   C306    1.110   1_545 S
N129   Zn140   2.021   .     S
N130   Zn139   2.021   .     S
O131   Zn139   1.989   .     S
O132   Zn140   1.989   .     S
O133   Zn140   1.984   .     S
O134   Zn139   1.984   .     S
O135   Zn139   1.982   .     S
O136   Zn140   1.982   .     S
O137   Zn140   1.980   .     S
O138   Zn139   1.980   .     S
C141   C154    1.436   .     S
C141   O203    1.290   .     A
C141   O201    1.293   .     A
C142   C144    1.429   .     A
C142   Cl178   1.772   .     S
C142   C171    1.413   .     A
C143   C163    1.419   .     A
C143   C172    1.430   .     A
C143   C564    1.546   1_554 S
C144   C167    1.419   .     A
C144   C563    1.546   .     S
C145   O207    1.286   .     A
C145   C147    1.398   .     S
C145   O205    1.278   .     A
C146   O208    1.286   .     A
C146   O206    1.278   .     A
C146   C148    1.397   .     S
C148   C7      1.343   1_655 S
C148   Cl34    1.781   1_655 S
C149   C151    1.378   .     A
C149   C160    1.401   .     A
C149   H179    1.084   .     S
C150   C161    1.400   .     A
C150   H190    1.084   .     S
C150   C153    1.378   .     A
C151   C154    1.391   .     A
C151   H192    1.083   .     S
C152   C155    1.438   .     S
C152   O204    1.291   .     A
C152   O202    1.293   .     A
C153   H193    1.084   .     S
C153   C155    1.392   .     A
C154   C156    1.399   .     A
C155   C157    1.400   .     A
C156   H194    1.084   .     S
C156   C158    1.392   .     A
C157   H195    1.084   .     S
C157   C159    1.392   .     A
C158   C160    1.416   .     A
C158   C162    1.521   .     S
C159   C165    1.521   .     S
C159   C161    1.416   .     A
C160   C371    1.445   1_545 S
C161   C370    1.445   .     S
C162   H185    1.112   .     S
C162   C164    1.525   .     S
C162   H184    1.108   .     S
C163   C168    1.401   .     A
C163   H196    1.071   .     S
C164   H181    1.111   .     S
C164   H183    1.110   .     S
C164   H392    1.108   1_545 S
C165   H191    1.112   .     S
C165   H189    1.108   .     S
C165   C166    1.525   .     S
C166   H186    1.111   .     S
C166   H397    1.108   .     S
C166   H398    1.110   .     S
C167   C169    1.401   .     A
C167   H197    1.072   .     S
C168   H198    1.082   .     S
C168   N199    1.354   .     A
C169   N200    1.354   .     A
C169   H180    1.082   .     S
C170   N199    1.367   .     A
C170   C172    1.414   .     A
C170   Cl175   1.762   .     S
C171   N200    1.367   .     A
C171   Cl176   1.762   .     S
C172   Cl177   1.772   .     S
Cl173  C7      1.781   1_655 S
H182   C374    1.108   .     S
H187   C376    1.108   1_545 S
H188   C376    1.110   1_545 S
N199   Zn210   2.021   .     S
N200   Zn209   2.021   .     S
O201   Zn209   1.989   .     S
O202   Zn210   1.989   .     S
O203   Zn210   1.984   .     S
O204   Zn209   1.984   .     S
O205   Zn209   1.982   .     S
O206   Zn210   1.982   .     S
O207   Zn210   1.980   .     S
O208   Zn209   1.980   .     S
C211   C224    1.436   .     S
C211   O273    1.290   .     A
C211   O271    1.293   .     A
C212   C214    1.429   .     A
C212   Cl248   1.772   .     S
C212   C241    1.413   .     A
C213   C233    1.419   .     A
C213   C242    1.430   .     A
C213   C634    1.546   1_554 S
C214   C237    1.419   .     A
C214   C633    1.546   .     S
C215   O277    1.286   .     A
C215   C217    1.398   .     S
C215   O275    1.278   .     A
C216   O278    1.286   .     A
C216   O276    1.278   .     A
C216   C218    1.397   .     S
C217   C358    1.343   1_455 S
C217   Cl383   1.781   1_455 S
C218   C287    1.343   .     S
C218   Cl314   1.781   .     S
C219   C221    1.378   .     A
C219   C230    1.401   .     A
C219   H249    1.084   .     S
C220   C231    1.400   .     A
C220   H260    1.084   .     S
C220   C223    1.378   .     A
C221   C224    1.391   .     A
C221   H262    1.083   .     S
C222   C225    1.438   .     S
C222   O274    1.291   .     A
C222   O272    1.293   .     A
C223   H263    1.084   .     S
C223   C225    1.392   .     A
C224   C226    1.399   .     A
C225   C227    1.400   .     A
C226   H264    1.084   .     S
C226   C228    1.392   .     A
C227   H265    1.084   .     S
C227   C229    1.392   .     A
C228   C230    1.416   .     A
C228   C232    1.521   .     S
C229   C235    1.521   .     S
C229   C231    1.416   .     A
C231   C20     1.445   1_565 S
C232   H255    1.112   .     S
C232   C234    1.525   .     S
C232   H254    1.108   .     S
C233   C238    1.401   .     A
C233   H266    1.071   .     S
C234   H251    1.111   .     S
C234   H253    1.110   .     S
C235   H261    1.112   .     S
C235   H259    1.108   .     S
C235   C236    1.525   .     S
C236   H256    1.111   .     S
C236   H47     1.108   1_565 S
C236   H48     1.110   1_565 S
C237   C239    1.401   .     A
C237   H267    1.072   .     S
C238   H268    1.082   .     S
C238   N269    1.354   .     A
C239   N270    1.354   .     A
C239   H250    1.082   .     S
C240   N269    1.367   .     A
C240   C242    1.414   .     A
C240   Cl245   1.762   .     S
C241   N270    1.367   .     A
C241   Cl246   1.762   .     S
C242   Cl247   1.772   .     S
Cl243  C287    1.781   .     S
Cl244  C358    1.781   1_455 S
H252   C24     1.108   1_565 S
N269   Zn280   2.021   .     S
N270   Zn279   2.021   .     S
O271   Zn279   1.989   .     S
O272   Zn280   1.989   .     S
O273   Zn280   1.984   .     S
O274   Zn279   1.984   .     S
O275   Zn279   1.982   .     S
O276   Zn280   1.982   .     S
O277   Zn280   1.980   .     S
O278   Zn279   1.980   .     S
C281   C294    1.436   .     S
C281   O343    1.290   .     A
C281   O341    1.293   .     A
C282   C284    1.429   .     A
C282   Cl318   1.772   .     S
C282   C311    1.413   .     A
C283   C303    1.419   .     A
C283   C312    1.430   .     A
C283   C704    1.546   1_554 S
C284   C307    1.419   .     A
C284   C703    1.546   .     S
C285   O347    1.286   .     A
C285   C287    1.398   .     S
C285   O345    1.278   .     A
C286   O348    1.286   .     A
C286   O346    1.278   .     A
C286   C288    1.397   .     S
C288   C357    1.343   .     S
C288   Cl384   1.781   .     S
C289   C291    1.378   .     A
C289   C300    1.401   .     A
C289   H319    1.084   .     S
C290   C301    1.400   .     A
C290   H330    1.084   .     S
C290   C293    1.378   .     A
C291   C294    1.391   .     A
C291   H332    1.083   .     S
C292   C295    1.438   .     S
C292   O344    1.291   .     A
C292   O342    1.293   .     A
C293   H333    1.084   .     S
C293   C295    1.392   .     A
C294   C296    1.399   .     A
C295   C297    1.400   .     A
C296   H334    1.084   .     S
C296   C298    1.392   .     A
C297   H335    1.084   .     S
C297   C299    1.392   .     A
C298   C300    1.416   .     A
C298   C302    1.521   .     S
C299   C305    1.521   .     S
C299   C301    1.416   .     A
C301   C90     1.445   1_565 S
C302   H325    1.112   .     S
C302   C304    1.525   .     S
C302   H324    1.108   .     S
C303   C308    1.401   .     A
C303   H336    1.071   .     S
C304   H321    1.111   .     S
C304   H323    1.110   .     S
C305   H331    1.112   .     S
C305   H329    1.108   .     S
C305   C306    1.525   .     S
C306   H326    1.111   .     S
C306   H117    1.108   1_565 S
C306   H118    1.110   1_565 S
C307   C309    1.401   .     A
C307   H337    1.072   .     S
C308   H338    1.082   .     S
C308   N339    1.354   .     A
C309   N340    1.354   .     A
C309   H320    1.082   .     S
C310   N339    1.367   .     A
C310   C312    1.414   .     A
C310   Cl315   1.762   .     S
C311   N340    1.367   .     A
C311   Cl316   1.762   .     S
C312   Cl317   1.772   .     S
Cl313  C357    1.781   .     S
H322   C94     1.108   1_565 S
N339   Zn350   2.021   .     S
N340   Zn349   2.021   .     S
O341   Zn349   1.989   .     S
O342   Zn350   1.989   .     S
O343   Zn350   1.984   .     S
O344   Zn349   1.984   .     S
O345   Zn349   1.982   .     S
O346   Zn350   1.982   .     S
O347   Zn350   1.980   .     S
O348   Zn349   1.980   .     S
C351   C364    1.436   .     S
C351   O413    1.290   .     A
C351   O411    1.293   .     A
C352   C354    1.429   .     A
C352   Cl388   1.772   .     S
C352   C381    1.413   .     A
C353   C373    1.419   .     A
C353   C382    1.430   .     A
C353   C774    1.546   1_554 S
C354   C377    1.419   .     A
C354   C773    1.546   .     S
C355   O417    1.286   .     A
C355   C357    1.398   .     S
C355   O415    1.278   .     A
C356   O418    1.286   .     A
C356   O416    1.278   .     A
C356   C358    1.397   .     S
C358   C217    1.343   1_655 S
C358   Cl244   1.781   1_655 S
C359   C361    1.378   .     A
C359   C370    1.401   .     A
C359   H389    1.084   .     S
C360   C371    1.400   .     A
C360   H400    1.084   .     S
C360   C363    1.378   .     A
C361   C364    1.391   .     A
C361   H402    1.083   .     S
C362   C365    1.438   .     S
C362   O414    1.291   .     A
C362   O412    1.293   .     A
C363   H403    1.084   .     S
C363   C365    1.392   .     A
C364   C366    1.399   .     A
C365   C367    1.400   .     A
C366   H404    1.084   .     S
C366   C368    1.392   .     A
C367   H405    1.084   .     S
C367   C369    1.392   .     A
C368   C370    1.416   .     A
C368   C372    1.521   .     S
C369   C375    1.521   .     S
C369   C371    1.416   .     A
C371   C160    1.445   1_565 S
C372   H395    1.112   .     S
C372   C374    1.525   .     S
C372   H394    1.108   .     S
C373   C378    1.401   .     A
C373   H406    1.071   .     S
C374   H391    1.111   .     S
C374   H393    1.110   .     S
C375   H401    1.112   .     S
C375   H399    1.108   .     S
C375   C376    1.525   .     S
C376   H396    1.111   .     S
C376   H187    1.108   1_565 S
C376   H188    1.110   1_565 S
C377   C379    1.401   .     A
C377   H407    1.072   .     S
C378   H408    1.082   .     S
C378   N409    1.354   .     A
C379   N410    1.354   .     A
C379   H390    1.082   .     S
C380   N409    1.367   .     A
C380   C382    1.414   .     A
C380   Cl385   1.762   .     S
C381   N410    1.367   .     A
C381   Cl386   1.762   .     S
C382   Cl387   1.772   .     S
Cl383  C217    1.781   1_655 S
H392   C164    1.108   1_565 S
N409   Zn420   2.021   .     S
N410   Zn419   2.021   .     S
O411   Zn419   1.989   .     S
O412   Zn420   1.989   .     S
O413   Zn420   1.984   .     S
O414   Zn419   1.984   .     S
O415   Zn419   1.982   .     S
O416   Zn420   1.982   .     S
O417   Zn420   1.980   .     S
O418   Zn419   1.980   .     S
C421   C434    1.436   .     S
C421   O483    1.290   .     A
C421   O481    1.293   .     A
C422   C424    1.429   .     A
C422   Cl458   1.772   .     S
C422   C451    1.413   .     A
C423   C443    1.419   .     A
C423   C452    1.430   .     A
C424   C447    1.419   .     A
C424   C3      1.546   1_556 S
C425   O487    1.286   .     A
C425   C427    1.398   .     S
C425   O485    1.278   .     A
C426   O488    1.286   .     A
C426   O486    1.278   .     A
C426   C428    1.397   .     S
C427   C568    1.343   1_455 S
C427   Cl593   1.781   1_455 S
C428   C497    1.343   .     S
C428   Cl524   1.781   .     S
C429   C431    1.378   .     A
C429   C440    1.401   .     A
C429   H459    1.084   .     S
C430   C441    1.400   .     A
C430   H470    1.084   .     S
C430   C433    1.378   .     A
C431   C434    1.391   .     A
C431   H472    1.083   .     S
C432   C435    1.438   .     S
C432   O484    1.291   .     A
C432   O482    1.293   .     A
C433   H473    1.084   .     S
C433   C435    1.392   .     A
C434   C436    1.399   .     A
C435   C437    1.400   .     A
C436   H474    1.084   .     S
C436   C438    1.392   .     A
C437   H475    1.084   .     S
C437   C439    1.392   .     A
C438   C440    1.416   .     A
C438   C442    1.521   .     S
C439   C445    1.521   .     S
C439   C441    1.416   .     A
C440   C651    1.445   1_545 S
C441   C650    1.445   .     S
C442   H465    1.112   .     S
C442   C444    1.525   .     S
C442   H464    1.108   .     S
C443   C448    1.401   .     A
C443   H476    1.071   .     S
C444   H461    1.111   .     S
C444   H463    1.110   .     S
C444   H672    1.108   1_545 S
C445   H471    1.112   .     S
C445   H469    1.108   .     S
C445   C446    1.525   .     S
C446   H466    1.111   .     S
C446   H677    1.108   .     S
C446   H678    1.110   .     S
C447   C449    1.401   .     A
C447   H477    1.072   .     S
C448   H478    1.082   .     S
C448   N479    1.354   .     A
C449   N480    1.354   .     A
C449   H460    1.082   .     S
C450   N479    1.367   .     A
C450   C452    1.414   .     A
C450   Cl455   1.762   .     S
C451   N480    1.367   .     A
C451   Cl456   1.762   .     S
C452   Cl457   1.772   .     S
Cl453  C497    1.781   .     S
Cl454  C568    1.781   1_455 S
H462   C654    1.108   .     S
H467   C656    1.108   1_545 S
H468   C656    1.110   1_545 S
N479   Zn490   2.021   .     S
N480   Zn489   2.021   .     S
O481   Zn489   1.989   .     S
O482   Zn490   1.989   .     S
O483   Zn490   1.984   .     S
O484   Zn489   1.984   .     S
O485   Zn489   1.982   .     S
O486   Zn490   1.982   .     S
O487   Zn490   1.980   .     S
O488   Zn489   1.980   .     S
C491   C504    1.436   .     S
C491   O553    1.290   .     A
C491   O551    1.293   .     A
C492   C494    1.429   .     A
C492   Cl528   1.772   .     S
C492   C521    1.413   .     A
C493   C513    1.419   .     A
C493   C522    1.430   .     A
C494   C517    1.419   .     A
C494   C73     1.546   1_556 S
C495   O557    1.286   .     A
C495   C497    1.398   .     S
C495   O555    1.278   .     A
C496   O558    1.286   .     A
C496   O556    1.278   .     A
C496   C498    1.397   .     S
C498   C567    1.343   .     S
C498   Cl594   1.781   .     S
C499   C501    1.378   .     A
C499   C510    1.401   .     A
C499   H529    1.084   .     S
C500   C511    1.400   .     A
C500   H540    1.084   .     S
C500   C503    1.378   .     A
C501   C504    1.391   .     A
C501   H542    1.083   .     S
C502   C505    1.438   .     S
C502   O554    1.291   .     A
C502   O552    1.293   .     A
C503   H543    1.084   .     S
C503   C505    1.392   .     A
C504   C506    1.399   .     A
C505   C507    1.400   .     A
C506   H544    1.084   .     S
C506   C508    1.392   .     A
C507   H545    1.084   .     S
C507   C509    1.392   .     A
C508   C510    1.416   .     A
C508   C512    1.521   .     S
C509   C515    1.521   .     S
C509   C511    1.416   .     A
C510   C721    1.445   1_545 S
C511   C720    1.445   .     S
C512   H535    1.112   .     S
C512   C514    1.525   .     S
C512   H534    1.108   .     S
C513   C518    1.401   .     A
C513   H546    1.071   .     S
C514   H531    1.111   .     S
C514   H533    1.110   .     S
C514   H742    1.108   1_545 S
C515   H541    1.112   .     S
C515   H539    1.108   .     S
C515   C516    1.525   .     S
C516   H536    1.111   .     S
C516   H747    1.108   .     S
C516   H748    1.110   .     S
C517   C519    1.401   .     A
C517   H547    1.072   .     S
C518   H548    1.082   .     S
C518   N549    1.354   .     A
C519   N550    1.354   .     A
C519   H530    1.082   .     S
C520   N549    1.367   .     A
C520   C522    1.414   .     A
C520   Cl525   1.762   .     S
C521   N550    1.367   .     A
C521   Cl526   1.762   .     S
C522   Cl527   1.772   .     S
Cl523  C567    1.781   .     S
H532   C724    1.108   .     S
H537   C726    1.108   1_545 S
H538   C726    1.110   1_545 S
N549   Zn560   2.021   .     S
N550   Zn559   2.021   .     S
O551   Zn559   1.989   .     S
O552   Zn560   1.989   .     S
O553   Zn560   1.984   .     S
O554   Zn559   1.984   .     S
O555   Zn559   1.982   .     S
O556   Zn560   1.982   .     S
O557   Zn560   1.980   .     S
O558   Zn559   1.980   .     S
C561   C574    1.436   .     S
C561   O623    1.290   .     A
C561   O621    1.293   .     A
C562   C564    1.429   .     A
C562   Cl598   1.772   .     S
C562   C591    1.413   .     A
C563   C583    1.419   .     A
C563   C592    1.430   .     A
C564   C587    1.419   .     A
C564   C143    1.546   1_556 S
C565   O627    1.286   .     A
C565   C567    1.398   .     S
C565   O625    1.278   .     A
C566   O628    1.286   .     A
C566   O626    1.278   .     A
C566   C568    1.397   .     S
C568   C427    1.343   1_655 S
C568   Cl454   1.781   1_655 S
C569   C571    1.378   .     A
C569   C580    1.401   .     A
C569   H599    1.084   .     S
C570   C581    1.400   .     A
C570   H610    1.084   .     S
C570   C573    1.378   .     A
C571   C574    1.391   .     A
C571   H612    1.083   .     S
C572   C575    1.438   .     S
C572   O624    1.291   .     A
C572   O622    1.293   .     A
C573   H613    1.084   .     S
C573   C575    1.392   .     A
C574   C576    1.399   .     A
C575   C577    1.400   .     A
C576   H614    1.084   .     S
C576   C578    1.392   .     A
C577   H615    1.084   .     S
C577   C579    1.392   .     A
C578   C580    1.416   .     A
C578   C582    1.521   .     S
C579   C585    1.521   .     S
C579   C581    1.416   .     A
C580   C791    1.445   1_545 S
C581   C790    1.445   .     S
C582   H605    1.112   .     S
C582   C584    1.525   .     S
C582   H604    1.108   .     S
C583   C588    1.401   .     A
C583   H616    1.071   .     S
C584   H601    1.111   .     S
C584   H603    1.110   .     S
C584   H812    1.108   1_545 S
C585   H611    1.112   .     S
C585   H609    1.108   .     S
C585   C586    1.525   .     S
C586   H606    1.111   .     S
C586   H817    1.108   .     S
C586   H818    1.110   .     S
C587   C589    1.401   .     A
C587   H617    1.072   .     S
C588   H618    1.082   .     S
C588   N619    1.354   .     A
C589   N620    1.354   .     A
C589   H600    1.082   .     S
C590   N619    1.367   .     A
C590   C592    1.414   .     A
C590   Cl595   1.762   .     S
C591   N620    1.367   .     A
C591   Cl596   1.762   .     S
C592   Cl597   1.772   .     S
Cl593  C427    1.781   1_655 S
H602   C794    1.108   .     S
H607   C796    1.108   1_545 S
H608   C796    1.110   1_545 S
N619   Zn630   2.021   .     S
N620   Zn629   2.021   .     S
O621   Zn629   1.989   .     S
O622   Zn630   1.989   .     S
O623   Zn630   1.984   .     S
O624   Zn629   1.984   .     S
O625   Zn629   1.982   .     S
O626   Zn630   1.982   .     S
O627   Zn630   1.980   .     S
O628   Zn629   1.980   .     S
C631   C644    1.436   .     S
C631   O693    1.290   .     A
C631   O691    1.293   .     A
C632   C634    1.429   .     A
C632   Cl668   1.772   .     S
C632   C661    1.413   .     A
C633   C653    1.419   .     A
C633   C662    1.430   .     A
C634   C657    1.419   .     A
C634   C213    1.546   1_556 S
C635   O697    1.286   .     A
C635   C637    1.398   .     S
C635   O695    1.278   .     A
C636   O698    1.286   .     A
C636   O696    1.278   .     A
C636   C638    1.397   .     S
C637   C778    1.343   1_455 S
C637   Cl803   1.781   1_455 S
C638   C707    1.343   .     S
C638   Cl734   1.781   .     S
C639   C641    1.378   .     A
C639   C650    1.401   .     A
C639   H669    1.084   .     S
C640   C651    1.400   .     A
C640   H680    1.084   .     S
C640   C643    1.378   .     A
C641   C644    1.391   .     A
C641   H682    1.083   .     S
C642   C645    1.438   .     S
C642   O694    1.291   .     A
C642   O692    1.293   .     A
C643   H683    1.084   .     S
C643   C645    1.392   .     A
C644   C646    1.399   .     A
C645   C647    1.400   .     A
C646   H684    1.084   .     S
C646   C648    1.392   .     A
C647   H685    1.084   .     S
C647   C649    1.392   .     A
C648   C650    1.416   .     A
C648   C652    1.521   .     S
C649   C655    1.521   .     S
C649   C651    1.416   .     A
C651   C440    1.445   1_565 S
C652   H675    1.112   .     S
C652   C654    1.525   .     S
C652   H674    1.108   .     S
C653   C658    1.401   .     A
C653   H686    1.071   .     S
C654   H671    1.111   .     S
C654   H673    1.110   .     S
C655   H681    1.112   .     S
C655   H679    1.108   .     S
C655   C656    1.525   .     S
C656   H676    1.111   .     S
C656   H467    1.108   1_565 S
C656   H468    1.110   1_565 S
C657   C659    1.401   .     A
C657   H687    1.072   .     S
C658   H688    1.082   .     S
C658   N689    1.354   .     A
C659   N690    1.354   .     A
C659   H670    1.082   .     S
C660   N689    1.367   .     A
C660   C662    1.414   .     A
C660   Cl665   1.762   .     S
C661   N690    1.367   .     A
C661   Cl666   1.762   .     S
C662   Cl667   1.772   .     S
Cl663  C707    1.781   .     S
Cl664  C778    1.781   1_455 S
H672   C444    1.108   1_565 S
N689   Zn700   2.021   .     S
N690   Zn699   2.021   .     S
O691   Zn699   1.989   .     S
O692   Zn700   1.989   .     S
O693   Zn700   1.984   .     S
O694   Zn699   1.984   .     S
O695   Zn699   1.982   .     S
O696   Zn700   1.982   .     S
O697   Zn700   1.980   .     S
O698   Zn699   1.980   .     S
C701   C714    1.436   .     S
C701   O763    1.290   .     A
C701   O761    1.293   .     A
C702   C704    1.429   .     A
C702   Cl738   1.772   .     S
C702   C731    1.413   .     A
C703   C723    1.419   .     A
C703   C732    1.430   .     A
C704   C727    1.419   .     A
C704   C283    1.546   1_556 S
C705   O767    1.286   .     A
C705   C707    1.398   .     S
C705   O765    1.278   .     A
C706   O768    1.286   .     A
C706   O766    1.278   .     A
C706   C708    1.397   .     S
C708   C777    1.343   .     S
C708   Cl804   1.781   .     S
C709   C711    1.378   .     A
C709   C720    1.401   .     A
C709   H739    1.084   .     S
C710   C721    1.400   .     A
C710   H750    1.084   .     S
C710   C713    1.378   .     A
C711   C714    1.391   .     A
C711   H752    1.083   .     S
C712   C715    1.438   .     S
C712   O764    1.291   .     A
C712   O762    1.293   .     A
C713   H753    1.084   .     S
C713   C715    1.392   .     A
C714   C716    1.399   .     A
C715   C717    1.400   .     A
C716   H754    1.084   .     S
C716   C718    1.392   .     A
C717   H755    1.084   .     S
C717   C719    1.392   .     A
C718   C720    1.416   .     A
C718   C722    1.521   .     S
C719   C725    1.521   .     S
C719   C721    1.416   .     A
C721   C510    1.445   1_565 S
C722   H745    1.112   .     S
C722   C724    1.525   .     S
C722   H744    1.108   .     S
C723   C728    1.401   .     A
C723   H756    1.071   .     S
C724   H741    1.111   .     S
C724   H743    1.110   .     S
C725   H751    1.112   .     S
C725   H749    1.108   .     S
C725   C726    1.525   .     S
C726   H746    1.111   .     S
C726   H537    1.108   1_565 S
C726   H538    1.110   1_565 S
C727   C729    1.401   .     A
C727   H757    1.072   .     S
C728   H758    1.082   .     S
C728   N759    1.354   .     A
C729   N760    1.354   .     A
C729   H740    1.082   .     S
C730   N759    1.367   .     A
C730   C732    1.414   .     A
C730   Cl735   1.762   .     S
C731   N760    1.367   .     A
C731   Cl736   1.762   .     S
C732   Cl737   1.772   .     S
Cl733  C777    1.781   .     S
H742   C514    1.108   1_565 S
N759   Zn770   2.021   .     S
N760   Zn769   2.021   .     S
O761   Zn769   1.989   .     S
O762   Zn770   1.989   .     S
O763   Zn770   1.984   .     S
O764   Zn769   1.984   .     S
O765   Zn769   1.982   .     S
O766   Zn770   1.982   .     S
O767   Zn770   1.980   .     S
O768   Zn769   1.980   .     S
C771   C784    1.436   .     S
C771   O833    1.290   .     A
C771   O831    1.293   .     A
C772   C774    1.429   .     A
C772   Cl808   1.772   .     S
C772   C801    1.413   .     A
C773   C793    1.419   .     A
C773   C802    1.430   .     A
C774   C797    1.419   .     A
C774   C353    1.546   1_556 S
C775   O837    1.286   .     A
C775   C777    1.398   .     S
C775   O835    1.278   .     A
C776   O838    1.286   .     A
C776   O836    1.278   .     A
C776   C778    1.397   .     S
C778   C637    1.343   1_655 S
C778   Cl664   1.781   1_655 S
C779   C781    1.378   .     A
C779   C790    1.401   .     A
C779   H809    1.084   .     S
C780   C791    1.400   .     A
C780   H820    1.084   .     S
C780   C783    1.378   .     A
C781   C784    1.391   .     A
C781   H822    1.083   .     S
C782   C785    1.438   .     S
C782   O834    1.291   .     A
C782   O832    1.293   .     A
C783   H823    1.084   .     S
C783   C785    1.392   .     A
C784   C786    1.399   .     A
C785   C787    1.400   .     A
C786   H824    1.084   .     S
C786   C788    1.392   .     A
C787   H825    1.084   .     S
C787   C789    1.392   .     A
C788   C790    1.416   .     A
C788   C792    1.521   .     S
C789   C795    1.521   .     S
C789   C791    1.416   .     A
C791   C580    1.445   1_565 S
C792   H815    1.112   .     S
C792   C794    1.525   .     S
C792   H814    1.108   .     S
C793   C798    1.401   .     A
C793   H826    1.071   .     S
C794   H811    1.111   .     S
C794   H813    1.110   .     S
C795   H821    1.112   .     S
C795   H819    1.108   .     S
C795   C796    1.525   .     S
C796   H816    1.111   .     S
C796   H607    1.108   1_565 S
C796   H608    1.110   1_565 S
C797   C799    1.401   .     A
C797   H827    1.072   .     S
C798   H828    1.082   .     S
C798   N829    1.354   .     A
C799   N830    1.354   .     A
C799   H810    1.082   .     S
C800   N829    1.367   .     A
C800   C802    1.414   .     A
C800   Cl805   1.762   .     S
C801   N830    1.367   .     A
C801   Cl806   1.762   .     S
C802   Cl807   1.772   .     S
Cl803  C637    1.781   1_655 S
H812   C584    1.108   1_565 S
N829   Zn840   2.021   .     S
N830   Zn839   2.021   .     S
O831   Zn839   1.989   .     S
O832   Zn840   1.989   .     S
O833   Zn840   1.984   .     S
O834   Zn839   1.984   .     S
O835   Zn839   1.982   .     S
O836   Zn840   1.982   .     S
O837   Zn840   1.980   .     S
O838   Zn839   1.980   .     S
