data_str_m2_o1_o18_pcu_sym.184
_audit_creation_date              2020-01-03
_audit_creation_method            'Materials Studio'
_symmetry_space_group_name_H-M    'P1'
_symmetry_Int_Tables_number       1
_symmetry_cell_setting            triclinic
loop_
_symmetry_equiv_pos_as_xyz
  x,y,z
_cell_length_a                    28.5135
_cell_length_b                    32.5001
_cell_length_c                    30.7627
_cell_angle_alpha                 89.8680
_cell_angle_beta                  74.9176
_cell_angle_gamma                 89.9879
loop_
_atom_site_label
_atom_site_type_symbol
_atom_site_fract_x
_atom_site_fract_y
_atom_site_fract_z
_atom_site_U_iso_or_equiv
_atom_site_adp_type
_atom_site_occupancy
C1     C     0.33331   0.08734   0.25004   0.00000  Uiso   1.00
C2     C     0.00002   0.24599   0.24996   0.00000  Uiso   1.00
C3     C     0.18894   0.19730   0.04237   0.00000  Uiso   1.00
C4     C     0.14440   0.13602   0.45763   0.00000  Uiso   1.00
C5     C     0.23866   0.19770   0.02257   0.00000  Uiso   1.00
C6     C     0.09468   0.13562   0.47743   0.00000  Uiso   1.00
C7     C     0.29064   0.02129   0.25027   0.00000  Uiso   1.00
C8     C     0.04270   0.31205   0.24973   0.00000  Uiso   1.00
C9     C     0.29065   0.31205   0.25021   0.00000  Uiso   1.00
C10    C     0.04268   0.02128   0.24979   0.00000  Uiso   1.00
C11    C     0.00001   0.29060   0.24996   0.00000  Uiso   1.00
C12    C     0.33332   0.04273   0.25004   0.00000  Uiso   1.00
C13    C     0.18346   0.14153   0.27850   0.00000  Uiso   1.00
C14    C     0.14988   0.19180   0.22150   0.00000  Uiso   1.00
C15    C     0.13382   0.14155   0.27850   0.00000  Uiso   1.00
C16    C     0.19951   0.19178   0.22150   0.00000  Uiso   1.00
C17    C     0.30635   0.16776   0.33637   0.00000  Uiso   1.00
C18    C     0.02699   0.16557   0.16363   0.00000  Uiso   1.00
C19    C     0.29198   0.17063   0.38604   0.00000  Uiso   1.00
C20    C     0.04135   0.16270   0.11396   0.00000  Uiso   1.00
C21    C     0.30664   0.18837   0.45790   0.00000  Uiso   1.00
C22    C     0.02670   0.14496   0.04210   0.00000  Uiso   1.00
C23    C     0.32463   0.18126   0.41187   0.00000  Uiso   1.00
C24    C     0.00871   0.15207   0.08812   0.00000  Uiso   1.00
C25    C     0.24277   0.16489   0.40800   0.00000  Uiso   1.00
C26    C     0.09057   0.16844   0.09200   0.00000  Uiso   1.00
C27    C     0.22537   0.16733   0.45492   0.00000  Uiso   1.00
C28    C     0.10796   0.16600   0.04509   0.00000  Uiso   1.00
C29    C     0.25722   0.18304   0.47909   0.00000  Uiso   1.00
C30    C     0.07612   0.15029   0.02091   0.00000  Uiso   1.00
C31    C     0.17600   0.15902   0.47762   0.00000  Uiso   1.00
C32    C     0.15734   0.17431   0.02239   0.00000  Uiso   1.00
Cu33   Cu    0.04689   0.16667   0.25000   0.00000  Uiso   1.00
Cu34   Cu    0.28645   0.16666   0.25000   0.00000  Uiso   1.00
H35    H     0.26238   0.21370   0.03933   0.00000  Uiso   1.00
H36    H     0.07096   0.11962   0.46068   0.00000  Uiso   1.00
H37    H     0.11600   0.17170   0.11221   0.00000  Uiso   1.00
H38    H     0.21733   0.16163   0.38779   0.00000  Uiso   1.00
H39    H     0.33108   0.19986   0.47679   0.00000  Uiso   1.00
H40    H     0.00226   0.13347   0.02321   0.00000  Uiso   1.00
H41    H     0.25725   0.03730   0.25049   0.00000  Uiso   1.00
H42    H     0.07608   0.29603   0.24951   0.00000  Uiso   1.00
H43    H     0.25729   0.29604   0.25039   0.00000  Uiso   1.00
H44    H     0.07605   0.03729   0.24961   0.00000  Uiso   1.00
H45    H     0.19577   0.12135   0.30127   0.00000  Uiso   1.00
H46    H     0.13756   0.21199   0.19873   0.00000  Uiso   1.00
H47    H     0.10865   0.12146   0.30132   0.00000  Uiso   1.00
H48    H     0.22468   0.21188   0.19868   0.00000  Uiso   1.00
N49    N     0.11736   0.16668   0.24999   0.00000  Uiso   1.00
N50    N     0.21597   0.16666   0.25001   0.00000  Uiso   1.00
O51    O     0.03958   0.10655   0.25000   0.00000  Uiso   1.00
O52    O     0.29375   0.22678   0.25000   0.00000  Uiso   1.00
O53    O     0.29372   0.10654   0.25000   0.00000  Uiso   1.00
O54    O     0.03961   0.22679   0.25000   0.00000  Uiso   1.00
O55    O     0.01852   0.16668   0.31492   0.00000  Uiso   1.00
O56    O     0.31481   0.16666   0.18508   0.00000  Uiso   1.00
O57    O     0.27267   0.16667   0.31492   0.00000  Uiso   1.00
O58    O     0.06067   0.16667   0.18508   0.00000  Uiso   1.00
Br59   Br    0.27387   0.14176   0.11297   0.00000  Uiso   1.00
Br60   Br    0.05946   0.19157   0.38703   0.00000  Uiso   1.00
Br61   Br    0.16806   0.23743   0.08969   0.00000  Uiso   1.00
Br62   Br    0.16528   0.09589   0.41032   0.00000  Uiso   1.00
C63    C     0.66665   0.08734   0.25004   0.00000  Uiso   1.00
C64    C     0.33335   0.24599   0.24996   0.00000  Uiso   1.00
C65    C     0.52228   0.19730   0.04237   0.00000  Uiso   1.00
C66    C     0.47773   0.13602   0.45763   0.00000  Uiso   1.00
C67    C     0.57199   0.19770   0.02257   0.00000  Uiso   1.00
C68    C     0.42801   0.13562   0.47743   0.00000  Uiso   1.00
C69    C     0.62397   0.02129   0.25027   0.00000  Uiso   1.00
C70    C     0.37603   0.31205   0.24973   0.00000  Uiso   1.00
C71    C     0.62399   0.31205   0.25021   0.00000  Uiso   1.00
C72    C     0.37601   0.02128   0.24979   0.00000  Uiso   1.00
C73    C     0.33335   0.29060   0.24996   0.00000  Uiso   1.00
C74    C     0.66665   0.04273   0.25004   0.00000  Uiso   1.00
C75    C     0.51679   0.14153   0.27850   0.00000  Uiso   1.00
C76    C     0.48321   0.19180   0.22150   0.00000  Uiso   1.00
C77    C     0.46715   0.14155   0.27850   0.00000  Uiso   1.00
C78    C     0.53285   0.19178   0.22150   0.00000  Uiso   1.00
C79    C     0.63968   0.16776   0.33637   0.00000  Uiso   1.00
C80    C     0.36032   0.16557   0.16363   0.00000  Uiso   1.00
C81    C     0.62531   0.17063   0.38604   0.00000  Uiso   1.00
C82    C     0.37469   0.16270   0.11396   0.00000  Uiso   1.00
C83    C     0.63997   0.18837   0.45790   0.00000  Uiso   1.00
C84    C     0.36003   0.14496   0.04210   0.00000  Uiso   1.00
C85    C     0.65796   0.18126   0.41187   0.00000  Uiso   1.00
C86    C     0.34204   0.15207   0.08812   0.00000  Uiso   1.00
C87    C     0.57610   0.16489   0.40800   0.00000  Uiso   1.00
C88    C     0.42390   0.16844   0.09200   0.00000  Uiso   1.00
C89    C     0.55871   0.16733   0.45492   0.00000  Uiso   1.00
C90    C     0.44130   0.16600   0.04509   0.00000  Uiso   1.00
C91    C     0.59055   0.18304   0.47909   0.00000  Uiso   1.00
C92    C     0.40945   0.15029   0.02091   0.00000  Uiso   1.00
C93    C     0.50933   0.15902   0.47762   0.00000  Uiso   1.00
C94    C     0.49067   0.17431   0.02239   0.00000  Uiso   1.00
Cu95   Cu    0.38022   0.16667   0.25000   0.00000  Uiso   1.00
Cu96   Cu    0.61978   0.16666   0.25000   0.00000  Uiso   1.00
H97    H     0.59572   0.21370   0.03933   0.00000  Uiso   1.00
H98    H     0.40429   0.11962   0.46068   0.00000  Uiso   1.00
H99    H     0.44934   0.17170   0.11221   0.00000  Uiso   1.00
H100   H     0.55066   0.16163   0.38779   0.00000  Uiso   1.00
H101   H     0.66441   0.19986   0.47679   0.00000  Uiso   1.00
H102   H     0.33559   0.13347   0.02321   0.00000  Uiso   1.00
H103   H     0.59059   0.03730   0.25049   0.00000  Uiso   1.00
H104   H     0.40941   0.29603   0.24951   0.00000  Uiso   1.00
H105   H     0.59062   0.29604   0.25039   0.00000  Uiso   1.00
H106   H     0.40938   0.03729   0.24961   0.00000  Uiso   1.00
H107   H     0.52911   0.12135   0.30127   0.00000  Uiso   1.00
H108   H     0.47089   0.21199   0.19873   0.00000  Uiso   1.00
H109   H     0.44198   0.12146   0.30132   0.00000  Uiso   1.00
H110   H     0.55802   0.21188   0.19868   0.00000  Uiso   1.00
N111   N     0.45069   0.16668   0.24999   0.00000  Uiso   1.00
N112   N     0.54931   0.16666   0.25001   0.00000  Uiso   1.00
O113   O     0.37291   0.10655   0.25000   0.00000  Uiso   1.00
O114   O     0.62709   0.22678   0.25000   0.00000  Uiso   1.00
O115   O     0.62706   0.10654   0.25000   0.00000  Uiso   1.00
O116   O     0.37294   0.22679   0.25000   0.00000  Uiso   1.00
O117   O     0.35186   0.16668   0.31492   0.00000  Uiso   1.00
O118   O     0.64814   0.16666   0.18508   0.00000  Uiso   1.00
O119   O     0.60600   0.16667   0.31492   0.00000  Uiso   1.00
O120   O     0.39400   0.16667   0.18508   0.00000  Uiso   1.00
Br121  Br    0.60721   0.14176   0.11297   0.00000  Uiso   1.00
Br122  Br    0.39279   0.19157   0.38703   0.00000  Uiso   1.00
Br123  Br    0.50140   0.23743   0.08969   0.00000  Uiso   1.00
Br124  Br    0.49862   0.09589   0.41032   0.00000  Uiso   1.00
C125   C     0.99998   0.08734   0.25004   0.00000  Uiso   1.00
C126   C     0.66669   0.24599   0.24996   0.00000  Uiso   1.00
C127   C     0.85561   0.19730   0.04237   0.00000  Uiso   1.00
C128   C     0.81106   0.13602   0.45763   0.00000  Uiso   1.00
C129   C     0.90533   0.19770   0.02257   0.00000  Uiso   1.00
C130   C     0.76135   0.13562   0.47743   0.00000  Uiso   1.00
C131   C     0.95730   0.02129   0.25027   0.00000  Uiso   1.00
C132   C     0.70936   0.31205   0.24973   0.00000  Uiso   1.00
C133   C     0.95732   0.31205   0.25021   0.00000  Uiso   1.00
C134   C     0.70935   0.02128   0.24979   0.00000  Uiso   1.00
C135   C     0.66668   0.29060   0.24996   0.00000  Uiso   1.00
C136   C     0.99999   0.04273   0.25004   0.00000  Uiso   1.00
C137   C     0.85012   0.14153   0.27850   0.00000  Uiso   1.00
C138   C     0.81654   0.19180   0.22150   0.00000  Uiso   1.00
C139   C     0.80049   0.14155   0.27850   0.00000  Uiso   1.00
C140   C     0.86618   0.19178   0.22150   0.00000  Uiso   1.00
C141   C     0.97301   0.16776   0.33637   0.00000  Uiso   1.00
C142   C     0.69365   0.16557   0.16363   0.00000  Uiso   1.00
C143   C     0.95865   0.17063   0.38604   0.00000  Uiso   1.00
C144   C     0.70802   0.16270   0.11396   0.00000  Uiso   1.00
C145   C     0.97330   0.18837   0.45790   0.00000  Uiso   1.00
C146   C     0.69337   0.14496   0.04210   0.00000  Uiso   1.00
C147   C     0.99130   0.18126   0.41187   0.00000  Uiso   1.00
C148   C     0.67537   0.15207   0.08812   0.00000  Uiso   1.00
C149   C     0.90943   0.16489   0.40800   0.00000  Uiso   1.00
C150   C     0.75724   0.16844   0.09200   0.00000  Uiso   1.00
C151   C     0.89204   0.16733   0.45492   0.00000  Uiso   1.00
C152   C     0.77463   0.16600   0.04509   0.00000  Uiso   1.00
C153   C     0.92389   0.18304   0.47909   0.00000  Uiso   1.00
C154   C     0.74278   0.15029   0.02091   0.00000  Uiso   1.00
C155   C     0.84266   0.15902   0.47762   0.00000  Uiso   1.00
C156   C     0.82401   0.17431   0.02239   0.00000  Uiso   1.00
Cu157  Cu    0.71355   0.16667   0.25000   0.00000  Uiso   1.00
Cu158  Cu    0.95311   0.16666   0.25000   0.00000  Uiso   1.00
H159   H     0.92905   0.21370   0.03933   0.00000  Uiso   1.00
H160   H     0.73762   0.11962   0.46068   0.00000  Uiso   1.00
H161   H     0.78267   0.17170   0.11221   0.00000  Uiso   1.00
H162   H     0.88400   0.16163   0.38779   0.00000  Uiso   1.00
H163   H     0.99775   0.19986   0.47679   0.00000  Uiso   1.00
H164   H     0.66893   0.13347   0.02321   0.00000  Uiso   1.00
H165   H     0.92392   0.03730   0.25049   0.00000  Uiso   1.00
H166   H     0.74275   0.29603   0.24951   0.00000  Uiso   1.00
H167   H     0.92395   0.29604   0.25039   0.00000  Uiso   1.00
H168   H     0.74271   0.03729   0.24961   0.00000  Uiso   1.00
H169   H     0.86244   0.12135   0.30127   0.00000  Uiso   1.00
H170   H     0.80423   0.21199   0.19873   0.00000  Uiso   1.00
H171   H     0.77532   0.12146   0.30132   0.00000  Uiso   1.00
H172   H     0.89135   0.21188   0.19868   0.00000  Uiso   1.00
N173   N     0.78403   0.16668   0.24999   0.00000  Uiso   1.00
N174   N     0.88264   0.16666   0.25001   0.00000  Uiso   1.00
O175   O     0.70625   0.10655   0.25000   0.00000  Uiso   1.00
O176   O     0.96042   0.22678   0.25000   0.00000  Uiso   1.00
O177   O     0.96039   0.10654   0.25000   0.00000  Uiso   1.00
O178   O     0.70628   0.22679   0.25000   0.00000  Uiso   1.00
O179   O     0.68519   0.16668   0.31492   0.00000  Uiso   1.00
O180   O     0.98148   0.16666   0.18508   0.00000  Uiso   1.00
O181   O     0.93933   0.16667   0.31492   0.00000  Uiso   1.00
O182   O     0.72733   0.16667   0.18508   0.00000  Uiso   1.00
Br183  Br    0.94054   0.14176   0.11297   0.00000  Uiso   1.00
Br184  Br    0.72613   0.19157   0.38703   0.00000  Uiso   1.00
Br185  Br    0.83473   0.23743   0.08969   0.00000  Uiso   1.00
Br186  Br    0.83195   0.09589   0.41032   0.00000  Uiso   1.00
C187   C     0.33331   0.42068   0.25004   0.00000  Uiso   1.00
C188   C     0.00002   0.57932   0.24996   0.00000  Uiso   1.00
C189   C     0.18894   0.53064   0.04237   0.00000  Uiso   1.00
C190   C     0.14440   0.46936   0.45763   0.00000  Uiso   1.00
C191   C     0.23866   0.53104   0.02257   0.00000  Uiso   1.00
C192   C     0.09468   0.46895   0.47743   0.00000  Uiso   1.00
C193   C     0.29064   0.35462   0.25027   0.00000  Uiso   1.00
C194   C     0.04270   0.64538   0.24973   0.00000  Uiso   1.00
C195   C     0.29065   0.64539   0.25021   0.00000  Uiso   1.00
C196   C     0.04268   0.35461   0.24979   0.00000  Uiso   1.00
C197   C     0.00001   0.62393   0.24996   0.00000  Uiso   1.00
C198   C     0.33332   0.37607   0.25004   0.00000  Uiso   1.00
C199   C     0.18346   0.47486   0.27850   0.00000  Uiso   1.00
C200   C     0.14988   0.52514   0.22150   0.00000  Uiso   1.00
C201   C     0.13382   0.47489   0.27850   0.00000  Uiso   1.00
C202   C     0.19951   0.52511   0.22150   0.00000  Uiso   1.00
C203   C     0.30635   0.50109   0.33637   0.00000  Uiso   1.00
C204   C     0.02699   0.49890   0.16363   0.00000  Uiso   1.00
C205   C     0.29198   0.50396   0.38604   0.00000  Uiso   1.00
C206   C     0.04135   0.49603   0.11396   0.00000  Uiso   1.00
C207   C     0.30664   0.52171   0.45790   0.00000  Uiso   1.00
C208   C     0.02670   0.47829   0.04210   0.00000  Uiso   1.00
C209   C     0.32463   0.51459   0.41187   0.00000  Uiso   1.00
C210   C     0.00871   0.48541   0.08812   0.00000  Uiso   1.00
C211   C     0.24277   0.49823   0.40800   0.00000  Uiso   1.00
C212   C     0.09057   0.50177   0.09200   0.00000  Uiso   1.00
C213   C     0.22537   0.50066   0.45492   0.00000  Uiso   1.00
C214   C     0.10796   0.49933   0.04509   0.00000  Uiso   1.00
C215   C     0.25722   0.51638   0.47909   0.00000  Uiso   1.00
C216   C     0.07612   0.48362   0.02091   0.00000  Uiso   1.00
C217   C     0.17600   0.49235   0.47762   0.00000  Uiso   1.00
C218   C     0.15734   0.50765   0.02239   0.00000  Uiso   1.00
Cu219  Cu    0.04689   0.50001   0.25000   0.00000  Uiso   1.00
Cu220  Cu    0.28645   0.49999   0.25000   0.00000  Uiso   1.00
H221   H     0.26238   0.54703   0.03933   0.00000  Uiso   1.00
H222   H     0.07096   0.45296   0.46068   0.00000  Uiso   1.00
H223   H     0.11600   0.50503   0.11221   0.00000  Uiso   1.00
H224   H     0.21733   0.49497   0.38779   0.00000  Uiso   1.00
H225   H     0.33108   0.53319   0.47679   0.00000  Uiso   1.00
H226   H     0.00226   0.46680   0.02321   0.00000  Uiso   1.00
H227   H     0.25725   0.37064   0.25049   0.00000  Uiso   1.00
H228   H     0.07608   0.62936   0.24951   0.00000  Uiso   1.00
H229   H     0.25729   0.62938   0.25039   0.00000  Uiso   1.00
H230   H     0.07605   0.37062   0.24961   0.00000  Uiso   1.00
H231   H     0.19577   0.45468   0.30127   0.00000  Uiso   1.00
H232   H     0.13756   0.54532   0.19873   0.00000  Uiso   1.00
H233   H     0.10865   0.45479   0.30132   0.00000  Uiso   1.00
H234   H     0.22468   0.54521   0.19868   0.00000  Uiso   1.00
N235   N     0.11736   0.50001   0.24999   0.00000  Uiso   1.00
N236   N     0.21597   0.49999   0.25001   0.00000  Uiso   1.00
O237   O     0.03958   0.43989   0.25000   0.00000  Uiso   1.00
O238   O     0.29375   0.56011   0.25000   0.00000  Uiso   1.00
O239   O     0.29372   0.43988   0.25000   0.00000  Uiso   1.00
O240   O     0.03961   0.56012   0.25000   0.00000  Uiso   1.00
O241   O     0.01852   0.50001   0.31492   0.00000  Uiso   1.00
O242   O     0.31481   0.49999   0.18508   0.00000  Uiso   1.00
O243   O     0.27267   0.50000   0.31492   0.00000  Uiso   1.00
O244   O     0.06067   0.50000   0.18508   0.00000  Uiso   1.00
Br245  Br    0.27387   0.47509   0.11297   0.00000  Uiso   1.00
Br246  Br    0.05946   0.52490   0.38703   0.00000  Uiso   1.00
Br247  Br    0.16806   0.57076   0.08969   0.00000  Uiso   1.00
Br248  Br    0.16528   0.42923   0.41032   0.00000  Uiso   1.00
C249   C     0.66665   0.42068   0.25004   0.00000  Uiso   1.00
C250   C     0.33335   0.57932   0.24996   0.00000  Uiso   1.00
C251   C     0.52228   0.53064   0.04237   0.00000  Uiso   1.00
C252   C     0.47773   0.46936   0.45763   0.00000  Uiso   1.00
C253   C     0.57199   0.53104   0.02257   0.00000  Uiso   1.00
C254   C     0.42801   0.46895   0.47743   0.00000  Uiso   1.00
C255   C     0.62397   0.35462   0.25027   0.00000  Uiso   1.00
C256   C     0.37603   0.64538   0.24973   0.00000  Uiso   1.00
C257   C     0.62399   0.64539   0.25021   0.00000  Uiso   1.00
C258   C     0.37601   0.35461   0.24979   0.00000  Uiso   1.00
C259   C     0.33335   0.62393   0.24996   0.00000  Uiso   1.00
C260   C     0.66665   0.37607   0.25004   0.00000  Uiso   1.00
C261   C     0.51679   0.47486   0.27850   0.00000  Uiso   1.00
C262   C     0.48321   0.52514   0.22150   0.00000  Uiso   1.00
C263   C     0.46715   0.47489   0.27850   0.00000  Uiso   1.00
C264   C     0.53285   0.52511   0.22150   0.00000  Uiso   1.00
C265   C     0.63968   0.50109   0.33637   0.00000  Uiso   1.00
C266   C     0.36032   0.49890   0.16363   0.00000  Uiso   1.00
C267   C     0.62531   0.50396   0.38604   0.00000  Uiso   1.00
C268   C     0.37469   0.49603   0.11396   0.00000  Uiso   1.00
C269   C     0.63997   0.52171   0.45790   0.00000  Uiso   1.00
C270   C     0.36003   0.47829   0.04210   0.00000  Uiso   1.00
C271   C     0.65796   0.51459   0.41187   0.00000  Uiso   1.00
C272   C     0.34204   0.48541   0.08812   0.00000  Uiso   1.00
C273   C     0.57610   0.49823   0.40800   0.00000  Uiso   1.00
C274   C     0.42390   0.50177   0.09200   0.00000  Uiso   1.00
C275   C     0.55871   0.50066   0.45492   0.00000  Uiso   1.00
C276   C     0.44130   0.49933   0.04509   0.00000  Uiso   1.00
C277   C     0.59055   0.51638   0.47909   0.00000  Uiso   1.00
C278   C     0.40945   0.48362   0.02091   0.00000  Uiso   1.00
C279   C     0.50933   0.49235   0.47762   0.00000  Uiso   1.00
C280   C     0.49067   0.50765   0.02239   0.00000  Uiso   1.00
Cu281  Cu    0.38022   0.50001   0.25000   0.00000  Uiso   1.00
Cu282  Cu    0.61978   0.49999   0.25000   0.00000  Uiso   1.00
H283   H     0.59572   0.54703   0.03933   0.00000  Uiso   1.00
H284   H     0.40429   0.45296   0.46068   0.00000  Uiso   1.00
H285   H     0.44934   0.50503   0.11221   0.00000  Uiso   1.00
H286   H     0.55066   0.49497   0.38779   0.00000  Uiso   1.00
H287   H     0.66441   0.53319   0.47679   0.00000  Uiso   1.00
H288   H     0.33559   0.46680   0.02321   0.00000  Uiso   1.00
H289   H     0.59059   0.37064   0.25049   0.00000  Uiso   1.00
H290   H     0.40941   0.62936   0.24951   0.00000  Uiso   1.00
H291   H     0.59062   0.62938   0.25039   0.00000  Uiso   1.00
H292   H     0.40938   0.37062   0.24961   0.00000  Uiso   1.00
H293   H     0.52911   0.45468   0.30127   0.00000  Uiso   1.00
H294   H     0.47089   0.54532   0.19873   0.00000  Uiso   1.00
H295   H     0.44198   0.45479   0.30132   0.00000  Uiso   1.00
H296   H     0.55802   0.54521   0.19868   0.00000  Uiso   1.00
N297   N     0.45069   0.50001   0.24999   0.00000  Uiso   1.00
N298   N     0.54931   0.49999   0.25001   0.00000  Uiso   1.00
O299   O     0.37291   0.43989   0.25000   0.00000  Uiso   1.00
O300   O     0.62709   0.56011   0.25000   0.00000  Uiso   1.00
O301   O     0.62706   0.43988   0.25000   0.00000  Uiso   1.00
O302   O     0.37294   0.56012   0.25000   0.00000  Uiso   1.00
O303   O     0.35186   0.50001   0.31492   0.00000  Uiso   1.00
O304   O     0.64814   0.49999   0.18508   0.00000  Uiso   1.00
O305   O     0.60600   0.50000   0.31492   0.00000  Uiso   1.00
O306   O     0.39400   0.50000   0.18508   0.00000  Uiso   1.00
Br307  Br    0.60721   0.47509   0.11297   0.00000  Uiso   1.00
Br308  Br    0.39279   0.52490   0.38703   0.00000  Uiso   1.00
Br309  Br    0.50140   0.57076   0.08969   0.00000  Uiso   1.00
Br310  Br    0.49862   0.42923   0.41032   0.00000  Uiso   1.00
C311   C     0.99998   0.42068   0.25004   0.00000  Uiso   1.00
C312   C     0.66669   0.57932   0.24996   0.00000  Uiso   1.00
C313   C     0.85561   0.53064   0.04237   0.00000  Uiso   1.00
C314   C     0.81106   0.46936   0.45763   0.00000  Uiso   1.00
C315   C     0.90533   0.53104   0.02257   0.00000  Uiso   1.00
C316   C     0.76135   0.46895   0.47743   0.00000  Uiso   1.00
C317   C     0.95730   0.35462   0.25027   0.00000  Uiso   1.00
C318   C     0.70936   0.64538   0.24973   0.00000  Uiso   1.00
C319   C     0.95732   0.64539   0.25021   0.00000  Uiso   1.00
C320   C     0.70935   0.35461   0.24979   0.00000  Uiso   1.00
C321   C     0.66668   0.62393   0.24996   0.00000  Uiso   1.00
C322   C     0.99999   0.37607   0.25004   0.00000  Uiso   1.00
C323   C     0.85012   0.47486   0.27850   0.00000  Uiso   1.00
C324   C     0.81654   0.52514   0.22150   0.00000  Uiso   1.00
C325   C     0.80049   0.47489   0.27850   0.00000  Uiso   1.00
C326   C     0.86618   0.52511   0.22150   0.00000  Uiso   1.00
C327   C     0.97301   0.50109   0.33637   0.00000  Uiso   1.00
C328   C     0.69365   0.49890   0.16363   0.00000  Uiso   1.00
C329   C     0.95865   0.50396   0.38604   0.00000  Uiso   1.00
C330   C     0.70802   0.49603   0.11396   0.00000  Uiso   1.00
C331   C     0.97330   0.52171   0.45790   0.00000  Uiso   1.00
C332   C     0.69337   0.47829   0.04210   0.00000  Uiso   1.00
C333   C     0.99130   0.51459   0.41187   0.00000  Uiso   1.00
C334   C     0.67537   0.48541   0.08812   0.00000  Uiso   1.00
C335   C     0.90943   0.49823   0.40800   0.00000  Uiso   1.00
C336   C     0.75724   0.50177   0.09200   0.00000  Uiso   1.00
C337   C     0.89204   0.50066   0.45492   0.00000  Uiso   1.00
C338   C     0.77463   0.49933   0.04509   0.00000  Uiso   1.00
C339   C     0.92389   0.51638   0.47909   0.00000  Uiso   1.00
C340   C     0.74278   0.48362   0.02091   0.00000  Uiso   1.00
C341   C     0.84266   0.49235   0.47762   0.00000  Uiso   1.00
C342   C     0.82401   0.50765   0.02239   0.00000  Uiso   1.00
Cu343  Cu    0.71355   0.50001   0.25000   0.00000  Uiso   1.00
Cu344  Cu    0.95311   0.49999   0.25000   0.00000  Uiso   1.00
H345   H     0.92905   0.54703   0.03933   0.00000  Uiso   1.00
H346   H     0.73762   0.45296   0.46068   0.00000  Uiso   1.00
H347   H     0.78267   0.50503   0.11221   0.00000  Uiso   1.00
H348   H     0.88400   0.49497   0.38779   0.00000  Uiso   1.00
H349   H     0.99775   0.53319   0.47679   0.00000  Uiso   1.00
H350   H     0.66893   0.46680   0.02321   0.00000  Uiso   1.00
H351   H     0.92392   0.37064   0.25049   0.00000  Uiso   1.00
H352   H     0.74275   0.62936   0.24951   0.00000  Uiso   1.00
H353   H     0.92395   0.62938   0.25039   0.00000  Uiso   1.00
H354   H     0.74271   0.37062   0.24961   0.00000  Uiso   1.00
H355   H     0.86244   0.45468   0.30127   0.00000  Uiso   1.00
H356   H     0.80423   0.54532   0.19873   0.00000  Uiso   1.00
H357   H     0.77532   0.45479   0.30132   0.00000  Uiso   1.00
H358   H     0.89135   0.54521   0.19868   0.00000  Uiso   1.00
N359   N     0.78403   0.50001   0.24999   0.00000  Uiso   1.00
N360   N     0.88264   0.49999   0.25001   0.00000  Uiso   1.00
O361   O     0.70625   0.43989   0.25000   0.00000  Uiso   1.00
O362   O     0.96042   0.56011   0.25000   0.00000  Uiso   1.00
O363   O     0.96039   0.43988   0.25000   0.00000  Uiso   1.00
O364   O     0.70628   0.56012   0.25000   0.00000  Uiso   1.00
O365   O     0.68519   0.50001   0.31492   0.00000  Uiso   1.00
O366   O     0.98148   0.49999   0.18508   0.00000  Uiso   1.00
O367   O     0.93933   0.50000   0.31492   0.00000  Uiso   1.00
O368   O     0.72733   0.50000   0.18508   0.00000  Uiso   1.00
Br369  Br    0.94054   0.47509   0.11297   0.00000  Uiso   1.00
Br370  Br    0.72613   0.52490   0.38703   0.00000  Uiso   1.00
Br371  Br    0.83473   0.57076   0.08969   0.00000  Uiso   1.00
Br372  Br    0.83195   0.42923   0.41032   0.00000  Uiso   1.00
C373   C     0.33331   0.75401   0.25004   0.00000  Uiso   1.00
C374   C     0.00002   0.91266   0.24996   0.00000  Uiso   1.00
C375   C     0.18894   0.86397   0.04237   0.00000  Uiso   1.00
C376   C     0.14440   0.80269   0.45763   0.00000  Uiso   1.00
C377   C     0.23866   0.86437   0.02257   0.00000  Uiso   1.00
C378   C     0.09468   0.80229   0.47743   0.00000  Uiso   1.00
C379   C     0.29064   0.68795   0.25027   0.00000  Uiso   1.00
C380   C     0.04270   0.97871   0.24973   0.00000  Uiso   1.00
C381   C     0.29065   0.97872   0.25021   0.00000  Uiso   1.00
C382   C     0.04268   0.68795   0.24979   0.00000  Uiso   1.00
C383   C     0.00001   0.95727   0.24996   0.00000  Uiso   1.00
C384   C     0.33332   0.70940   0.25004   0.00000  Uiso   1.00
C385   C     0.18346   0.80819   0.27850   0.00000  Uiso   1.00
C386   C     0.14988   0.85847   0.22150   0.00000  Uiso   1.00
C387   C     0.13382   0.80822   0.27850   0.00000  Uiso   1.00
C388   C     0.19951   0.85845   0.22150   0.00000  Uiso   1.00
C389   C     0.30635   0.83443   0.33637   0.00000  Uiso   1.00
C390   C     0.02699   0.83224   0.16363   0.00000  Uiso   1.00
C391   C     0.29198   0.83730   0.38604   0.00000  Uiso   1.00
C392   C     0.04135   0.82937   0.11396   0.00000  Uiso   1.00
C393   C     0.30664   0.85504   0.45790   0.00000  Uiso   1.00
C394   C     0.02670   0.81162   0.04210   0.00000  Uiso   1.00
C395   C     0.32463   0.84793   0.41187   0.00000  Uiso   1.00
C396   C     0.00871   0.81874   0.08812   0.00000  Uiso   1.00
C397   C     0.24277   0.83156   0.40800   0.00000  Uiso   1.00
C398   C     0.09057   0.83510   0.09200   0.00000  Uiso   1.00
C399   C     0.22537   0.83400   0.45492   0.00000  Uiso   1.00
C400   C     0.10796   0.83267   0.04509   0.00000  Uiso   1.00
C401   C     0.25722   0.84971   0.47909   0.00000  Uiso   1.00
C402   C     0.07612   0.81695   0.02091   0.00000  Uiso   1.00
C403   C     0.17600   0.82568   0.47762   0.00000  Uiso   1.00
C404   C     0.15734   0.84098   0.02239   0.00000  Uiso   1.00
Cu405  Cu    0.04689   0.83334   0.25000   0.00000  Uiso   1.00
Cu406  Cu    0.28645   0.83333   0.25000   0.00000  Uiso   1.00
H407   H     0.26238   0.88036   0.03933   0.00000  Uiso   1.00
H408   H     0.07096   0.78629   0.46068   0.00000  Uiso   1.00
H409   H     0.11600   0.83837   0.11221   0.00000  Uiso   1.00
H410   H     0.21733   0.82830   0.38779   0.00000  Uiso   1.00
H411   H     0.33108   0.86653   0.47679   0.00000  Uiso   1.00
H412   H     0.00226   0.80013   0.02321   0.00000  Uiso   1.00
H413   H     0.25725   0.70397   0.25049   0.00000  Uiso   1.00
H414   H     0.07608   0.96270   0.24951   0.00000  Uiso   1.00
H415   H     0.25729   0.96271   0.25039   0.00000  Uiso   1.00
H416   H     0.07605   0.70395   0.24961   0.00000  Uiso   1.00
H417   H     0.19577   0.78801   0.30127   0.00000  Uiso   1.00
H418   H     0.13756   0.87865   0.19873   0.00000  Uiso   1.00
H419   H     0.10865   0.78812   0.30132   0.00000  Uiso   1.00
H420   H     0.22468   0.87854   0.19868   0.00000  Uiso   1.00
N421   N     0.11736   0.83334   0.24999   0.00000  Uiso   1.00
N422   N     0.21597   0.83332   0.25001   0.00000  Uiso   1.00
O423   O     0.03958   0.77322   0.25000   0.00000  Uiso   1.00
O424   O     0.29375   0.89345   0.25000   0.00000  Uiso   1.00
O425   O     0.29372   0.77321   0.25000   0.00000  Uiso   1.00
O426   O     0.03961   0.89346   0.25000   0.00000  Uiso   1.00
O427   O     0.01852   0.83334   0.31492   0.00000  Uiso   1.00
O428   O     0.31481   0.83332   0.18508   0.00000  Uiso   1.00
O429   O     0.27267   0.83333   0.31492   0.00000  Uiso   1.00
O430   O     0.06067   0.83333   0.18508   0.00000  Uiso   1.00
Br431  Br    0.27387   0.80842   0.11297   0.00000  Uiso   1.00
Br432  Br    0.05946   0.85824   0.38703   0.00000  Uiso   1.00
Br433  Br    0.16806   0.90409   0.08969   0.00000  Uiso   1.00
Br434  Br    0.16528   0.76256   0.41032   0.00000  Uiso   1.00
C435   C     0.66665   0.75401   0.25004   0.00000  Uiso   1.00
C436   C     0.33335   0.91266   0.24996   0.00000  Uiso   1.00
C437   C     0.52228   0.86397   0.04237   0.00000  Uiso   1.00
C438   C     0.47773   0.80269   0.45763   0.00000  Uiso   1.00
C439   C     0.57199   0.86437   0.02257   0.00000  Uiso   1.00
C440   C     0.42801   0.80229   0.47743   0.00000  Uiso   1.00
C441   C     0.62397   0.68795   0.25027   0.00000  Uiso   1.00
C442   C     0.37603   0.97871   0.24973   0.00000  Uiso   1.00
C443   C     0.62399   0.97872   0.25021   0.00000  Uiso   1.00
C444   C     0.37601   0.68795   0.24979   0.00000  Uiso   1.00
C445   C     0.33335   0.95727   0.24996   0.00000  Uiso   1.00
C446   C     0.66665   0.70940   0.25004   0.00000  Uiso   1.00
C447   C     0.51679   0.80819   0.27850   0.00000  Uiso   1.00
C448   C     0.48321   0.85847   0.22150   0.00000  Uiso   1.00
C449   C     0.46715   0.80822   0.27850   0.00000  Uiso   1.00
C450   C     0.53285   0.85845   0.22150   0.00000  Uiso   1.00
C451   C     0.63968   0.83443   0.33637   0.00000  Uiso   1.00
C452   C     0.36032   0.83224   0.16363   0.00000  Uiso   1.00
C453   C     0.62531   0.83730   0.38604   0.00000  Uiso   1.00
C454   C     0.37469   0.82937   0.11396   0.00000  Uiso   1.00
C455   C     0.63997   0.85504   0.45790   0.00000  Uiso   1.00
C456   C     0.36003   0.81162   0.04210   0.00000  Uiso   1.00
C457   C     0.65796   0.84793   0.41187   0.00000  Uiso   1.00
C458   C     0.34204   0.81874   0.08812   0.00000  Uiso   1.00
C459   C     0.57610   0.83156   0.40800   0.00000  Uiso   1.00
C460   C     0.42390   0.83510   0.09200   0.00000  Uiso   1.00
C461   C     0.55871   0.83400   0.45492   0.00000  Uiso   1.00
C462   C     0.44130   0.83267   0.04509   0.00000  Uiso   1.00
C463   C     0.59055   0.84971   0.47909   0.00000  Uiso   1.00
C464   C     0.40945   0.81695   0.02091   0.00000  Uiso   1.00
C465   C     0.50933   0.82568   0.47762   0.00000  Uiso   1.00
C466   C     0.49067   0.84098   0.02239   0.00000  Uiso   1.00
Cu467  Cu    0.38022   0.83334   0.25000   0.00000  Uiso   1.00
Cu468  Cu    0.61978   0.83333   0.25000   0.00000  Uiso   1.00
H469   H     0.59572   0.88036   0.03933   0.00000  Uiso   1.00
H470   H     0.40429   0.78629   0.46068   0.00000  Uiso   1.00
H471   H     0.44934   0.83837   0.11221   0.00000  Uiso   1.00
H472   H     0.55066   0.82830   0.38779   0.00000  Uiso   1.00
H473   H     0.66441   0.86653   0.47679   0.00000  Uiso   1.00
H474   H     0.33559   0.80013   0.02321   0.00000  Uiso   1.00
H475   H     0.59059   0.70397   0.25049   0.00000  Uiso   1.00
H476   H     0.40941   0.96270   0.24951   0.00000  Uiso   1.00
H477   H     0.59062   0.96271   0.25039   0.00000  Uiso   1.00
H478   H     0.40938   0.70395   0.24961   0.00000  Uiso   1.00
H479   H     0.52911   0.78801   0.30127   0.00000  Uiso   1.00
H480   H     0.47089   0.87865   0.19873   0.00000  Uiso   1.00
H481   H     0.44198   0.78812   0.30132   0.00000  Uiso   1.00
H482   H     0.55802   0.87854   0.19868   0.00000  Uiso   1.00
N483   N     0.45069   0.83334   0.24999   0.00000  Uiso   1.00
N484   N     0.54931   0.83332   0.25001   0.00000  Uiso   1.00
O485   O     0.37291   0.77322   0.25000   0.00000  Uiso   1.00
O486   O     0.62709   0.89345   0.25000   0.00000  Uiso   1.00
O487   O     0.62706   0.77321   0.25000   0.00000  Uiso   1.00
O488   O     0.37294   0.89346   0.25000   0.00000  Uiso   1.00
O489   O     0.35186   0.83334   0.31492   0.00000  Uiso   1.00
O490   O     0.64814   0.83332   0.18508   0.00000  Uiso   1.00
O491   O     0.60600   0.83333   0.31492   0.00000  Uiso   1.00
O492   O     0.39400   0.83333   0.18508   0.00000  Uiso   1.00
Br493  Br    0.60721   0.80842   0.11297   0.00000  Uiso   1.00
Br494  Br    0.39279   0.85824   0.38703   0.00000  Uiso   1.00
Br495  Br    0.50140   0.90409   0.08969   0.00000  Uiso   1.00
Br496  Br    0.49862   0.76256   0.41032   0.00000  Uiso   1.00
C497   C     0.99998   0.75401   0.25004   0.00000  Uiso   1.00
C498   C     0.66669   0.91266   0.24996   0.00000  Uiso   1.00
C499   C     0.85561   0.86397   0.04237   0.00000  Uiso   1.00
C500   C     0.81106   0.80269   0.45763   0.00000  Uiso   1.00
C501   C     0.90533   0.86437   0.02257   0.00000  Uiso   1.00
C502   C     0.76135   0.80229   0.47743   0.00000  Uiso   1.00
C503   C     0.95730   0.68795   0.25027   0.00000  Uiso   1.00
C504   C     0.70936   0.97871   0.24973   0.00000  Uiso   1.00
C505   C     0.95732   0.97872   0.25021   0.00000  Uiso   1.00
C506   C     0.70935   0.68795   0.24979   0.00000  Uiso   1.00
C507   C     0.66668   0.95727   0.24996   0.00000  Uiso   1.00
C508   C     0.99999   0.70940   0.25004   0.00000  Uiso   1.00
C509   C     0.85012   0.80819   0.27850   0.00000  Uiso   1.00
C510   C     0.81654   0.85847   0.22150   0.00000  Uiso   1.00
C511   C     0.80049   0.80822   0.27850   0.00000  Uiso   1.00
C512   C     0.86618   0.85845   0.22150   0.00000  Uiso   1.00
C513   C     0.97301   0.83443   0.33637   0.00000  Uiso   1.00
C514   C     0.69365   0.83224   0.16363   0.00000  Uiso   1.00
C515   C     0.95865   0.83730   0.38604   0.00000  Uiso   1.00
C516   C     0.70802   0.82937   0.11396   0.00000  Uiso   1.00
C517   C     0.97330   0.85504   0.45790   0.00000  Uiso   1.00
C518   C     0.69337   0.81162   0.04210   0.00000  Uiso   1.00
C519   C     0.99130   0.84793   0.41187   0.00000  Uiso   1.00
C520   C     0.67537   0.81874   0.08812   0.00000  Uiso   1.00
C521   C     0.90943   0.83156   0.40800   0.00000  Uiso   1.00
C522   C     0.75724   0.83510   0.09200   0.00000  Uiso   1.00
C523   C     0.89204   0.83400   0.45492   0.00000  Uiso   1.00
C524   C     0.77463   0.83267   0.04509   0.00000  Uiso   1.00
C525   C     0.92389   0.84971   0.47909   0.00000  Uiso   1.00
C526   C     0.74278   0.81695   0.02091   0.00000  Uiso   1.00
C527   C     0.84266   0.82568   0.47762   0.00000  Uiso   1.00
C528   C     0.82401   0.84098   0.02239   0.00000  Uiso   1.00
Cu529  Cu    0.71355   0.83334   0.25000   0.00000  Uiso   1.00
Cu530  Cu    0.95311   0.83333   0.25000   0.00000  Uiso   1.00
H531   H     0.92905   0.88036   0.03933   0.00000  Uiso   1.00
H532   H     0.73762   0.78629   0.46068   0.00000  Uiso   1.00
H533   H     0.78267   0.83837   0.11221   0.00000  Uiso   1.00
H534   H     0.88400   0.82830   0.38779   0.00000  Uiso   1.00
H535   H     0.99775   0.86653   0.47679   0.00000  Uiso   1.00
H536   H     0.66893   0.80013   0.02321   0.00000  Uiso   1.00
H537   H     0.92392   0.70397   0.25049   0.00000  Uiso   1.00
H538   H     0.74275   0.96270   0.24951   0.00000  Uiso   1.00
H539   H     0.92395   0.96271   0.25039   0.00000  Uiso   1.00
H540   H     0.74271   0.70395   0.24961   0.00000  Uiso   1.00
H541   H     0.86244   0.78801   0.30127   0.00000  Uiso   1.00
H542   H     0.80423   0.87865   0.19873   0.00000  Uiso   1.00
H543   H     0.77532   0.78812   0.30132   0.00000  Uiso   1.00
H544   H     0.89135   0.87854   0.19868   0.00000  Uiso   1.00
N545   N     0.78403   0.83334   0.24999   0.00000  Uiso   1.00
N546   N     0.88264   0.83332   0.25001   0.00000  Uiso   1.00
O547   O     0.70625   0.77322   0.25000   0.00000  Uiso   1.00
O548   O     0.96042   0.89345   0.25000   0.00000  Uiso   1.00
O549   O     0.96039   0.77321   0.25000   0.00000  Uiso   1.00
O550   O     0.70628   0.89346   0.25000   0.00000  Uiso   1.00
O551   O     0.68519   0.83334   0.31492   0.00000  Uiso   1.00
O552   O     0.98148   0.83332   0.18508   0.00000  Uiso   1.00
O553   O     0.93933   0.83333   0.31492   0.00000  Uiso   1.00
O554   O     0.72733   0.83333   0.18508   0.00000  Uiso   1.00
Br555  Br    0.94054   0.80842   0.11297   0.00000  Uiso   1.00
Br556  Br    0.72613   0.85824   0.38703   0.00000  Uiso   1.00
Br557  Br    0.83473   0.90409   0.08969   0.00000  Uiso   1.00
Br558  Br    0.83195   0.76256   0.41032   0.00000  Uiso   1.00
C559   C     0.33331   0.08734   0.75004   0.00000  Uiso   1.00
C560   C     0.00002   0.24599   0.74996   0.00000  Uiso   1.00
C561   C     0.18894   0.19730   0.54237   0.00000  Uiso   1.00
C562   C     0.14440   0.13602   0.95763   0.00000  Uiso   1.00
C563   C     0.23866   0.19770   0.52257   0.00000  Uiso   1.00
C564   C     0.09468   0.13562   0.97743   0.00000  Uiso   1.00
C565   C     0.29064   0.02129   0.75027   0.00000  Uiso   1.00
C566   C     0.04270   0.31205   0.74973   0.00000  Uiso   1.00
C567   C     0.29065   0.31205   0.75021   0.00000  Uiso   1.00
C568   C     0.04268   0.02128   0.74979   0.00000  Uiso   1.00
C569   C     0.00001   0.29060   0.74996   0.00000  Uiso   1.00
C570   C     0.33332   0.04273   0.75004   0.00000  Uiso   1.00
C571   C     0.18346   0.14153   0.77850   0.00000  Uiso   1.00
C572   C     0.14988   0.19180   0.72150   0.00000  Uiso   1.00
C573   C     0.13382   0.14155   0.77850   0.00000  Uiso   1.00
C574   C     0.19951   0.19178   0.72150   0.00000  Uiso   1.00
C575   C     0.30635   0.16776   0.83637   0.00000  Uiso   1.00
C576   C     0.02699   0.16557   0.66363   0.00000  Uiso   1.00
C577   C     0.29198   0.17063   0.88604   0.00000  Uiso   1.00
C578   C     0.04135   0.16270   0.61396   0.00000  Uiso   1.00
C579   C     0.30664   0.18837   0.95790   0.00000  Uiso   1.00
C580   C     0.02670   0.14496   0.54210   0.00000  Uiso   1.00
C581   C     0.32463   0.18126   0.91187   0.00000  Uiso   1.00
C582   C     0.00871   0.15207   0.58812   0.00000  Uiso   1.00
C583   C     0.24277   0.16489   0.90800   0.00000  Uiso   1.00
C584   C     0.09057   0.16844   0.59200   0.00000  Uiso   1.00
C585   C     0.22537   0.16733   0.95492   0.00000  Uiso   1.00
C586   C     0.10796   0.16600   0.54509   0.00000  Uiso   1.00
C587   C     0.25722   0.18304   0.97909   0.00000  Uiso   1.00
C588   C     0.07612   0.15029   0.52091   0.00000  Uiso   1.00
C589   C     0.17600   0.15902   0.97762   0.00000  Uiso   1.00
C590   C     0.15734   0.17431   0.52239   0.00000  Uiso   1.00
Cu591  Cu    0.04689   0.16667   0.75000   0.00000  Uiso   1.00
Cu592  Cu    0.28645   0.16666   0.75000   0.00000  Uiso   1.00
H593   H     0.26238   0.21370   0.53933   0.00000  Uiso   1.00
H594   H     0.07096   0.11962   0.96068   0.00000  Uiso   1.00
H595   H     0.11600   0.17170   0.61221   0.00000  Uiso   1.00
H596   H     0.21733   0.16163   0.88779   0.00000  Uiso   1.00
H597   H     0.33108   0.19986   0.97679   0.00000  Uiso   1.00
H598   H     0.00226   0.13347   0.52321   0.00000  Uiso   1.00
H599   H     0.25725   0.03730   0.75049   0.00000  Uiso   1.00
H600   H     0.07608   0.29603   0.74951   0.00000  Uiso   1.00
H601   H     0.25729   0.29604   0.75039   0.00000  Uiso   1.00
H602   H     0.07605   0.03729   0.74961   0.00000  Uiso   1.00
H603   H     0.19577   0.12135   0.80127   0.00000  Uiso   1.00
H604   H     0.13756   0.21199   0.69873   0.00000  Uiso   1.00
H605   H     0.10865   0.12146   0.80132   0.00000  Uiso   1.00
H606   H     0.22468   0.21188   0.69868   0.00000  Uiso   1.00
N607   N     0.11736   0.16668   0.74999   0.00000  Uiso   1.00
N608   N     0.21597   0.16666   0.75001   0.00000  Uiso   1.00
O609   O     0.03958   0.10655   0.75000   0.00000  Uiso   1.00
O610   O     0.29375   0.22678   0.75000   0.00000  Uiso   1.00
O611   O     0.29372   0.10654   0.75000   0.00000  Uiso   1.00
O612   O     0.03961   0.22679   0.75000   0.00000  Uiso   1.00
O613   O     0.01852   0.16668   0.81492   0.00000  Uiso   1.00
O614   O     0.31481   0.16666   0.68508   0.00000  Uiso   1.00
O615   O     0.27267   0.16667   0.81492   0.00000  Uiso   1.00
O616   O     0.06067   0.16667   0.68508   0.00000  Uiso   1.00
Br617  Br    0.27387   0.14176   0.61297   0.00000  Uiso   1.00
Br618  Br    0.05946   0.19157   0.88703   0.00000  Uiso   1.00
Br619  Br    0.16806   0.23743   0.58969   0.00000  Uiso   1.00
Br620  Br    0.16528   0.09589   0.91032   0.00000  Uiso   1.00
C621   C     0.66665   0.08734   0.75004   0.00000  Uiso   1.00
C622   C     0.33335   0.24599   0.74996   0.00000  Uiso   1.00
C623   C     0.52228   0.19730   0.54237   0.00000  Uiso   1.00
C624   C     0.47773   0.13602   0.95763   0.00000  Uiso   1.00
C625   C     0.57199   0.19770   0.52257   0.00000  Uiso   1.00
C626   C     0.42801   0.13562   0.97743   0.00000  Uiso   1.00
C627   C     0.62397   0.02129   0.75027   0.00000  Uiso   1.00
C628   C     0.37603   0.31205   0.74973   0.00000  Uiso   1.00
C629   C     0.62399   0.31205   0.75021   0.00000  Uiso   1.00
C630   C     0.37601   0.02128   0.74979   0.00000  Uiso   1.00
C631   C     0.33335   0.29060   0.74996   0.00000  Uiso   1.00
C632   C     0.66665   0.04273   0.75004   0.00000  Uiso   1.00
C633   C     0.51679   0.14153   0.77850   0.00000  Uiso   1.00
C634   C     0.48321   0.19180   0.72150   0.00000  Uiso   1.00
C635   C     0.46715   0.14155   0.77850   0.00000  Uiso   1.00
C636   C     0.53285   0.19178   0.72150   0.00000  Uiso   1.00
C637   C     0.63968   0.16776   0.83637   0.00000  Uiso   1.00
C638   C     0.36032   0.16557   0.66363   0.00000  Uiso   1.00
C639   C     0.62531   0.17063   0.88604   0.00000  Uiso   1.00
C640   C     0.37469   0.16270   0.61396   0.00000  Uiso   1.00
C641   C     0.63997   0.18837   0.95790   0.00000  Uiso   1.00
C642   C     0.36003   0.14496   0.54210   0.00000  Uiso   1.00
C643   C     0.65796   0.18126   0.91187   0.00000  Uiso   1.00
C644   C     0.34204   0.15207   0.58812   0.00000  Uiso   1.00
C645   C     0.57610   0.16489   0.90800   0.00000  Uiso   1.00
C646   C     0.42390   0.16844   0.59200   0.00000  Uiso   1.00
C647   C     0.55871   0.16733   0.95492   0.00000  Uiso   1.00
C648   C     0.44130   0.16600   0.54509   0.00000  Uiso   1.00
C649   C     0.59055   0.18304   0.97909   0.00000  Uiso   1.00
C650   C     0.40945   0.15029   0.52091   0.00000  Uiso   1.00
C651   C     0.50933   0.15902   0.97762   0.00000  Uiso   1.00
C652   C     0.49067   0.17431   0.52239   0.00000  Uiso   1.00
Cu653  Cu    0.38022   0.16667   0.75000   0.00000  Uiso   1.00
Cu654  Cu    0.61978   0.16666   0.75000   0.00000  Uiso   1.00
H655   H     0.59572   0.21370   0.53933   0.00000  Uiso   1.00
H656   H     0.40429   0.11962   0.96068   0.00000  Uiso   1.00
H657   H     0.44934   0.17170   0.61221   0.00000  Uiso   1.00
H658   H     0.55066   0.16163   0.88779   0.00000  Uiso   1.00
H659   H     0.66441   0.19986   0.97679   0.00000  Uiso   1.00
H660   H     0.33559   0.13347   0.52321   0.00000  Uiso   1.00
H661   H     0.59059   0.03730   0.75049   0.00000  Uiso   1.00
H662   H     0.40941   0.29603   0.74951   0.00000  Uiso   1.00
H663   H     0.59062   0.29604   0.75039   0.00000  Uiso   1.00
H664   H     0.40938   0.03729   0.74961   0.00000  Uiso   1.00
H665   H     0.52911   0.12135   0.80127   0.00000  Uiso   1.00
H666   H     0.47089   0.21199   0.69873   0.00000  Uiso   1.00
H667   H     0.44198   0.12146   0.80132   0.00000  Uiso   1.00
H668   H     0.55802   0.21188   0.69868   0.00000  Uiso   1.00
N669   N     0.45069   0.16668   0.74999   0.00000  Uiso   1.00
N670   N     0.54931   0.16666   0.75001   0.00000  Uiso   1.00
O671   O     0.37291   0.10655   0.75000   0.00000  Uiso   1.00
O672   O     0.62709   0.22678   0.75000   0.00000  Uiso   1.00
O673   O     0.62706   0.10654   0.75000   0.00000  Uiso   1.00
O674   O     0.37294   0.22679   0.75000   0.00000  Uiso   1.00
O675   O     0.35186   0.16668   0.81492   0.00000  Uiso   1.00
O676   O     0.64814   0.16666   0.68508   0.00000  Uiso   1.00
O677   O     0.60600   0.16667   0.81492   0.00000  Uiso   1.00
O678   O     0.39400   0.16667   0.68508   0.00000  Uiso   1.00
Br679  Br    0.60721   0.14176   0.61297   0.00000  Uiso   1.00
Br680  Br    0.39279   0.19157   0.88703   0.00000  Uiso   1.00
Br681  Br    0.50140   0.23743   0.58969   0.00000  Uiso   1.00
Br682  Br    0.49862   0.09589   0.91032   0.00000  Uiso   1.00
C683   C     0.99998   0.08734   0.75004   0.00000  Uiso   1.00
C684   C     0.66669   0.24599   0.74996   0.00000  Uiso   1.00
C685   C     0.85561   0.19730   0.54237   0.00000  Uiso   1.00
C686   C     0.81106   0.13602   0.95763   0.00000  Uiso   1.00
C687   C     0.90533   0.19770   0.52257   0.00000  Uiso   1.00
C688   C     0.76135   0.13562   0.97743   0.00000  Uiso   1.00
C689   C     0.95730   0.02129   0.75027   0.00000  Uiso   1.00
C690   C     0.70936   0.31205   0.74973   0.00000  Uiso   1.00
C691   C     0.95732   0.31205   0.75021   0.00000  Uiso   1.00
C692   C     0.70935   0.02128   0.74979   0.00000  Uiso   1.00
C693   C     0.66668   0.29060   0.74996   0.00000  Uiso   1.00
C694   C     0.99999   0.04273   0.75004   0.00000  Uiso   1.00
C695   C     0.85012   0.14153   0.77850   0.00000  Uiso   1.00
C696   C     0.81654   0.19180   0.72150   0.00000  Uiso   1.00
C697   C     0.80049   0.14155   0.77850   0.00000  Uiso   1.00
C698   C     0.86618   0.19178   0.72150   0.00000  Uiso   1.00
C699   C     0.97301   0.16776   0.83637   0.00000  Uiso   1.00
C700   C     0.69365   0.16557   0.66363   0.00000  Uiso   1.00
C701   C     0.95865   0.17063   0.88604   0.00000  Uiso   1.00
C702   C     0.70802   0.16270   0.61396   0.00000  Uiso   1.00
C703   C     0.97330   0.18837   0.95790   0.00000  Uiso   1.00
C704   C     0.69337   0.14496   0.54210   0.00000  Uiso   1.00
C705   C     0.99130   0.18126   0.91187   0.00000  Uiso   1.00
C706   C     0.67537   0.15207   0.58812   0.00000  Uiso   1.00
C707   C     0.90943   0.16489   0.90800   0.00000  Uiso   1.00
C708   C     0.75724   0.16844   0.59200   0.00000  Uiso   1.00
C709   C     0.89204   0.16733   0.95492   0.00000  Uiso   1.00
C710   C     0.77463   0.16600   0.54509   0.00000  Uiso   1.00
C711   C     0.92389   0.18304   0.97909   0.00000  Uiso   1.00
C712   C     0.74278   0.15029   0.52091   0.00000  Uiso   1.00
C713   C     0.84266   0.15902   0.97762   0.00000  Uiso   1.00
C714   C     0.82401   0.17431   0.52239   0.00000  Uiso   1.00
Cu715  Cu    0.71355   0.16667   0.75000   0.00000  Uiso   1.00
Cu716  Cu    0.95311   0.16666   0.75000   0.00000  Uiso   1.00
H717   H     0.92905   0.21370   0.53933   0.00000  Uiso   1.00
H718   H     0.73762   0.11962   0.96068   0.00000  Uiso   1.00
H719   H     0.78267   0.17170   0.61221   0.00000  Uiso   1.00
H720   H     0.88400   0.16163   0.88779   0.00000  Uiso   1.00
H721   H     0.99775   0.19986   0.97679   0.00000  Uiso   1.00
H722   H     0.66893   0.13347   0.52321   0.00000  Uiso   1.00
H723   H     0.92392   0.03730   0.75049   0.00000  Uiso   1.00
H724   H     0.74275   0.29603   0.74951   0.00000  Uiso   1.00
H725   H     0.92395   0.29604   0.75039   0.00000  Uiso   1.00
H726   H     0.74271   0.03729   0.74961   0.00000  Uiso   1.00
H727   H     0.86244   0.12135   0.80127   0.00000  Uiso   1.00
H728   H     0.80423   0.21199   0.69873   0.00000  Uiso   1.00
H729   H     0.77532   0.12146   0.80132   0.00000  Uiso   1.00
H730   H     0.89135   0.21188   0.69868   0.00000  Uiso   1.00
N731   N     0.78403   0.16668   0.74999   0.00000  Uiso   1.00
N732   N     0.88264   0.16666   0.75001   0.00000  Uiso   1.00
O733   O     0.70625   0.10655   0.75000   0.00000  Uiso   1.00
O734   O     0.96042   0.22678   0.75000   0.00000  Uiso   1.00
O735   O     0.96039   0.10654   0.75000   0.00000  Uiso   1.00
O736   O     0.70628   0.22679   0.75000   0.00000  Uiso   1.00
O737   O     0.68519   0.16668   0.81492   0.00000  Uiso   1.00
O738   O     0.98148   0.16666   0.68508   0.00000  Uiso   1.00
O739   O     0.93933   0.16667   0.81492   0.00000  Uiso   1.00
O740   O     0.72733   0.16667   0.68508   0.00000  Uiso   1.00
Br741  Br    0.94054   0.14176   0.61297   0.00000  Uiso   1.00
Br742  Br    0.72613   0.19157   0.88703   0.00000  Uiso   1.00
Br743  Br    0.83473   0.23743   0.58969   0.00000  Uiso   1.00
Br744  Br    0.83195   0.09589   0.91032   0.00000  Uiso   1.00
C745   C     0.33331   0.42068   0.75004   0.00000  Uiso   1.00
C746   C     0.00002   0.57932   0.74996   0.00000  Uiso   1.00
C747   C     0.18894   0.53064   0.54237   0.00000  Uiso   1.00
C748   C     0.14440   0.46936   0.95763   0.00000  Uiso   1.00
C749   C     0.23866   0.53104   0.52257   0.00000  Uiso   1.00
C750   C     0.09468   0.46895   0.97743   0.00000  Uiso   1.00
C751   C     0.29064   0.35462   0.75027   0.00000  Uiso   1.00
C752   C     0.04270   0.64538   0.74973   0.00000  Uiso   1.00
C753   C     0.29065   0.64539   0.75021   0.00000  Uiso   1.00
C754   C     0.04268   0.35461   0.74979   0.00000  Uiso   1.00
C755   C     0.00001   0.62393   0.74996   0.00000  Uiso   1.00
C756   C     0.33332   0.37607   0.75004   0.00000  Uiso   1.00
C757   C     0.18346   0.47486   0.77850   0.00000  Uiso   1.00
C758   C     0.14988   0.52514   0.72150   0.00000  Uiso   1.00
C759   C     0.13382   0.47489   0.77850   0.00000  Uiso   1.00
C760   C     0.19951   0.52511   0.72150   0.00000  Uiso   1.00
C761   C     0.30635   0.50109   0.83637   0.00000  Uiso   1.00
C762   C     0.02699   0.49890   0.66363   0.00000  Uiso   1.00
C763   C     0.29198   0.50396   0.88604   0.00000  Uiso   1.00
C764   C     0.04135   0.49603   0.61396   0.00000  Uiso   1.00
C765   C     0.30664   0.52171   0.95790   0.00000  Uiso   1.00
C766   C     0.02670   0.47829   0.54210   0.00000  Uiso   1.00
C767   C     0.32463   0.51459   0.91187   0.00000  Uiso   1.00
C768   C     0.00871   0.48541   0.58812   0.00000  Uiso   1.00
C769   C     0.24277   0.49823   0.90800   0.00000  Uiso   1.00
C770   C     0.09057   0.50177   0.59200   0.00000  Uiso   1.00
C771   C     0.22537   0.50066   0.95492   0.00000  Uiso   1.00
C772   C     0.10796   0.49933   0.54509   0.00000  Uiso   1.00
C773   C     0.25722   0.51638   0.97909   0.00000  Uiso   1.00
C774   C     0.07612   0.48362   0.52091   0.00000  Uiso   1.00
C775   C     0.17600   0.49235   0.97762   0.00000  Uiso   1.00
C776   C     0.15734   0.50765   0.52239   0.00000  Uiso   1.00
Cu777  Cu    0.04689   0.50001   0.75000   0.00000  Uiso   1.00
Cu778  Cu    0.28645   0.49999   0.75000   0.00000  Uiso   1.00
H779   H     0.26238   0.54703   0.53933   0.00000  Uiso   1.00
H780   H     0.07096   0.45296   0.96068   0.00000  Uiso   1.00
H781   H     0.11600   0.50503   0.61221   0.00000  Uiso   1.00
H782   H     0.21733   0.49497   0.88779   0.00000  Uiso   1.00
H783   H     0.33108   0.53319   0.97679   0.00000  Uiso   1.00
H784   H     0.00226   0.46680   0.52321   0.00000  Uiso   1.00
H785   H     0.25725   0.37064   0.75049   0.00000  Uiso   1.00
H786   H     0.07608   0.62936   0.74951   0.00000  Uiso   1.00
H787   H     0.25729   0.62938   0.75039   0.00000  Uiso   1.00
H788   H     0.07605   0.37062   0.74961   0.00000  Uiso   1.00
H789   H     0.19577   0.45468   0.80127   0.00000  Uiso   1.00
H790   H     0.13756   0.54532   0.69873   0.00000  Uiso   1.00
H791   H     0.10865   0.45479   0.80132   0.00000  Uiso   1.00
H792   H     0.22468   0.54521   0.69868   0.00000  Uiso   1.00
N793   N     0.11736   0.50001   0.74999   0.00000  Uiso   1.00
N794   N     0.21597   0.49999   0.75001   0.00000  Uiso   1.00
O795   O     0.03958   0.43989   0.75000   0.00000  Uiso   1.00
O796   O     0.29375   0.56011   0.75000   0.00000  Uiso   1.00
O797   O     0.29372   0.43988   0.75000   0.00000  Uiso   1.00
O798   O     0.03961   0.56012   0.75000   0.00000  Uiso   1.00
O799   O     0.01852   0.50001   0.81492   0.00000  Uiso   1.00
O800   O     0.31481   0.49999   0.68508   0.00000  Uiso   1.00
O801   O     0.27267   0.50000   0.81492   0.00000  Uiso   1.00
O802   O     0.06067   0.50000   0.68508   0.00000  Uiso   1.00
Br803  Br    0.27387   0.47509   0.61297   0.00000  Uiso   1.00
Br804  Br    0.05946   0.52490   0.88703   0.00000  Uiso   1.00
Br805  Br    0.16806   0.57076   0.58969   0.00000  Uiso   1.00
Br806  Br    0.16528   0.42923   0.91032   0.00000  Uiso   1.00
C807   C     0.66665   0.42068   0.75004   0.00000  Uiso   1.00
C808   C     0.33335   0.57932   0.74996   0.00000  Uiso   1.00
C809   C     0.52228   0.53064   0.54237   0.00000  Uiso   1.00
C810   C     0.47773   0.46936   0.95763   0.00000  Uiso   1.00
C811   C     0.57199   0.53104   0.52257   0.00000  Uiso   1.00
C812   C     0.42801   0.46895   0.97743   0.00000  Uiso   1.00
C813   C     0.62397   0.35462   0.75027   0.00000  Uiso   1.00
C814   C     0.37603   0.64538   0.74973   0.00000  Uiso   1.00
C815   C     0.62399   0.64539   0.75021   0.00000  Uiso   1.00
C816   C     0.37601   0.35461   0.74979   0.00000  Uiso   1.00
C817   C     0.33335   0.62393   0.74996   0.00000  Uiso   1.00
C818   C     0.66665   0.37607   0.75004   0.00000  Uiso   1.00
C819   C     0.51679   0.47486   0.77850   0.00000  Uiso   1.00
C820   C     0.48321   0.52514   0.72150   0.00000  Uiso   1.00
C821   C     0.46715   0.47489   0.77850   0.00000  Uiso   1.00
C822   C     0.53285   0.52511   0.72150   0.00000  Uiso   1.00
C823   C     0.63968   0.50109   0.83637   0.00000  Uiso   1.00
C824   C     0.36032   0.49890   0.66363   0.00000  Uiso   1.00
C825   C     0.62531   0.50396   0.88604   0.00000  Uiso   1.00
C826   C     0.37469   0.49603   0.61396   0.00000  Uiso   1.00
C827   C     0.63997   0.52171   0.95790   0.00000  Uiso   1.00
C828   C     0.36003   0.47829   0.54210   0.00000  Uiso   1.00
C829   C     0.65796   0.51459   0.91187   0.00000  Uiso   1.00
C830   C     0.34204   0.48541   0.58812   0.00000  Uiso   1.00
C831   C     0.57610   0.49823   0.90800   0.00000  Uiso   1.00
C832   C     0.42390   0.50177   0.59200   0.00000  Uiso   1.00
C833   C     0.55871   0.50066   0.95492   0.00000  Uiso   1.00
C834   C     0.44130   0.49933   0.54509   0.00000  Uiso   1.00
C835   C     0.59055   0.51638   0.97909   0.00000  Uiso   1.00
C836   C     0.40945   0.48362   0.52091   0.00000  Uiso   1.00
C837   C     0.50933   0.49235   0.97762   0.00000  Uiso   1.00
C838   C     0.49067   0.50765   0.52239   0.00000  Uiso   1.00
Cu839  Cu    0.38022   0.50001   0.75000   0.00000  Uiso   1.00
Cu840  Cu    0.61978   0.49999   0.75000   0.00000  Uiso   1.00
H841   H     0.59572   0.54703   0.53933   0.00000  Uiso   1.00
H842   H     0.40429   0.45296   0.96068   0.00000  Uiso   1.00
H843   H     0.44934   0.50503   0.61221   0.00000  Uiso   1.00
H844   H     0.55066   0.49497   0.88779   0.00000  Uiso   1.00
H845   H     0.66441   0.53319   0.97679   0.00000  Uiso   1.00
H846   H     0.33559   0.46680   0.52321   0.00000  Uiso   1.00
H847   H     0.59059   0.37064   0.75049   0.00000  Uiso   1.00
H848   H     0.40941   0.62936   0.74951   0.00000  Uiso   1.00
H849   H     0.59062   0.62938   0.75039   0.00000  Uiso   1.00
H850   H     0.40938   0.37062   0.74961   0.00000  Uiso   1.00
H851   H     0.52911   0.45468   0.80127   0.00000  Uiso   1.00
H852   H     0.47089   0.54532   0.69873   0.00000  Uiso   1.00
H853   H     0.44198   0.45479   0.80132   0.00000  Uiso   1.00
H854   H     0.55802   0.54521   0.69868   0.00000  Uiso   1.00
N855   N     0.45069   0.50001   0.74999   0.00000  Uiso   1.00
N856   N     0.54931   0.49999   0.75001   0.00000  Uiso   1.00
O857   O     0.37291   0.43989   0.75000   0.00000  Uiso   1.00
O858   O     0.62709   0.56011   0.75000   0.00000  Uiso   1.00
O859   O     0.62706   0.43988   0.75000   0.00000  Uiso   1.00
O860   O     0.37294   0.56012   0.75000   0.00000  Uiso   1.00
O861   O     0.35186   0.50001   0.81492   0.00000  Uiso   1.00
O862   O     0.64814   0.49999   0.68508   0.00000  Uiso   1.00
O863   O     0.60600   0.50000   0.81492   0.00000  Uiso   1.00
O864   O     0.39400   0.50000   0.68508   0.00000  Uiso   1.00
Br865  Br    0.60721   0.47509   0.61297   0.00000  Uiso   1.00
Br866  Br    0.39279   0.52490   0.88703   0.00000  Uiso   1.00
Br867  Br    0.50140   0.57076   0.58969   0.00000  Uiso   1.00
Br868  Br    0.49862   0.42923   0.91032   0.00000  Uiso   1.00
C869   C     0.99998   0.42068   0.75004   0.00000  Uiso   1.00
C870   C     0.66669   0.57932   0.74996   0.00000  Uiso   1.00
C871   C     0.85561   0.53064   0.54237   0.00000  Uiso   1.00
C872   C     0.81106   0.46936   0.95763   0.00000  Uiso   1.00
C873   C     0.90533   0.53104   0.52257   0.00000  Uiso   1.00
C874   C     0.76135   0.46895   0.97743   0.00000  Uiso   1.00
C875   C     0.95730   0.35462   0.75027   0.00000  Uiso   1.00
C876   C     0.70936   0.64538   0.74973   0.00000  Uiso   1.00
C877   C     0.95732   0.64539   0.75021   0.00000  Uiso   1.00
C878   C     0.70935   0.35461   0.74979   0.00000  Uiso   1.00
C879   C     0.66668   0.62393   0.74996   0.00000  Uiso   1.00
C880   C     0.99999   0.37607   0.75004   0.00000  Uiso   1.00
C881   C     0.85012   0.47486   0.77850   0.00000  Uiso   1.00
C882   C     0.81654   0.52514   0.72150   0.00000  Uiso   1.00
C883   C     0.80049   0.47489   0.77850   0.00000  Uiso   1.00
C884   C     0.86618   0.52511   0.72150   0.00000  Uiso   1.00
C885   C     0.97301   0.50109   0.83637   0.00000  Uiso   1.00
C886   C     0.69365   0.49890   0.66363   0.00000  Uiso   1.00
C887   C     0.95865   0.50396   0.88604   0.00000  Uiso   1.00
C888   C     0.70802   0.49603   0.61396   0.00000  Uiso   1.00
C889   C     0.97330   0.52171   0.95790   0.00000  Uiso   1.00
C890   C     0.69337   0.47829   0.54210   0.00000  Uiso   1.00
C891   C     0.99130   0.51459   0.91187   0.00000  Uiso   1.00
C892   C     0.67537   0.48541   0.58812   0.00000  Uiso   1.00
C893   C     0.90943   0.49823   0.90800   0.00000  Uiso   1.00
C894   C     0.75724   0.50177   0.59200   0.00000  Uiso   1.00
C895   C     0.89204   0.50066   0.95492   0.00000  Uiso   1.00
C896   C     0.77463   0.49933   0.54509   0.00000  Uiso   1.00
C897   C     0.92389   0.51638   0.97909   0.00000  Uiso   1.00
C898   C     0.74278   0.48362   0.52091   0.00000  Uiso   1.00
C899   C     0.84266   0.49235   0.97762   0.00000  Uiso   1.00
C900   C     0.82401   0.50765   0.52239   0.00000  Uiso   1.00
Cu901  Cu    0.71355   0.50001   0.75000   0.00000  Uiso   1.00
Cu902  Cu    0.95311   0.49999   0.75000   0.00000  Uiso   1.00
H903   H     0.92905   0.54703   0.53933   0.00000  Uiso   1.00
H904   H     0.73762   0.45296   0.96068   0.00000  Uiso   1.00
H905   H     0.78267   0.50503   0.61221   0.00000  Uiso   1.00
H906   H     0.88400   0.49497   0.88779   0.00000  Uiso   1.00
H907   H     0.99775   0.53319   0.97679   0.00000  Uiso   1.00
H908   H     0.66893   0.46680   0.52321   0.00000  Uiso   1.00
H909   H     0.92392   0.37064   0.75049   0.00000  Uiso   1.00
H910   H     0.74275   0.62936   0.74951   0.00000  Uiso   1.00
H911   H     0.92395   0.62938   0.75039   0.00000  Uiso   1.00
H912   H     0.74271   0.37062   0.74961   0.00000  Uiso   1.00
H913   H     0.86244   0.45468   0.80127   0.00000  Uiso   1.00
H914   H     0.80423   0.54532   0.69873   0.00000  Uiso   1.00
H915   H     0.77532   0.45479   0.80132   0.00000  Uiso   1.00
H916   H     0.89135   0.54521   0.69868   0.00000  Uiso   1.00
N917   N     0.78403   0.50001   0.74999   0.00000  Uiso   1.00
N918   N     0.88264   0.49999   0.75001   0.00000  Uiso   1.00
O919   O     0.70625   0.43989   0.75000   0.00000  Uiso   1.00
O920   O     0.96042   0.56011   0.75000   0.00000  Uiso   1.00
O921   O     0.96039   0.43988   0.75000   0.00000  Uiso   1.00
O922   O     0.70628   0.56012   0.75000   0.00000  Uiso   1.00
O923   O     0.68519   0.50001   0.81492   0.00000  Uiso   1.00
O924   O     0.98148   0.49999   0.68508   0.00000  Uiso   1.00
O925   O     0.93933   0.50000   0.81492   0.00000  Uiso   1.00
O926   O     0.72733   0.50000   0.68508   0.00000  Uiso   1.00
Br927  Br    0.94054   0.47509   0.61297   0.00000  Uiso   1.00
Br928  Br    0.72613   0.52490   0.88703   0.00000  Uiso   1.00
Br929  Br    0.83473   0.57076   0.58969   0.00000  Uiso   1.00
Br930  Br    0.83195   0.42923   0.91032   0.00000  Uiso   1.00
C931   C     0.33331   0.75401   0.75004   0.00000  Uiso   1.00
C932   C     0.00002   0.91266   0.74996   0.00000  Uiso   1.00
C933   C     0.18894   0.86397   0.54237   0.00000  Uiso   1.00
C934   C     0.14440   0.80269   0.95763   0.00000  Uiso   1.00
C935   C     0.23866   0.86437   0.52257   0.00000  Uiso   1.00
C936   C     0.09468   0.80229   0.97743   0.00000  Uiso   1.00
C937   C     0.29064   0.68795   0.75027   0.00000  Uiso   1.00
C938   C     0.04270   0.97871   0.74973   0.00000  Uiso   1.00
C939   C     0.29065   0.97872   0.75021   0.00000  Uiso   1.00
C940   C     0.04268   0.68795   0.74979   0.00000  Uiso   1.00
C941   C     0.00001   0.95727   0.74996   0.00000  Uiso   1.00
C942   C     0.33332   0.70940   0.75004   0.00000  Uiso   1.00
C943   C     0.18346   0.80819   0.77850   0.00000  Uiso   1.00
C944   C     0.14988   0.85847   0.72150   0.00000  Uiso   1.00
C945   C     0.13382   0.80822   0.77850   0.00000  Uiso   1.00
C946   C     0.19951   0.85845   0.72150   0.00000  Uiso   1.00
C947   C     0.30635   0.83443   0.83637   0.00000  Uiso   1.00
C948   C     0.02699   0.83224   0.66363   0.00000  Uiso   1.00
C949   C     0.29198   0.83730   0.88604   0.00000  Uiso   1.00
C950   C     0.04135   0.82937   0.61396   0.00000  Uiso   1.00
C951   C     0.30664   0.85504   0.95790   0.00000  Uiso   1.00
C952   C     0.02670   0.81162   0.54210   0.00000  Uiso   1.00
C953   C     0.32463   0.84793   0.91187   0.00000  Uiso   1.00
C954   C     0.00871   0.81874   0.58812   0.00000  Uiso   1.00
C955   C     0.24277   0.83156   0.90800   0.00000  Uiso   1.00
C956   C     0.09057   0.83510   0.59200   0.00000  Uiso   1.00
C957   C     0.22537   0.83400   0.95492   0.00000  Uiso   1.00
C958   C     0.10796   0.83267   0.54509   0.00000  Uiso   1.00
C959   C     0.25722   0.84971   0.97909   0.00000  Uiso   1.00
C960   C     0.07612   0.81695   0.52091   0.00000  Uiso   1.00
C961   C     0.17600   0.82568   0.97762   0.00000  Uiso   1.00
C962   C     0.15734   0.84098   0.52239   0.00000  Uiso   1.00
Cu963  Cu    0.04689   0.83334   0.75000   0.00000  Uiso   1.00
Cu964  Cu    0.28645   0.83333   0.75000   0.00000  Uiso   1.00
H965   H     0.26238   0.88036   0.53933   0.00000  Uiso   1.00
H966   H     0.07096   0.78629   0.96068   0.00000  Uiso   1.00
H967   H     0.11600   0.83837   0.61221   0.00000  Uiso   1.00
H968   H     0.21733   0.82830   0.88779   0.00000  Uiso   1.00
H969   H     0.33108   0.86653   0.97679   0.00000  Uiso   1.00
H970   H     0.00226   0.80013   0.52321   0.00000  Uiso   1.00
H971   H     0.25725   0.70397   0.75049   0.00000  Uiso   1.00
H972   H     0.07608   0.96270   0.74951   0.00000  Uiso   1.00
H973   H     0.25729   0.96271   0.75039   0.00000  Uiso   1.00
H974   H     0.07605   0.70395   0.74961   0.00000  Uiso   1.00
H975   H     0.19577   0.78801   0.80127   0.00000  Uiso   1.00
H976   H     0.13756   0.87865   0.69873   0.00000  Uiso   1.00
H977   H     0.10865   0.78812   0.80132   0.00000  Uiso   1.00
H978   H     0.22468   0.87854   0.69868   0.00000  Uiso   1.00
N979   N     0.11736   0.83334   0.74999   0.00000  Uiso   1.00
N980   N     0.21597   0.83332   0.75001   0.00000  Uiso   1.00
O981   O     0.03958   0.77322   0.75000   0.00000  Uiso   1.00
O982   O     0.29375   0.89345   0.75000   0.00000  Uiso   1.00
O983   O     0.29372   0.77321   0.75000   0.00000  Uiso   1.00
O984   O     0.03961   0.89346   0.75000   0.00000  Uiso   1.00
O985   O     0.01852   0.83334   0.81492   0.00000  Uiso   1.00
O986   O     0.31481   0.83332   0.68508   0.00000  Uiso   1.00
O987   O     0.27267   0.83333   0.81492   0.00000  Uiso   1.00
O988   O     0.06067   0.83333   0.68508   0.00000  Uiso   1.00
Br989  Br    0.27387   0.80842   0.61297   0.00000  Uiso   1.00
Br990  Br    0.05946   0.85824   0.88703   0.00000  Uiso   1.00
Br991  Br    0.16806   0.90409   0.58969   0.00000  Uiso   1.00
Br992  Br    0.16528   0.76256   0.91032   0.00000  Uiso   1.00
C993   C     0.66665   0.75401   0.75004   0.00000  Uiso   1.00
C994   C     0.33335   0.91266   0.74996   0.00000  Uiso   1.00
C995   C     0.52228   0.86397   0.54237   0.00000  Uiso   1.00
C996   C     0.47773   0.80269   0.95763   0.00000  Uiso   1.00
C997   C     0.57199   0.86437   0.52257   0.00000  Uiso   1.00
C998   C     0.42801   0.80229   0.97743   0.00000  Uiso   1.00
C999   C     0.62397   0.68795   0.75027   0.00000  Uiso   1.00
C1000  C     0.37603   0.97871   0.74973   0.00000  Uiso   1.00
C1001  C     0.62399   0.97872   0.75021   0.00000  Uiso   1.00
C1002  C     0.37601   0.68795   0.74979   0.00000  Uiso   1.00
C1003  C     0.33335   0.95727   0.74996   0.00000  Uiso   1.00
C1004  C     0.66665   0.70940   0.75004   0.00000  Uiso   1.00
C1005  C     0.51679   0.80819   0.77850   0.00000  Uiso   1.00
C1006  C     0.48321   0.85847   0.72150   0.00000  Uiso   1.00
C1007  C     0.46715   0.80822   0.77850   0.00000  Uiso   1.00
C1008  C     0.53285   0.85845   0.72150   0.00000  Uiso   1.00
C1009  C     0.63968   0.83443   0.83637   0.00000  Uiso   1.00
C1010  C     0.36032   0.83224   0.66363   0.00000  Uiso   1.00
C1011  C     0.62531   0.83730   0.88604   0.00000  Uiso   1.00
C1012  C     0.37469   0.82937   0.61396   0.00000  Uiso   1.00
C1013  C     0.63997   0.85504   0.95790   0.00000  Uiso   1.00
C1014  C     0.36003   0.81162   0.54210   0.00000  Uiso   1.00
C1015  C     0.65796   0.84793   0.91187   0.00000  Uiso   1.00
C1016  C     0.34204   0.81874   0.58812   0.00000  Uiso   1.00
C1017  C     0.57610   0.83156   0.90800   0.00000  Uiso   1.00
C1018  C     0.42390   0.83510   0.59200   0.00000  Uiso   1.00
C1019  C     0.55871   0.83400   0.95492   0.00000  Uiso   1.00
C1020  C     0.44130   0.83267   0.54509   0.00000  Uiso   1.00
C1021  C     0.59055   0.84971   0.97909   0.00000  Uiso   1.00
C1022  C     0.40945   0.81695   0.52091   0.00000  Uiso   1.00
C1023  C     0.50933   0.82568   0.97762   0.00000  Uiso   1.00
C1024  C     0.49067   0.84098   0.52239   0.00000  Uiso   1.00
Cu1025 Cu    0.38022   0.83334   0.75000   0.00000  Uiso   1.00
Cu1026 Cu    0.61978   0.83333   0.75000   0.00000  Uiso   1.00
H1027  H     0.59572   0.88036   0.53933   0.00000  Uiso   1.00
H1028  H     0.40429   0.78629   0.96068   0.00000  Uiso   1.00
H1029  H     0.44934   0.83837   0.61221   0.00000  Uiso   1.00
H1030  H     0.55066   0.82830   0.88779   0.00000  Uiso   1.00
H1031  H     0.66441   0.86653   0.97679   0.00000  Uiso   1.00
H1032  H     0.33559   0.80013   0.52321   0.00000  Uiso   1.00
H1033  H     0.59059   0.70397   0.75049   0.00000  Uiso   1.00
H1034  H     0.40941   0.96270   0.74951   0.00000  Uiso   1.00
H1035  H     0.59062   0.96271   0.75039   0.00000  Uiso   1.00
H1036  H     0.40938   0.70395   0.74961   0.00000  Uiso   1.00
H1037  H     0.52911   0.78801   0.80127   0.00000  Uiso   1.00
H1038  H     0.47089   0.87865   0.69873   0.00000  Uiso   1.00
H1039  H     0.44198   0.78812   0.80132   0.00000  Uiso   1.00
H1040  H     0.55802   0.87854   0.69868   0.00000  Uiso   1.00
N1041  N     0.45069   0.83334   0.74999   0.00000  Uiso   1.00
N1042  N     0.54931   0.83332   0.75001   0.00000  Uiso   1.00
O1043  O     0.37291   0.77322   0.75000   0.00000  Uiso   1.00
O1044  O     0.62709   0.89345   0.75000   0.00000  Uiso   1.00
O1045  O     0.62706   0.77321   0.75000   0.00000  Uiso   1.00
O1046  O     0.37294   0.89346   0.75000   0.00000  Uiso   1.00
O1047  O     0.35186   0.83334   0.81492   0.00000  Uiso   1.00
O1048  O     0.64814   0.83332   0.68508   0.00000  Uiso   1.00
O1049  O     0.60600   0.83333   0.81492   0.00000  Uiso   1.00
O1050  O     0.39400   0.83333   0.68508   0.00000  Uiso   1.00
Br1051 Br    0.60721   0.80842   0.61297   0.00000  Uiso   1.00
Br1052 Br    0.39279   0.85824   0.88703   0.00000  Uiso   1.00
Br1053 Br    0.50140   0.90409   0.58969   0.00000  Uiso   1.00
Br1054 Br    0.49862   0.76256   0.91032   0.00000  Uiso   1.00
C1055  C     0.99998   0.75401   0.75004   0.00000  Uiso   1.00
C1056  C     0.66669   0.91266   0.74996   0.00000  Uiso   1.00
C1057  C     0.85561   0.86397   0.54237   0.00000  Uiso   1.00
C1058  C     0.81106   0.80269   0.95763   0.00000  Uiso   1.00
C1059  C     0.90533   0.86437   0.52257   0.00000  Uiso   1.00
C1060  C     0.76135   0.80229   0.97743   0.00000  Uiso   1.00
C1061  C     0.95730   0.68795   0.75027   0.00000  Uiso   1.00
C1062  C     0.70936   0.97871   0.74973   0.00000  Uiso   1.00
C1063  C     0.95732   0.97872   0.75021   0.00000  Uiso   1.00
C1064  C     0.70935   0.68795   0.74979   0.00000  Uiso   1.00
C1065  C     0.66668   0.95727   0.74996   0.00000  Uiso   1.00
C1066  C     0.99999   0.70940   0.75004   0.00000  Uiso   1.00
C1067  C     0.85012   0.80819   0.77850   0.00000  Uiso   1.00
C1068  C     0.81654   0.85847   0.72150   0.00000  Uiso   1.00
C1069  C     0.80049   0.80822   0.77850   0.00000  Uiso   1.00
C1070  C     0.86618   0.85845   0.72150   0.00000  Uiso   1.00
C1071  C     0.97301   0.83443   0.83637   0.00000  Uiso   1.00
C1072  C     0.69365   0.83224   0.66363   0.00000  Uiso   1.00
C1073  C     0.95865   0.83730   0.88604   0.00000  Uiso   1.00
C1074  C     0.70802   0.82937   0.61396   0.00000  Uiso   1.00
C1075  C     0.97330   0.85504   0.95790   0.00000  Uiso   1.00
C1076  C     0.69337   0.81162   0.54210   0.00000  Uiso   1.00
C1077  C     0.99130   0.84793   0.91187   0.00000  Uiso   1.00
C1078  C     0.67537   0.81874   0.58812   0.00000  Uiso   1.00
C1079  C     0.90943   0.83156   0.90800   0.00000  Uiso   1.00
C1080  C     0.75724   0.83510   0.59200   0.00000  Uiso   1.00
C1081  C     0.89204   0.83400   0.95492   0.00000  Uiso   1.00
C1082  C     0.77463   0.83267   0.54509   0.00000  Uiso   1.00
C1083  C     0.92389   0.84971   0.97909   0.00000  Uiso   1.00
C1084  C     0.74278   0.81695   0.52091   0.00000  Uiso   1.00
C1085  C     0.84266   0.82568   0.97762   0.00000  Uiso   1.00
C1086  C     0.82401   0.84098   0.52239   0.00000  Uiso   1.00
Cu1087 Cu    0.71355   0.83334   0.75000   0.00000  Uiso   1.00
Cu1088 Cu    0.95311   0.83333   0.75000   0.00000  Uiso   1.00
H1089  H     0.92905   0.88036   0.53933   0.00000  Uiso   1.00
H1090  H     0.73762   0.78629   0.96068   0.00000  Uiso   1.00
H1091  H     0.78267   0.83837   0.61221   0.00000  Uiso   1.00
H1092  H     0.88400   0.82830   0.88779   0.00000  Uiso   1.00
H1093  H     0.99775   0.86653   0.97679   0.00000  Uiso   1.00
H1094  H     0.66893   0.80013   0.52321   0.00000  Uiso   1.00
H1095  H     0.92392   0.70397   0.75049   0.00000  Uiso   1.00
H1096  H     0.74275   0.96270   0.74951   0.00000  Uiso   1.00
H1097  H     0.92395   0.96271   0.75039   0.00000  Uiso   1.00
H1098  H     0.74271   0.70395   0.74961   0.00000  Uiso   1.00
H1099  H     0.86244   0.78801   0.80127   0.00000  Uiso   1.00
H1100  H     0.80423   0.87865   0.69873   0.00000  Uiso   1.00
H1101  H     0.77532   0.78812   0.80132   0.00000  Uiso   1.00
H1102  H     0.89135   0.87854   0.69868   0.00000  Uiso   1.00
N1103  N     0.78403   0.83334   0.74999   0.00000  Uiso   1.00
N1104  N     0.88264   0.83332   0.75001   0.00000  Uiso   1.00
O1105  O     0.70625   0.77322   0.75000   0.00000  Uiso   1.00
O1106  O     0.96042   0.89345   0.75000   0.00000  Uiso   1.00
O1107  O     0.96039   0.77321   0.75000   0.00000  Uiso   1.00
O1108  O     0.70628   0.89346   0.75000   0.00000  Uiso   1.00
O1109  O     0.68519   0.83334   0.81492   0.00000  Uiso   1.00
O1110  O     0.98148   0.83332   0.68508   0.00000  Uiso   1.00
O1111  O     0.93933   0.83333   0.81492   0.00000  Uiso   1.00
O1112  O     0.72733   0.83333   0.68508   0.00000  Uiso   1.00
Br1113 Br    0.94054   0.80842   0.61297   0.00000  Uiso   1.00
Br1114 Br    0.72613   0.85824   0.88703   0.00000  Uiso   1.00
Br1115 Br    0.83473   0.90409   0.58969   0.00000  Uiso   1.00
Br1116 Br    0.83195   0.76256   0.91032   0.00000  Uiso   1.00
loop_
_geom_bond_atom_site_label_1
_geom_bond_atom_site_label_2
_geom_bond_distance
_geom_bond_site_symmetry_2
_ccdc_geom_bond_type
C1     C12     1.450   .     S
C1     O53     1.290   .     A
C1     O113    1.290   .     S
C2     C11     1.450   .     S
C2     O54     1.290   .     A
C2     O176    1.290   1_455 S
C3     Br61    1.932   .     S
C3     C5      1.390   .     A
C3     C32     1.428   .     A
C4     Br62    1.932   .     S
C4     C31     1.428   .     A
C4     C6      1.390   .     A
C5     H35     1.085   .     S
C5     C587    1.389   1_554 S
C6     H36     1.085   .     S
C6     C588    1.389   .     S
C7     C12     1.401   .     A
C7     H41     1.083   .     S
C7     C381    1.383   1_545 S
C8     H42     1.083   .     S
C8     C11     1.401   .     A
C8     C196    1.383   .     S
C9     H43     1.083   .     S
C9     C193    1.383   .     S
C9     C73     1.401   .     S
C10    H44     1.083   .     S
C10    C380    1.383   1_545 S
C10    C136    1.401   1_455 S
C11    C133    1.401   1_455 S
C12    C72     1.401   .     S
C13    H45     1.082   .     S
C13    C15     1.415   .     A
C13    N50     1.367   .     A
C14    H46     1.082   .     S
C14    C16     1.415   .     A
C14    N49     1.367   .     A
C15    H47     1.082   .     S
C15    N49     1.366   .     A
C16    H48     1.082   .     S
C16    N50     1.366   .     A
C17    C19     1.479   .     S
C17    O57     1.299   .     A
C17    O117    1.294   .     S
C18    C20     1.479   .     S
C18    O58     1.299   .     A
C18    O180    1.294   1_455 S
C19    C23     1.416   .     A
C19    C25     1.402   .     A
C20    C24     1.416   .     A
C20    C26     1.402   .     A
C21    H39     1.084   .     S
C21    C23     1.394   .     A
C21    C29     1.401   .     A
C22    H40     1.084   .     S
C22    C24     1.394   .     A
C22    C30     1.401   .     A
C23    Br122   1.924   .     S
C24    Br183   1.924   1_455 S
C25    H38     1.076   .     S
C25    C27     1.401   .     A
C26    H37     1.076   .     S
C26    C28     1.401   .     A
C27    C29     1.411   .     A
C27    C31     1.425   .     A
C28    C30     1.411   .     A
C28    C32     1.425   .     A
C29    C563    1.389   .     S
C30    C564    1.389   1_554 S
C31    C590    1.431   .     S
C32    C589    1.431   1_554 S
Cu33   O55     1.950   .     S
Cu33   O58     1.932   .     S
Cu33   N49     2.009   .     S
Cu33   O54     1.965   .     S
Cu33   O51     1.965   .     S
Cu33   Cu158   2.674   1_455 S
Cu34   O57     1.932   .     S
Cu34   O56     1.950   .     S
Cu34   O53     1.965   .     S
Cu34   N50     2.009   .     S
Cu34   O52     1.965   .     S
Cu34   Cu95    2.674   .     S
O51    C125    1.290   1_455 S
O52    C64     1.290   .     S
O55    C141    1.294   1_455 S
O56    C80     1.294   .     S
Br59   C86     1.924   .     S
Br60   C147    1.924   1_455 S
C63    C74     1.450   .     S
C63    O115    1.290   .     A
C63    O175    1.290   .     S
C64    C73     1.450   .     S
C64    O116    1.290   .     A
C65    Br123   1.932   .     S
C65    C67     1.390   .     A
C65    C94     1.428   .     A
C66    Br124   1.932   .     S
C66    C93     1.428   .     A
C66    C68     1.390   .     A
C67    H97     1.085   .     S
C67    C649    1.389   1_554 S
C68    H98     1.085   .     S
C68    C650    1.389   .     S
C69    C74     1.401   .     A
C69    H103    1.083   .     S
C69    C443    1.383   1_545 S
C70    H104    1.083   .     S
C70    C73     1.401   .     A
C70    C258    1.383   .     S
C71    H105    1.083   .     S
C71    C255    1.383   .     S
C71    C135    1.401   .     S
C72    H106    1.083   .     S
C72    C442    1.383   1_545 S
C74    C134    1.401   .     S
C75    H107    1.082   .     S
C75    C77     1.415   .     A
C75    N112    1.367   .     A
C76    H108    1.082   .     S
C76    C78     1.415   .     A
C76    N111    1.367   .     A
C77    H109    1.082   .     S
C77    N111    1.366   .     A
C78    H110    1.082   .     S
C78    N112    1.366   .     A
C79    C81     1.479   .     S
C79    O119    1.299   .     A
C79    O179    1.294   .     S
C80    C82     1.479   .     S
C80    O120    1.299   .     A
C81    C85     1.416   .     A
C81    C87     1.402   .     A
C82    C86     1.416   .     A
C82    C88     1.402   .     A
C83    H101    1.084   .     S
C83    C85     1.394   .     A
C83    C91     1.401   .     A
C84    H102    1.084   .     S
C84    C86     1.394   .     A
C84    C92     1.401   .     A
C85    Br184   1.924   .     S
C87    H100    1.076   .     S
C87    C89     1.401   .     A
C88    H99     1.076   .     S
C88    C90     1.401   .     A
C89    C91     1.411   .     A
C89    C93     1.425   .     A
C90    C92     1.411   .     A
C90    C94     1.425   .     A
C91    C625    1.389   .     S
C92    C626    1.389   1_554 S
C93    C652    1.431   .     S
C94    C651    1.431   1_554 S
Cu95   O117    1.950   .     S
Cu95   O120    1.932   .     S
Cu95   N111    2.009   .     S
Cu95   O116    1.965   .     S
Cu95   O113    1.965   .     S
Cu96   O119    1.932   .     S
Cu96   O118    1.950   .     S
Cu96   O115    1.965   .     S
Cu96   N112    2.009   .     S
Cu96   O114    1.965   .     S
Cu96   Cu157   2.674   .     S
O114   C126    1.290   .     S
O118   C142    1.294   .     S
Br121  C148    1.924   .     S
C125   C136    1.450   .     S
C125   O177    1.290   .     A
C125   O51     1.290   1_655 S
C126   C135    1.450   .     S
C126   O178    1.290   .     A
C127   Br185   1.932   .     S
C127   C129    1.390   .     A
C127   C156    1.428   .     A
C128   Br186   1.932   .     S
C128   C155    1.428   .     A
C128   C130    1.390   .     A
C129   H159    1.085   .     S
C129   C711    1.389   1_554 S
C130   H160    1.085   .     S
C130   C712    1.389   .     S
C131   C136    1.401   .     A
C131   H165    1.083   .     S
C131   C505    1.383   1_545 S
C132   H166    1.083   .     S
C132   C135    1.401   .     A
C132   C320    1.383   .     S
C133   H167    1.083   .     S
C133   C317    1.383   .     S
C133   C11     1.401   1_655 S
C134   H168    1.083   .     S
C134   C504    1.383   1_545 S
C136   C10     1.401   1_655 S
C137   H169    1.082   .     S
C137   C139    1.415   .     A
C137   N174    1.367   .     A
C138   H170    1.082   .     S
C138   C140    1.415   .     A
C138   N173    1.367   .     A
C139   H171    1.082   .     S
C139   N173    1.366   .     A
C140   H172    1.082   .     S
C140   N174    1.366   .     A
C141   C143    1.479   .     S
C141   O181    1.299   .     A
C141   O55     1.294   1_655 S
C142   C144    1.479   .     S
C142   O182    1.299   .     A
C143   C147    1.416   .     A
C143   C149    1.402   .     A
C144   C148    1.416   .     A
C144   C150    1.402   .     A
C145   H163    1.084   .     S
C145   C147    1.394   .     A
C145   C153    1.401   .     A
C146   H164    1.084   .     S
C146   C148    1.394   .     A
C146   C154    1.401   .     A
C147   Br60    1.924   1_655 S
C149   H162    1.076   .     S
C149   C151    1.401   .     A
C150   H161    1.076   .     S
C150   C152    1.401   .     A
C151   C153    1.411   .     A
C151   C155    1.425   .     A
C152   C154    1.411   .     A
C152   C156    1.425   .     A
C153   C687    1.389   .     S
C154   C688    1.389   1_554 S
C155   C714    1.431   .     S
C156   C713    1.431   1_554 S
Cu157  O179    1.950   .     S
Cu157  O182    1.932   .     S
Cu157  N173    2.009   .     S
Cu157  O178    1.965   .     S
Cu157  O175    1.965   .     S
Cu158  O181    1.932   .     S
Cu158  O180    1.950   .     S
Cu158  O177    1.965   .     S
Cu158  N174    2.009   .     S
Cu158  O176    1.965   .     S
Cu158  Cu33    2.674   1_655 S
O176   C2      1.290   1_655 S
O180   C18     1.294   1_655 S
Br183  C24     1.924   1_655 S
C187   C198    1.450   .     S
C187   O239    1.290   .     A
C187   O299    1.290   .     S
C188   C197    1.450   .     S
C188   O240    1.290   .     A
C188   O362    1.290   1_455 S
C189   Br247   1.932   .     S
C189   C191    1.390   .     A
C189   C218    1.428   .     A
C190   Br248   1.932   .     S
C190   C217    1.428   .     A
C190   C192    1.390   .     A
C191   H221    1.085   .     S
C191   C773    1.389   1_554 S
C192   H222    1.085   .     S
C192   C774    1.389   .     S
C193   C198    1.401   .     A
C193   H227    1.083   .     S
C194   H228    1.083   .     S
C194   C197    1.401   .     A
C194   C382    1.383   .     S
C195   H229    1.083   .     S
C195   C379    1.383   .     S
C195   C259    1.401   .     S
C196   H230    1.083   .     S
C196   C322    1.401   1_455 S
C197   C319    1.401   1_455 S
C198   C258    1.401   .     S
C199   H231    1.082   .     S
C199   C201    1.415   .     A
C199   N236    1.367   .     A
C200   H232    1.082   .     S
C200   C202    1.415   .     A
C200   N235    1.367   .     A
C201   H233    1.082   .     S
C201   N235    1.366   .     A
C202   H234    1.082   .     S
C202   N236    1.366   .     A
C203   C205    1.479   .     S
C203   O243    1.299   .     A
C203   O303    1.294   .     S
C204   C206    1.479   .     S
C204   O244    1.299   .     A
C204   O366    1.294   1_455 S
C205   C209    1.416   .     A
C205   C211    1.402   .     A
C206   C210    1.416   .     A
C206   C212    1.402   .     A
C207   H225    1.084   .     S
C207   C209    1.394   .     A
C207   C215    1.401   .     A
C208   H226    1.084   .     S
C208   C210    1.394   .     A
C208   C216    1.401   .     A
C209   Br308   1.924   .     S
C210   Br369   1.924   1_455 S
C211   H224    1.076   .     S
C211   C213    1.401   .     A
C212   H223    1.076   .     S
C212   C214    1.401   .     A
C213   C215    1.411   .     A
C213   C217    1.425   .     A
C214   C216    1.411   .     A
C214   C218    1.425   .     A
C215   C749    1.389   .     S
C216   C750    1.389   1_554 S
C217   C776    1.431   .     S
C218   C775    1.431   1_554 S
Cu219  O241    1.950   .     S
Cu219  O244    1.932   .     S
Cu219  N235    2.009   .     S
Cu219  O240    1.965   .     S
Cu219  O237    1.965   .     S
Cu219  Cu344   2.674   1_455 S
Cu220  O243    1.932   .     S
Cu220  O242    1.950   .     S
Cu220  O239    1.965   .     S
Cu220  N236    2.009   .     S
Cu220  O238    1.965   .     S
Cu220  Cu281   2.674   .     S
O237   C311    1.290   1_455 S
O238   C250    1.290   .     S
O241   C327    1.294   1_455 S
O242   C266    1.294   .     S
Br245  C272    1.924   .     S
Br246  C333    1.924   1_455 S
C249   C260    1.450   .     S
C249   O301    1.290   .     A
C249   O361    1.290   .     S
C250   C259    1.450   .     S
C250   O302    1.290   .     A
C251   Br309   1.932   .     S
C251   C253    1.390   .     A
C251   C280    1.428   .     A
C252   Br310   1.932   .     S
C252   C279    1.428   .     A
C252   C254    1.390   .     A
C253   H283    1.085   .     S
C253   C835    1.389   1_554 S
C254   H284    1.085   .     S
C254   C836    1.389   .     S
C255   C260    1.401   .     A
C255   H289    1.083   .     S
C256   H290    1.083   .     S
C256   C259    1.401   .     A
C256   C444    1.383   .     S
C257   H291    1.083   .     S
C257   C441    1.383   .     S
C257   C321    1.401   .     S
C258   H292    1.083   .     S
C260   C320    1.401   .     S
C261   H293    1.082   .     S
C261   C263    1.415   .     A
C261   N298    1.367   .     A
C262   H294    1.082   .     S
C262   C264    1.415   .     A
C262   N297    1.367   .     A
C263   H295    1.082   .     S
C263   N297    1.366   .     A
C264   H296    1.082   .     S
C264   N298    1.366   .     A
C265   C267    1.479   .     S
C265   O305    1.299   .     A
C265   O365    1.294   .     S
C266   C268    1.479   .     S
C266   O306    1.299   .     A
C267   C271    1.416   .     A
C267   C273    1.402   .     A
C268   C272    1.416   .     A
C268   C274    1.402   .     A
C269   H287    1.084   .     S
C269   C271    1.394   .     A
C269   C277    1.401   .     A
C270   H288    1.084   .     S
C270   C272    1.394   .     A
C270   C278    1.401   .     A
C271   Br370   1.924   .     S
C273   H286    1.076   .     S
C273   C275    1.401   .     A
C274   H285    1.076   .     S
C274   C276    1.401   .     A
C275   C277    1.411   .     A
C275   C279    1.425   .     A
C276   C278    1.411   .     A
C276   C280    1.425   .     A
C277   C811    1.389   .     S
C278   C812    1.389   1_554 S
C279   C838    1.431   .     S
C280   C837    1.431   1_554 S
Cu281  O303    1.950   .     S
Cu281  O306    1.932   .     S
Cu281  N297    2.009   .     S
Cu281  O302    1.965   .     S
Cu281  O299    1.965   .     S
Cu282  O305    1.932   .     S
Cu282  O304    1.950   .     S
Cu282  O301    1.965   .     S
Cu282  N298    2.009   .     S
Cu282  O300    1.965   .     S
Cu282  Cu343   2.674   .     S
O300   C312    1.290   .     S
O304   C328    1.294   .     S
Br307  C334    1.924   .     S
C311   C322    1.450   .     S
C311   O363    1.290   .     A
C311   O237    1.290   1_655 S
C312   C321    1.450   .     S
C312   O364    1.290   .     A
C313   Br371   1.932   .     S
C313   C315    1.390   .     A
C313   C342    1.428   .     A
C314   Br372   1.932   .     S
C314   C341    1.428   .     A
C314   C316    1.390   .     A
C315   H345    1.085   .     S
C315   C897    1.389   1_554 S
C316   H346    1.085   .     S
C316   C898    1.389   .     S
C317   C322    1.401   .     A
C317   H351    1.083   .     S
C318   H352    1.083   .     S
C318   C321    1.401   .     A
C318   C506    1.383   .     S
C319   H353    1.083   .     S
C319   C503    1.383   .     S
C319   C197    1.401   1_655 S
C320   H354    1.083   .     S
C322   C196    1.401   1_655 S
C323   H355    1.082   .     S
C323   C325    1.415   .     A
C323   N360    1.367   .     A
C324   H356    1.082   .     S
C324   C326    1.415   .     A
C324   N359    1.367   .     A
C325   H357    1.082   .     S
C325   N359    1.366   .     A
C326   H358    1.082   .     S
C326   N360    1.366   .     A
C327   C329    1.479   .     S
C327   O367    1.299   .     A
C327   O241    1.294   1_655 S
C328   C330    1.479   .     S
C328   O368    1.299   .     A
C329   C333    1.416   .     A
C329   C335    1.402   .     A
C330   C334    1.416   .     A
C330   C336    1.402   .     A
C331   H349    1.084   .     S
C331   C333    1.394   .     A
C331   C339    1.401   .     A
C332   H350    1.084   .     S
C332   C334    1.394   .     A
C332   C340    1.401   .     A
C333   Br246   1.924   1_655 S
C335   H348    1.076   .     S
C335   C337    1.401   .     A
C336   H347    1.076   .     S
C336   C338    1.401   .     A
C337   C339    1.411   .     A
C337   C341    1.425   .     A
C338   C340    1.411   .     A
C338   C342    1.425   .     A
C339   C873    1.389   .     S
C340   C874    1.389   1_554 S
C341   C900    1.431   .     S
C342   C899    1.431   1_554 S
Cu343  O365    1.950   .     S
Cu343  O368    1.932   .     S
Cu343  N359    2.009   .     S
Cu343  O364    1.965   .     S
Cu343  O361    1.965   .     S
Cu344  O367    1.932   .     S
Cu344  O366    1.950   .     S
Cu344  O363    1.965   .     S
Cu344  N360    2.009   .     S
Cu344  O362    1.965   .     S
Cu344  Cu219   2.674   1_655 S
O362   C188    1.290   1_655 S
O366   C204    1.294   1_655 S
Br369  C210    1.924   1_655 S
C373   C384    1.450   .     S
C373   O425    1.290   .     A
C373   O485    1.290   .     S
C374   C383    1.450   .     S
C374   O426    1.290   .     A
C374   O548    1.290   1_455 S
C375   Br433   1.932   .     S
C375   C377    1.390   .     A
C375   C404    1.428   .     A
C376   Br434   1.932   .     S
C376   C403    1.428   .     A
C376   C378    1.390   .     A
C377   H407    1.085   .     S
C377   C959    1.389   1_554 S
C378   H408    1.085   .     S
C378   C960    1.389   .     S
C379   C384    1.401   .     A
C379   H413    1.083   .     S
C380   H414    1.083   .     S
C380   C383    1.401   .     A
C380   C10     1.383   1_565 S
C381   H415    1.083   .     S
C381   C7      1.383   1_565 S
C381   C445    1.401   .     S
C382   H416    1.083   .     S
C382   C508    1.401   1_455 S
C383   C505    1.401   1_455 S
C384   C444    1.401   .     S
C385   H417    1.082   .     S
C385   C387    1.415   .     A
C385   N422    1.367   .     A
C386   H418    1.082   .     S
C386   C388    1.415   .     A
C386   N421    1.367   .     A
C387   H419    1.082   .     S
C387   N421    1.366   .     A
C388   H420    1.082   .     S
C388   N422    1.366   .     A
C389   C391    1.479   .     S
C389   O429    1.299   .     A
C389   O489    1.294   .     S
C390   C392    1.479   .     S
C390   O430    1.299   .     A
C390   O552    1.294   1_455 S
C391   C395    1.416   .     A
C391   C397    1.402   .     A
C392   C396    1.416   .     A
C392   C398    1.402   .     A
C393   H411    1.084   .     S
C393   C395    1.394   .     A
C393   C401    1.401   .     A
C394   H412    1.084   .     S
C394   C396    1.394   .     A
C394   C402    1.401   .     A
C395   Br494   1.924   .     S
C396   Br555   1.924   1_455 S
C397   H410    1.076   .     S
C397   C399    1.401   .     A
C398   H409    1.076   .     S
C398   C400    1.401   .     A
C399   C401    1.411   .     A
C399   C403    1.425   .     A
C400   C402    1.411   .     A
C400   C404    1.425   .     A
C401   C935    1.389   .     S
C402   C936    1.389   1_554 S
C403   C962    1.431   .     S
C404   C961    1.431   1_554 S
Cu405  O427    1.950   .     S
Cu405  O430    1.932   .     S
Cu405  N421    2.009   .     S
Cu405  O426    1.965   .     S
Cu405  O423    1.965   .     S
Cu405  Cu530   2.674   1_455 S
Cu406  O429    1.932   .     S
Cu406  O428    1.950   .     S
Cu406  O425    1.965   .     S
Cu406  N422    2.009   .     S
Cu406  O424    1.965   .     S
Cu406  Cu467   2.674   .     S
O423   C497    1.290   1_455 S
O424   C436    1.290   .     S
O427   C513    1.294   1_455 S
O428   C452    1.294   .     S
Br431  C458    1.924   .     S
Br432  C519    1.924   1_455 S
C435   C446    1.450   .     S
C435   O487    1.290   .     A
C435   O547    1.290   .     S
C436   C445    1.450   .     S
C436   O488    1.290   .     A
C437   Br495   1.932   .     S
C437   C439    1.390   .     A
C437   C466    1.428   .     A
C438   Br496   1.932   .     S
C438   C465    1.428   .     A
C438   C440    1.390   .     A
C439   H469    1.085   .     S
C439   C1021   1.389   1_554 S
C440   H470    1.085   .     S
C440   C1022   1.389   .     S
C441   C446    1.401   .     A
C441   H475    1.083   .     S
C442   H476    1.083   .     S
C442   C445    1.401   .     A
C442   C72     1.383   1_565 S
C443   H477    1.083   .     S
C443   C69     1.383   1_565 S
C443   C507    1.401   .     S
C444   H478    1.083   .     S
C446   C506    1.401   .     S
C447   H479    1.082   .     S
C447   C449    1.415   .     A
C447   N484    1.367   .     A
C448   H480    1.082   .     S
C448   C450    1.415   .     A
C448   N483    1.367   .     A
C449   H481    1.082   .     S
C449   N483    1.366   .     A
C450   H482    1.082   .     S
C450   N484    1.366   .     A
C451   C453    1.479   .     S
C451   O491    1.299   .     A
C451   O551    1.294   .     S
C452   C454    1.479   .     S
C452   O492    1.299   .     A
C453   C457    1.416   .     A
C453   C459    1.402   .     A
C454   C458    1.416   .     A
C454   C460    1.402   .     A
C455   H473    1.084   .     S
C455   C457    1.394   .     A
C455   C463    1.401   .     A
C456   H474    1.084   .     S
C456   C458    1.394   .     A
C456   C464    1.401   .     A
C457   Br556   1.924   .     S
C459   H472    1.076   .     S
C459   C461    1.401   .     A
C460   H471    1.076   .     S
C460   C462    1.401   .     A
C461   C463    1.411   .     A
C461   C465    1.425   .     A
C462   C464    1.411   .     A
C462   C466    1.425   .     A
C463   C997    1.389   .     S
C464   C998    1.389   1_554 S
C465   C1024   1.431   .     S
C466   C1023   1.431   1_554 S
Cu467  O489    1.950   .     S
Cu467  O492    1.932   .     S
Cu467  N483    2.009   .     S
Cu467  O488    1.965   .     S
Cu467  O485    1.965   .     S
Cu468  O491    1.932   .     S
Cu468  O490    1.950   .     S
Cu468  O487    1.965   .     S
Cu468  N484    2.009   .     S
Cu468  O486    1.965   .     S
Cu468  Cu529   2.674   .     S
O486   C498    1.290   .     S
O490   C514    1.294   .     S
Br493  C520    1.924   .     S
C497   C508    1.450   .     S
C497   O549    1.290   .     A
C497   O423    1.290   1_655 S
C498   C507    1.450   .     S
C498   O550    1.290   .     A
C499   Br557   1.932   .     S
C499   C501    1.390   .     A
C499   C528    1.428   .     A
C500   Br558   1.932   .     S
C500   C527    1.428   .     A
C500   C502    1.390   .     A
C501   H531    1.085   .     S
C501   C1083   1.389   1_554 S
C502   H532    1.085   .     S
C502   C1084   1.389   .     S
C503   C508    1.401   .     A
C503   H537    1.083   .     S
C504   H538    1.083   .     S
C504   C507    1.401   .     A
C504   C134    1.383   1_565 S
C505   H539    1.083   .     S
C505   C131    1.383   1_565 S
C505   C383    1.401   1_655 S
C506   H540    1.083   .     S
C508   C382    1.401   1_655 S
C509   H541    1.082   .     S
C509   C511    1.415   .     A
C509   N546    1.367   .     A
C510   H542    1.082   .     S
C510   C512    1.415   .     A
C510   N545    1.367   .     A
C511   H543    1.082   .     S
C511   N545    1.366   .     A
C512   H544    1.082   .     S
C512   N546    1.366   .     A
C513   C515    1.479   .     S
C513   O553    1.299   .     A
C513   O427    1.294   1_655 S
C514   C516    1.479   .     S
C514   O554    1.299   .     A
C515   C519    1.416   .     A
C515   C521    1.402   .     A
C516   C520    1.416   .     A
C516   C522    1.402   .     A
C517   H535    1.084   .     S
C517   C519    1.394   .     A
C517   C525    1.401   .     A
C518   H536    1.084   .     S
C518   C520    1.394   .     A
C518   C526    1.401   .     A
C519   Br432   1.924   1_655 S
C521   H534    1.076   .     S
C521   C523    1.401   .     A
C522   H533    1.076   .     S
C522   C524    1.401   .     A
C523   C525    1.411   .     A
C523   C527    1.425   .     A
C524   C526    1.411   .     A
C524   C528    1.425   .     A
C525   C1059   1.389   .     S
C526   C1060   1.389   1_554 S
C527   C1086   1.431   .     S
C528   C1085   1.431   1_554 S
Cu529  O551    1.950   .     S
Cu529  O554    1.932   .     S
Cu529  N545    2.009   .     S
Cu529  O550    1.965   .     S
Cu529  O547    1.965   .     S
Cu530  O553    1.932   .     S
Cu530  O552    1.950   .     S
Cu530  O549    1.965   .     S
Cu530  N546    2.009   .     S
Cu530  O548    1.965   .     S
Cu530  Cu405   2.674   1_655 S
O548   C374    1.290   1_655 S
O552   C390    1.294   1_655 S
Br555  C396    1.924   1_655 S
C559   C570    1.450   .     S
C559   O611    1.290   .     A
C559   O671    1.290   .     S
C560   C569    1.450   .     S
C560   O612    1.290   .     A
C560   O734    1.290   1_455 S
C561   Br619   1.932   .     S
C561   C563    1.390   .     A
C561   C590    1.428   .     A
C562   Br620   1.932   .     S
C562   C589    1.428   .     A
C562   C564    1.390   .     A
C563   H593    1.085   .     S
C564   H594    1.085   .     S
C564   C30     1.389   1_556 S
C565   C570    1.401   .     A
C565   H599    1.083   .     S
C565   C939    1.383   1_545 S
C566   H600    1.083   .     S
C566   C569    1.401   .     A
C566   C754    1.383   .     S
C567   H601    1.083   .     S
C567   C751    1.383   .     S
C567   C631    1.401   .     S
C568   H602    1.083   .     S
C568   C938    1.383   1_545 S
C568   C694    1.401   1_455 S
C569   C691    1.401   1_455 S
C570   C630    1.401   .     S
C571   H603    1.082   .     S
C571   C573    1.415   .     A
C571   N608    1.367   .     A
C572   H604    1.082   .     S
C572   C574    1.415   .     A
C572   N607    1.367   .     A
C573   H605    1.082   .     S
C573   N607    1.366   .     A
C574   H606    1.082   .     S
C574   N608    1.366   .     A
C575   C577    1.479   .     S
C575   O615    1.299   .     A
C575   O675    1.294   .     S
C576   C578    1.479   .     S
C576   O616    1.299   .     A
C576   O738    1.294   1_455 S
C577   C581    1.416   .     A
C577   C583    1.402   .     A
C578   C582    1.416   .     A
C578   C584    1.402   .     A
C579   H597    1.084   .     S
C579   C581    1.394   .     A
C579   C587    1.401   .     A
C580   H598    1.084   .     S
C580   C582    1.394   .     A
C580   C588    1.401   .     A
C581   Br680   1.924   .     S
C582   Br741   1.924   1_455 S
C583   H596    1.076   .     S
C583   C585    1.401   .     A
C584   H595    1.076   .     S
C584   C586    1.401   .     A
C585   C587    1.411   .     A
C585   C589    1.425   .     A
C586   C588    1.411   .     A
C586   C590    1.425   .     A
C587   C5      1.389   1_556 S
C589   C32     1.431   1_556 S
Cu591  O613    1.950   .     S
Cu591  O616    1.932   .     S
Cu591  N607    2.009   .     S
Cu591  O612    1.965   .     S
Cu591  O609    1.965   .     S
Cu591  Cu716   2.674   1_455 S
Cu592  O615    1.932   .     S
Cu592  O614    1.950   .     S
Cu592  O611    1.965   .     S
Cu592  N608    2.009   .     S
Cu592  O610    1.965   .     S
Cu592  Cu653   2.674   .     S
O609   C683    1.290   1_455 S
O610   C622    1.290   .     S
O613   C699    1.294   1_455 S
O614   C638    1.294   .     S
Br617  C644    1.924   .     S
Br618  C705    1.924   1_455 S
C621   C632    1.450   .     S
C621   O673    1.290   .     A
C621   O733    1.290   .     S
C622   C631    1.450   .     S
C622   O674    1.290   .     A
C623   Br681   1.932   .     S
C623   C625    1.390   .     A
C623   C652    1.428   .     A
C624   Br682   1.932   .     S
C624   C651    1.428   .     A
C624   C626    1.390   .     A
C625   H655    1.085   .     S
C626   H656    1.085   .     S
C626   C92     1.389   1_556 S
C627   C632    1.401   .     A
C627   H661    1.083   .     S
C627   C1001   1.383   1_545 S
C628   H662    1.083   .     S
C628   C631    1.401   .     A
C628   C816    1.383   .     S
C629   H663    1.083   .     S
C629   C813    1.383   .     S
C629   C693    1.401   .     S
C630   H664    1.083   .     S
C630   C1000   1.383   1_545 S
C632   C692    1.401   .     S
C633   H665    1.082   .     S
C633   C635    1.415   .     A
C633   N670    1.367   .     A
C634   H666    1.082   .     S
C634   C636    1.415   .     A
C634   N669    1.367   .     A
C635   H667    1.082   .     S
C635   N669    1.366   .     A
C636   H668    1.082   .     S
C636   N670    1.366   .     A
C637   C639    1.479   .     S
C637   O677    1.299   .     A
C637   O737    1.294   .     S
C638   C640    1.479   .     S
C638   O678    1.299   .     A
C639   C643    1.416   .     A
C639   C645    1.402   .     A
C640   C644    1.416   .     A
C640   C646    1.402   .     A
C641   H659    1.084   .     S
C641   C643    1.394   .     A
C641   C649    1.401   .     A
C642   H660    1.084   .     S
C642   C644    1.394   .     A
C642   C650    1.401   .     A
C643   Br742   1.924   .     S
C645   H658    1.076   .     S
C645   C647    1.401   .     A
C646   H657    1.076   .     S
C646   C648    1.401   .     A
C647   C649    1.411   .     A
C647   C651    1.425   .     A
C648   C650    1.411   .     A
C648   C652    1.425   .     A
C649   C67     1.389   1_556 S
C651   C94     1.431   1_556 S
Cu653  O675    1.950   .     S
Cu653  O678    1.932   .     S
Cu653  N669    2.009   .     S
Cu653  O674    1.965   .     S
Cu653  O671    1.965   .     S
Cu654  O677    1.932   .     S
Cu654  O676    1.950   .     S
Cu654  O673    1.965   .     S
Cu654  N670    2.009   .     S
Cu654  O672    1.965   .     S
Cu654  Cu715   2.674   .     S
O672   C684    1.290   .     S
O676   C700    1.294   .     S
Br679  C706    1.924   .     S
C683   C694    1.450   .     S
C683   O735    1.290   .     A
C683   O609    1.290   1_655 S
C684   C693    1.450   .     S
C684   O736    1.290   .     A
C685   Br743   1.932   .     S
C685   C687    1.390   .     A
C685   C714    1.428   .     A
C686   Br744   1.932   .     S
C686   C713    1.428   .     A
C686   C688    1.390   .     A
C687   H717    1.085   .     S
C688   H718    1.085   .     S
C688   C154    1.389   1_556 S
C689   C694    1.401   .     A
C689   H723    1.083   .     S
C689   C1063   1.383   1_545 S
C690   H724    1.083   .     S
C690   C693    1.401   .     A
C690   C878    1.383   .     S
C691   H725    1.083   .     S
C691   C875    1.383   .     S
C691   C569    1.401   1_655 S
C692   H726    1.083   .     S
C692   C1062   1.383   1_545 S
C694   C568    1.401   1_655 S
C695   H727    1.082   .     S
C695   C697    1.415   .     A
C695   N732    1.367   .     A
C696   H728    1.082   .     S
C696   C698    1.415   .     A
C696   N731    1.367   .     A
C697   H729    1.082   .     S
C697   N731    1.366   .     A
C698   H730    1.082   .     S
C698   N732    1.366   .     A
C699   C701    1.479   .     S
C699   O739    1.299   .     A
C699   O613    1.294   1_655 S
C700   C702    1.479   .     S
C700   O740    1.299   .     A
C701   C705    1.416   .     A
C701   C707    1.402   .     A
C702   C706    1.416   .     A
C702   C708    1.402   .     A
C703   H721    1.084   .     S
C703   C705    1.394   .     A
C703   C711    1.401   .     A
C704   H722    1.084   .     S
C704   C706    1.394   .     A
C704   C712    1.401   .     A
C705   Br618   1.924   1_655 S
C707   H720    1.076   .     S
C707   C709    1.401   .     A
C708   H719    1.076   .     S
C708   C710    1.401   .     A
C709   C711    1.411   .     A
C709   C713    1.425   .     A
C710   C712    1.411   .     A
C710   C714    1.425   .     A
C711   C129    1.389   1_556 S
C713   C156    1.431   1_556 S
Cu715  O737    1.950   .     S
Cu715  O740    1.932   .     S
Cu715  N731    2.009   .     S
Cu715  O736    1.965   .     S
Cu715  O733    1.965   .     S
Cu716  O739    1.932   .     S
Cu716  O738    1.950   .     S
Cu716  O735    1.965   .     S
Cu716  N732    2.009   .     S
Cu716  O734    1.965   .     S
Cu716  Cu591   2.674   1_655 S
O734   C560    1.290   1_655 S
O738   C576    1.294   1_655 S
Br741  C582    1.924   1_655 S
C745   C756    1.450   .     S
C745   O797    1.290   .     A
C745   O857    1.290   .     S
C746   C755    1.450   .     S
C746   O798    1.290   .     A
C746   O920    1.290   1_455 S
C747   Br805   1.932   .     S
C747   C749    1.390   .     A
C747   C776    1.428   .     A
C748   Br806   1.932   .     S
C748   C775    1.428   .     A
C748   C750    1.390   .     A
C749   H779    1.085   .     S
C750   H780    1.085   .     S
C750   C216    1.389   1_556 S
C751   C756    1.401   .     A
C751   H785    1.083   .     S
C752   H786    1.083   .     S
C752   C755    1.401   .     A
C752   C940    1.383   .     S
C753   H787    1.083   .     S
C753   C937    1.383   .     S
C753   C817    1.401   .     S
C754   H788    1.083   .     S
C754   C880    1.401   1_455 S
C755   C877    1.401   1_455 S
C756   C816    1.401   .     S
C757   H789    1.082   .     S
C757   C759    1.415   .     A
C757   N794    1.367   .     A
C758   H790    1.082   .     S
C758   C760    1.415   .     A
C758   N793    1.367   .     A
C759   H791    1.082   .     S
C759   N793    1.366   .     A
C760   H792    1.082   .     S
C760   N794    1.366   .     A
C761   C763    1.479   .     S
C761   O801    1.299   .     A
C761   O861    1.294   .     S
C762   C764    1.479   .     S
C762   O802    1.299   .     A
C762   O924    1.294   1_455 S
C763   C767    1.416   .     A
C763   C769    1.402   .     A
C764   C768    1.416   .     A
C764   C770    1.402   .     A
C765   H783    1.084   .     S
C765   C767    1.394   .     A
C765   C773    1.401   .     A
C766   H784    1.084   .     S
C766   C768    1.394   .     A
C766   C774    1.401   .     A
C767   Br866   1.924   .     S
C768   Br927   1.924   1_455 S
C769   H782    1.076   .     S
C769   C771    1.401   .     A
C770   H781    1.076   .     S
C770   C772    1.401   .     A
C771   C773    1.411   .     A
C771   C775    1.425   .     A
C772   C774    1.411   .     A
C772   C776    1.425   .     A
C773   C191    1.389   1_556 S
C775   C218    1.431   1_556 S
Cu777  O799    1.950   .     S
Cu777  O802    1.932   .     S
Cu777  N793    2.009   .     S
Cu777  O798    1.965   .     S
Cu777  O795    1.965   .     S
Cu777  Cu902   2.674   1_455 S
Cu778  O801    1.932   .     S
Cu778  O800    1.950   .     S
Cu778  O797    1.965   .     S
Cu778  N794    2.009   .     S
Cu778  O796    1.965   .     S
Cu778  Cu839   2.674   .     S
O795   C869    1.290   1_455 S
O796   C808    1.290   .     S
O799   C885    1.294   1_455 S
O800   C824    1.294   .     S
Br803  C830    1.924   .     S
Br804  C891    1.924   1_455 S
C807   C818    1.450   .     S
C807   O859    1.290   .     A
C807   O919    1.290   .     S
C808   C817    1.450   .     S
C808   O860    1.290   .     A
C809   Br867   1.932   .     S
C809   C811    1.390   .     A
C809   C838    1.428   .     A
C810   Br868   1.932   .     S
C810   C837    1.428   .     A
C810   C812    1.390   .     A
C811   H841    1.085   .     S
C812   H842    1.085   .     S
C812   C278    1.389   1_556 S
C813   C818    1.401   .     A
C813   H847    1.083   .     S
C814   H848    1.083   .     S
C814   C817    1.401   .     A
C814   C1002   1.383   .     S
C815   H849    1.083   .     S
C815   C999    1.383   .     S
C815   C879    1.401   .     S
C816   H850    1.083   .     S
C818   C878    1.401   .     S
C819   H851    1.082   .     S
C819   C821    1.415   .     A
C819   N856    1.367   .     A
C820   H852    1.082   .     S
C820   C822    1.415   .     A
C820   N855    1.367   .     A
C821   H853    1.082   .     S
C821   N855    1.366   .     A
C822   H854    1.082   .     S
C822   N856    1.366   .     A
C823   C825    1.479   .     S
C823   O863    1.299   .     A
C823   O923    1.294   .     S
C824   C826    1.479   .     S
C824   O864    1.299   .     A
C825   C829    1.416   .     A
C825   C831    1.402   .     A
C826   C830    1.416   .     A
C826   C832    1.402   .     A
C827   H845    1.084   .     S
C827   C829    1.394   .     A
C827   C835    1.401   .     A
C828   H846    1.084   .     S
C828   C830    1.394   .     A
C828   C836    1.401   .     A
C829   Br928   1.924   .     S
C831   H844    1.076   .     S
C831   C833    1.401   .     A
C832   H843    1.076   .     S
C832   C834    1.401   .     A
C833   C835    1.411   .     A
C833   C837    1.425   .     A
C834   C836    1.411   .     A
C834   C838    1.425   .     A
C835   C253    1.389   1_556 S
C837   C280    1.431   1_556 S
Cu839  O861    1.950   .     S
Cu839  O864    1.932   .     S
Cu839  N855    2.009   .     S
Cu839  O860    1.965   .     S
Cu839  O857    1.965   .     S
Cu840  O863    1.932   .     S
Cu840  O862    1.950   .     S
Cu840  O859    1.965   .     S
Cu840  N856    2.009   .     S
Cu840  O858    1.965   .     S
Cu840  Cu901   2.674   .     S
O858   C870    1.290   .     S
O862   C886    1.294   .     S
Br865  C892    1.924   .     S
C869   C880    1.450   .     S
C869   O921    1.290   .     A
C869   O795    1.290   1_655 S
C870   C879    1.450   .     S
C870   O922    1.290   .     A
C871   Br929   1.932   .     S
C871   C873    1.390   .     A
C871   C900    1.428   .     A
C872   Br930   1.932   .     S
C872   C899    1.428   .     A
C872   C874    1.390   .     A
C873   H903    1.085   .     S
C874   H904    1.085   .     S
C874   C340    1.389   1_556 S
C875   C880    1.401   .     A
C875   H909    1.083   .     S
C876   H910    1.083   .     S
C876   C879    1.401   .     A
C876   C1064   1.383   .     S
C877   H911    1.083   .     S
C877   C1061   1.383   .     S
C877   C755    1.401   1_655 S
C878   H912    1.083   .     S
C880   C754    1.401   1_655 S
C881   H913    1.082   .     S
C881   C883    1.415   .     A
C881   N918    1.367   .     A
C882   H914    1.082   .     S
C882   C884    1.415   .     A
C882   N917    1.367   .     A
C883   H915    1.082   .     S
C883   N917    1.366   .     A
C884   H916    1.082   .     S
C884   N918    1.366   .     A
C885   C887    1.479   .     S
C885   O925    1.299   .     A
C885   O799    1.294   1_655 S
C886   C888    1.479   .     S
C886   O926    1.299   .     A
C887   C891    1.416   .     A
C887   C893    1.402   .     A
C888   C892    1.416   .     A
C888   C894    1.402   .     A
C889   H907    1.084   .     S
C889   C891    1.394   .     A
C889   C897    1.401   .     A
C890   H908    1.084   .     S
C890   C892    1.394   .     A
C890   C898    1.401   .     A
C891   Br804   1.924   1_655 S
C893   H906    1.076   .     S
C893   C895    1.401   .     A
C894   H905    1.076   .     S
C894   C896    1.401   .     A
C895   C897    1.411   .     A
C895   C899    1.425   .     A
C896   C898    1.411   .     A
C896   C900    1.425   .     A
C897   C315    1.389   1_556 S
C899   C342    1.431   1_556 S
Cu901  O923    1.950   .     S
Cu901  O926    1.932   .     S
Cu901  N917    2.009   .     S
Cu901  O922    1.965   .     S
Cu901  O919    1.965   .     S
Cu902  O925    1.932   .     S
Cu902  O924    1.950   .     S
Cu902  O921    1.965   .     S
Cu902  N918    2.009   .     S
Cu902  O920    1.965   .     S
Cu902  Cu777   2.674   1_655 S
O920   C746    1.290   1_655 S
O924   C762    1.294   1_655 S
Br927  C768    1.924   1_655 S
C931   C942    1.450   .     S
C931   O983    1.290   .     A
C931   O1043   1.290   .     S
C932   C941    1.450   .     S
C932   O984    1.290   .     A
C932   O1106   1.290   1_455 S
C933   Br991   1.932   .     S
C933   C935    1.390   .     A
C933   C962    1.428   .     A
C934   Br992   1.932   .     S
C934   C961    1.428   .     A
C934   C936    1.390   .     A
C935   H965    1.085   .     S
C936   H966    1.085   .     S
C936   C402    1.389   1_556 S
C937   C942    1.401   .     A
C937   H971    1.083   .     S
C938   H972    1.083   .     S
C938   C941    1.401   .     A
C938   C568    1.383   1_565 S
C939   H973    1.083   .     S
C939   C565    1.383   1_565 S
C939   C1003   1.401   .     S
C940   H974    1.083   .     S
C940   C1066   1.401   1_455 S
C941   C1063   1.401   1_455 S
C942   C1002   1.401   .     S
C943   H975    1.082   .     S
C943   C945    1.415   .     A
C943   N980    1.367   .     A
C944   H976    1.082   .     S
C944   C946    1.415   .     A
C944   N979    1.367   .     A
C945   H977    1.082   .     S
C945   N979    1.366   .     A
C946   H978    1.082   .     S
C946   N980    1.366   .     A
C947   C949    1.479   .     S
C947   O987    1.299   .     A
C947   O1047   1.294   .     S
C948   C950    1.479   .     S
C948   O988    1.299   .     A
C948   O1110   1.294   1_455 S
C949   C953    1.416   .     A
C949   C955    1.402   .     A
C950   C954    1.416   .     A
C950   C956    1.402   .     A
C951   H969    1.084   .     S
C951   C953    1.394   .     A
C951   C959    1.401   .     A
C952   H970    1.084   .     S
C952   C954    1.394   .     A
C952   C960    1.401   .     A
C953   Br1052  1.924   .     S
C954   Br1113  1.924   1_455 S
C955   H968    1.076   .     S
C955   C957    1.401   .     A
C956   H967    1.076   .     S
C956   C958    1.401   .     A
C957   C959    1.411   .     A
C957   C961    1.425   .     A
C958   C960    1.411   .     A
C958   C962    1.425   .     A
C959   C377    1.389   1_556 S
C961   C404    1.431   1_556 S
Cu963  O985    1.950   .     S
Cu963  O988    1.932   .     S
Cu963  N979    2.009   .     S
Cu963  O984    1.965   .     S
Cu963  O981    1.965   .     S
Cu963  Cu1088  2.674   1_455 S
Cu964  O987    1.932   .     S
Cu964  O986    1.950   .     S
Cu964  O983    1.965   .     S
Cu964  N980    2.009   .     S
Cu964  O982    1.965   .     S
Cu964  Cu1025  2.674   .     S
O981   C1055   1.290   1_455 S
O982   C994    1.290   .     S
O985   C1071   1.294   1_455 S
O986   C1010   1.294   .     S
Br989  C1016   1.924   .     S
Br990  C1077   1.924   1_455 S
C993   C1004   1.450   .     S
C993   O1045   1.290   .     A
C993   O1105   1.290   .     S
C994   C1003   1.450   .     S
C994   O1046   1.290   .     A
C995   Br1053  1.932   .     S
C995   C997    1.390   .     A
C995   C1024   1.428   .     A
C996   Br1054  1.932   .     S
C996   C1023   1.428   .     A
C996   C998    1.390   .     A
C997   H1027   1.085   .     S
C998   H1028   1.085   .     S
C998   C464    1.389   1_556 S
C999   C1004   1.401   .     A
C999   H1033   1.083   .     S
C1000  H1034   1.083   .     S
C1000  C1003   1.401   .     A
C1000  C630    1.383   1_565 S
C1001  H1035   1.083   .     S
C1001  C627    1.383   1_565 S
C1001  C1065   1.401   .     S
C1002  H1036   1.083   .     S
C1004  C1064   1.401   .     S
C1005  H1037   1.082   .     S
C1005  C1007   1.415   .     A
C1005  N1042   1.367   .     A
C1006  H1038   1.082   .     S
C1006  C1008   1.415   .     A
C1006  N1041   1.367   .     A
C1007  H1039   1.082   .     S
C1007  N1041   1.366   .     A
C1008  H1040   1.082   .     S
C1008  N1042   1.366   .     A
C1009  C1011   1.479   .     S
C1009  O1049   1.299   .     A
C1009  O1109   1.294   .     S
C1010  C1012   1.479   .     S
C1010  O1050   1.299   .     A
C1011  C1015   1.416   .     A
C1011  C1017   1.402   .     A
C1012  C1016   1.416   .     A
C1012  C1018   1.402   .     A
C1013  H1031   1.084   .     S
C1013  C1015   1.394   .     A
C1013  C1021   1.401   .     A
C1014  H1032   1.084   .     S
C1014  C1016   1.394   .     A
C1014  C1022   1.401   .     A
C1015  Br1114  1.924   .     S
C1017  H1030   1.076   .     S
C1017  C1019   1.401   .     A
C1018  H1029   1.076   .     S
C1018  C1020   1.401   .     A
C1019  C1021   1.411   .     A
C1019  C1023   1.425   .     A
C1020  C1022   1.411   .     A
C1020  C1024   1.425   .     A
C1021  C439    1.389   1_556 S
C1023  C466    1.431   1_556 S
Cu1025 O1047   1.950   .     S
Cu1025 O1050   1.932   .     S
Cu1025 N1041   2.009   .     S
Cu1025 O1046   1.965   .     S
Cu1025 O1043   1.965   .     S
Cu1026 O1049   1.932   .     S
Cu1026 O1048   1.950   .     S
Cu1026 O1045   1.965   .     S
Cu1026 N1042   2.009   .     S
Cu1026 O1044   1.965   .     S
Cu1026 Cu1087  2.674   .     S
O1044  C1056   1.290   .     S
O1048  C1072   1.294   .     S
Br1051 C1078   1.924   .     S
C1055  C1066   1.450   .     S
C1055  O1107   1.290   .     A
C1055  O981    1.290   1_655 S
C1056  C1065   1.450   .     S
C1056  O1108   1.290   .     A
C1057  Br1115  1.932   .     S
C1057  C1059   1.390   .     A
C1057  C1086   1.428   .     A
C1058  Br1116  1.932   .     S
C1058  C1085   1.428   .     A
C1058  C1060   1.390   .     A
C1059  H1089   1.085   .     S
C1060  H1090   1.085   .     S
C1060  C526    1.389   1_556 S
C1061  C1066   1.401   .     A
C1061  H1095   1.083   .     S
C1062  H1096   1.083   .     S
C1062  C1065   1.401   .     A
C1062  C692    1.383   1_565 S
C1063  H1097   1.083   .     S
C1063  C689    1.383   1_565 S
C1063  C941    1.401   1_655 S
C1064  H1098   1.083   .     S
C1066  C940    1.401   1_655 S
C1067  H1099   1.082   .     S
C1067  C1069   1.415   .     A
C1067  N1104   1.367   .     A
C1068  H1100   1.082   .     S
C1068  C1070   1.415   .     A
C1068  N1103   1.367   .     A
C1069  H1101   1.082   .     S
C1069  N1103   1.366   .     A
C1070  H1102   1.082   .     S
C1070  N1104   1.366   .     A
C1071  C1073   1.479   .     S
C1071  O1111   1.299   .     A
C1071  O985    1.294   1_655 S
C1072  C1074   1.479   .     S
C1072  O1112   1.299   .     A
C1073  C1077   1.416   .     A
C1073  C1079   1.402   .     A
C1074  C1078   1.416   .     A
C1074  C1080   1.402   .     A
C1075  H1093   1.084   .     S
C1075  C1077   1.394   .     A
C1075  C1083   1.401   .     A
C1076  H1094   1.084   .     S
C1076  C1078   1.394   .     A
C1076  C1084   1.401   .     A
C1077  Br990   1.924   1_655 S
C1079  H1092   1.076   .     S
C1079  C1081   1.401   .     A
C1080  H1091   1.076   .     S
C1080  C1082   1.401   .     A
C1081  C1083   1.411   .     A
C1081  C1085   1.425   .     A
C1082  C1084   1.411   .     A
C1082  C1086   1.425   .     A
C1083  C501    1.389   1_556 S
C1085  C528    1.431   1_556 S
Cu1087 O1109   1.950   .     S
Cu1087 O1112   1.932   .     S
Cu1087 N1103   2.009   .     S
Cu1087 O1108   1.965   .     S
Cu1087 O1105   1.965   .     S
Cu1088 O1111   1.932   .     S
Cu1088 O1110   1.950   .     S
Cu1088 O1107   1.965   .     S
Cu1088 N1104   2.009   .     S
Cu1088 O1106   1.965   .     S
Cu1088 Cu963   2.674   1_655 S
O1106  C932    1.290   1_655 S
O1110  C948    1.294   1_655 S
Br1113 C954    1.924   1_655 S
