data_str_m2_o10_o16_pcu_sym.16
_audit_creation_date              2020-01-03
_audit_creation_method            'Materials Studio'
_symmetry_space_group_name_H-M    'P1'
_symmetry_Int_Tables_number       1
_symmetry_cell_setting            triclinic
loop_
_symmetry_equiv_pos_as_xyz
  x,y,z
_cell_length_a                    22.2887
_cell_length_b                    26.0831
_cell_length_c                    26.8165
_cell_angle_alpha                 94.0344
_cell_angle_beta                  77.3313
_cell_angle_gamma                 103.1311
loop_
_atom_site_label
_atom_site_type_symbol
_atom_site_fract_x
_atom_site_fract_y
_atom_site_fract_z
_atom_site_U_iso_or_equiv
_atom_site_adp_type
_atom_site_occupancy
C1     C     0.18176   0.26673   0.25155   0.00000  Uiso   1.00
C2     C     0.11198   0.16435   0.40358   0.00000  Uiso   1.00
C3     C     0.19026   0.32268   0.25234   0.00000  Uiso   1.00
C4     C     0.13303   0.16569   0.34732   0.00000  Uiso   1.00
C5     C     0.14302   0.01065   0.24783   0.00000  Uiso   1.00
C6     C     0.15155   0.06660   0.24853   0.00000  Uiso   1.00
C7     C     0.20059   0.17035   0.15294   0.00000  Uiso   1.00
C8     C     0.29307   0.22575   0.02648   0.00000  Uiso   1.00
C9     C     0.22094   0.17882   0.09784   0.00000  Uiso   1.00
C10    C     0.05020   0.13777   0.42502   0.00000  Uiso   1.00
C11    C     0.03265   0.12782   0.47694   0.00000  Uiso   1.00
C12    C     0.13918   0.16846   0.48795   0.00000  Uiso   1.00
C13    C     0.07646   0.14183   0.00796   0.00000  Uiso   1.00
C14    C     0.15507   0.18394   0.43617   0.00000  Uiso   1.00
C15    C     0.18641   0.18095   0.01781   0.00000  Uiso   1.00
C16    C     0.24635   0.21276   0.49725   0.00000  Uiso   1.00
C17    C     0.25844   0.23252   0.44831   0.00000  Uiso   1.00
C18    C     0.21326   0.21911   0.41856   0.00000  Uiso   1.00
C19    C     0.17595   0.16277   0.06763   0.00000  Uiso   1.00
C20    C     0.28028   0.20914   0.07674   0.00000  Uiso   1.00
Cu21   Cu    0.10710   0.16105   0.24435   0.00000  Uiso   1.00
Cu22   Cu    0.22623   0.17228   0.25564   0.00000  Uiso   1.00
F23    F     0.00697   0.11975   0.39567   0.00000  Uiso   1.00
H24    H     0.31560   0.22192   0.09966   0.00000  Uiso   1.00
H25    H     0.22420   0.23794   0.38208   0.00000  Uiso   1.00
H26    H     0.23579   0.01314   0.25661   0.00000  Uiso   1.00
H27    H     0.09748   0.32019   0.24356   0.00000  Uiso   1.00
H28    H     0.00361   0.20586   0.28968   0.00000  Uiso   1.00
H29    H     0.32969   0.12745   0.21035   0.00000  Uiso   1.00
H30    H     0.30305   0.25867   0.43293   0.00000  Uiso   1.00
H31    H     0.00557   0.24999   0.01090   0.00000  Uiso   1.00
H32    H     0.13242   0.13676   0.08456   0.00000  Uiso   1.00
H33    H     0.05908   0.13241   0.04772   0.00000  Uiso   1.00
H34    H     0.31821   0.10773   0.49317   0.00000  Uiso   1.00
N35    N     0.31574   0.18074   0.26416   0.00000  Uiso   1.00
N36    N     0.01759   0.15259   0.23584   0.00000  Uiso   1.00
O37    O     0.12797   0.23807   0.24633   0.00000  Uiso   1.00
O38    O     0.22858   0.24755   0.25586   0.00000  Uiso   1.00
O39    O     0.09181   0.15960   0.31839   0.00000  Uiso   1.00
O40    O     0.19242   0.16908   0.32793   0.00000  Uiso   1.00
O41    O     0.10476   0.08578   0.24413   0.00000  Uiso   1.00
O42    O     0.20536   0.09526   0.25367   0.00000  Uiso   1.00
O43    O     0.14092   0.16425   0.17207   0.00000  Uiso   1.00
O44    O     0.24152   0.17373   0.18160   0.00000  Uiso   1.00
C45    C     0.51509   0.26673   0.25155   0.00000  Uiso   1.00
C46    C     0.44531   0.16435   0.40358   0.00000  Uiso   1.00
C47    C     0.52359   0.32268   0.25234   0.00000  Uiso   1.00
C48    C     0.46636   0.16569   0.34732   0.00000  Uiso   1.00
C49    C     0.47635   0.01065   0.24783   0.00000  Uiso   1.00
C50    C     0.48488   0.06660   0.24853   0.00000  Uiso   1.00
C51    C     0.53392   0.17035   0.15294   0.00000  Uiso   1.00
C52    C     0.62640   0.22575   0.02648   0.00000  Uiso   1.00
C53    C     0.55427   0.17882   0.09784   0.00000  Uiso   1.00
C54    C     0.38354   0.13777   0.42502   0.00000  Uiso   1.00
C55    C     0.36598   0.12782   0.47694   0.00000  Uiso   1.00
C56    C     0.47251   0.16846   0.48795   0.00000  Uiso   1.00
C57    C     0.40980   0.14183   0.00796   0.00000  Uiso   1.00
C58    C     0.48840   0.18394   0.43617   0.00000  Uiso   1.00
C59    C     0.51974   0.18095   0.01781   0.00000  Uiso   1.00
C60    C     0.57968   0.21276   0.49725   0.00000  Uiso   1.00
C61    C     0.59177   0.23252   0.44831   0.00000  Uiso   1.00
C62    C     0.54659   0.21911   0.41856   0.00000  Uiso   1.00
C63    C     0.50928   0.16277   0.06763   0.00000  Uiso   1.00
C64    C     0.61362   0.20914   0.07674   0.00000  Uiso   1.00
Cu65   Cu    0.44043   0.16105   0.24435   0.00000  Uiso   1.00
Cu66   Cu    0.55957   0.17228   0.25564   0.00000  Uiso   1.00
F67    F     0.34031   0.11975   0.39567   0.00000  Uiso   1.00
H68    H     0.64893   0.22192   0.09966   0.00000  Uiso   1.00
H69    H     0.55753   0.23794   0.38208   0.00000  Uiso   1.00
H70    H     0.56913   0.01314   0.25661   0.00000  Uiso   1.00
H71    H     0.43081   0.32019   0.24356   0.00000  Uiso   1.00
H72    H     0.33695   0.20586   0.28968   0.00000  Uiso   1.00
H73    H     0.66303   0.12745   0.21035   0.00000  Uiso   1.00
H74    H     0.63638   0.25867   0.43293   0.00000  Uiso   1.00
H75    H     0.33891   0.24999   0.01090   0.00000  Uiso   1.00
H76    H     0.46575   0.13676   0.08456   0.00000  Uiso   1.00
H77    H     0.39241   0.13241   0.04772   0.00000  Uiso   1.00
H78    H     0.65154   0.10773   0.49317   0.00000  Uiso   1.00
N79    N     0.64908   0.18074   0.26416   0.00000  Uiso   1.00
N80    N     0.35092   0.15259   0.23584   0.00000  Uiso   1.00
O81    O     0.46131   0.23807   0.24633   0.00000  Uiso   1.00
O82    O     0.56191   0.24755   0.25586   0.00000  Uiso   1.00
O83    O     0.42515   0.15960   0.31839   0.00000  Uiso   1.00
O84    O     0.52575   0.16908   0.32793   0.00000  Uiso   1.00
O85    O     0.43809   0.08578   0.24413   0.00000  Uiso   1.00
O86    O     0.53869   0.09526   0.25367   0.00000  Uiso   1.00
O87    O     0.47425   0.16425   0.17207   0.00000  Uiso   1.00
O88    O     0.57485   0.17373   0.18160   0.00000  Uiso   1.00
C89    C     0.84842   0.26673   0.25155   0.00000  Uiso   1.00
C90    C     0.77864   0.16435   0.40358   0.00000  Uiso   1.00
C91    C     0.85692   0.32268   0.25234   0.00000  Uiso   1.00
C92    C     0.79969   0.16569   0.34732   0.00000  Uiso   1.00
C93    C     0.80968   0.01065   0.24783   0.00000  Uiso   1.00
C94    C     0.81821   0.06660   0.24853   0.00000  Uiso   1.00
C95    C     0.86725   0.17035   0.15294   0.00000  Uiso   1.00
C96    C     0.95973   0.22575   0.02648   0.00000  Uiso   1.00
C97    C     0.88760   0.17882   0.09784   0.00000  Uiso   1.00
C98    C     0.71687   0.13777   0.42502   0.00000  Uiso   1.00
C99    C     0.69931   0.12782   0.47694   0.00000  Uiso   1.00
C100   C     0.80585   0.16846   0.48795   0.00000  Uiso   1.00
C101   C     0.74313   0.14183   0.00796   0.00000  Uiso   1.00
C102   C     0.82174   0.18394   0.43617   0.00000  Uiso   1.00
C103   C     0.85307   0.18095   0.01781   0.00000  Uiso   1.00
C104   C     0.91301   0.21276   0.49725   0.00000  Uiso   1.00
C105   C     0.92510   0.23252   0.44831   0.00000  Uiso   1.00
C106   C     0.87993   0.21911   0.41856   0.00000  Uiso   1.00
C107   C     0.84261   0.16277   0.06763   0.00000  Uiso   1.00
C108   C     0.94695   0.20914   0.07674   0.00000  Uiso   1.00
Cu109  Cu    0.77377   0.16105   0.24435   0.00000  Uiso   1.00
Cu110  Cu    0.89290   0.17228   0.25564   0.00000  Uiso   1.00
F111   F     0.67364   0.11975   0.39567   0.00000  Uiso   1.00
H112   H     0.98227   0.22192   0.09966   0.00000  Uiso   1.00
H113   H     0.89086   0.23794   0.38208   0.00000  Uiso   1.00
H114   H     0.90246   0.01314   0.25661   0.00000  Uiso   1.00
H115   H     0.76414   0.32019   0.24356   0.00000  Uiso   1.00
H116   H     0.67028   0.20586   0.28968   0.00000  Uiso   1.00
H117   H     0.99636   0.12745   0.21035   0.00000  Uiso   1.00
H118   H     0.96971   0.25867   0.43293   0.00000  Uiso   1.00
H119   H     0.67224   0.24999   0.01090   0.00000  Uiso   1.00
H120   H     0.79908   0.13676   0.08456   0.00000  Uiso   1.00
H121   H     0.72574   0.13241   0.04772   0.00000  Uiso   1.00
H122   H     0.98488   0.10773   0.49317   0.00000  Uiso   1.00
N123   N     0.98241   0.18074   0.26416   0.00000  Uiso   1.00
N124   N     0.68426   0.15259   0.23584   0.00000  Uiso   1.00
O125   O     0.79464   0.23807   0.24633   0.00000  Uiso   1.00
O126   O     0.89524   0.24755   0.25586   0.00000  Uiso   1.00
O127   O     0.75848   0.15960   0.31839   0.00000  Uiso   1.00
O128   O     0.85908   0.16908   0.32793   0.00000  Uiso   1.00
O129   O     0.77142   0.08578   0.24413   0.00000  Uiso   1.00
O130   O     0.87203   0.09526   0.25367   0.00000  Uiso   1.00
O131   O     0.80758   0.16425   0.17207   0.00000  Uiso   1.00
O132   O     0.90819   0.17373   0.18160   0.00000  Uiso   1.00
C133   C     0.18176   0.60007   0.25155   0.00000  Uiso   1.00
C134   C     0.11198   0.49768   0.40358   0.00000  Uiso   1.00
C135   C     0.19026   0.65602   0.25234   0.00000  Uiso   1.00
C136   C     0.13303   0.49902   0.34732   0.00000  Uiso   1.00
C137   C     0.14302   0.34398   0.24783   0.00000  Uiso   1.00
C138   C     0.15155   0.39993   0.24853   0.00000  Uiso   1.00
C139   C     0.20059   0.50368   0.15294   0.00000  Uiso   1.00
C140   C     0.29307   0.55908   0.02648   0.00000  Uiso   1.00
C141   C     0.22094   0.51215   0.09784   0.00000  Uiso   1.00
C142   C     0.05020   0.47110   0.42502   0.00000  Uiso   1.00
C143   C     0.03265   0.46116   0.47694   0.00000  Uiso   1.00
C144   C     0.13918   0.50179   0.48795   0.00000  Uiso   1.00
C145   C     0.07646   0.47516   0.00796   0.00000  Uiso   1.00
C146   C     0.15507   0.51728   0.43617   0.00000  Uiso   1.00
C147   C     0.18641   0.51428   0.01781   0.00000  Uiso   1.00
C148   C     0.24635   0.54610   0.49725   0.00000  Uiso   1.00
C149   C     0.25844   0.56585   0.44831   0.00000  Uiso   1.00
C150   C     0.21326   0.55244   0.41856   0.00000  Uiso   1.00
C151   C     0.17595   0.49610   0.06763   0.00000  Uiso   1.00
C152   C     0.28028   0.54247   0.07674   0.00000  Uiso   1.00
Cu153  Cu    0.10710   0.49439   0.24435   0.00000  Uiso   1.00
Cu154  Cu    0.22623   0.50561   0.25564   0.00000  Uiso   1.00
F155   F     0.00697   0.45308   0.39567   0.00000  Uiso   1.00
H156   H     0.31560   0.55526   0.09966   0.00000  Uiso   1.00
H157   H     0.22420   0.57128   0.38208   0.00000  Uiso   1.00
H158   H     0.23579   0.34647   0.25661   0.00000  Uiso   1.00
H159   H     0.09748   0.65352   0.24356   0.00000  Uiso   1.00
H160   H     0.00361   0.53919   0.28968   0.00000  Uiso   1.00
H161   H     0.32969   0.46078   0.21035   0.00000  Uiso   1.00
H162   H     0.30305   0.59200   0.43293   0.00000  Uiso   1.00
H163   H     0.00557   0.58333   0.01090   0.00000  Uiso   1.00
H164   H     0.13242   0.47009   0.08456   0.00000  Uiso   1.00
H165   H     0.05908   0.46575   0.04772   0.00000  Uiso   1.00
H166   H     0.31821   0.44106   0.49317   0.00000  Uiso   1.00
N167   N     0.31574   0.51407   0.26416   0.00000  Uiso   1.00
N168   N     0.01759   0.48593   0.23584   0.00000  Uiso   1.00
O169   O     0.12797   0.57141   0.24633   0.00000  Uiso   1.00
O170   O     0.22858   0.58089   0.25586   0.00000  Uiso   1.00
O171   O     0.09181   0.49293   0.31839   0.00000  Uiso   1.00
O172   O     0.19242   0.50241   0.32793   0.00000  Uiso   1.00
O173   O     0.10476   0.41911   0.24413   0.00000  Uiso   1.00
O174   O     0.20536   0.42859   0.25367   0.00000  Uiso   1.00
O175   O     0.14092   0.49759   0.17207   0.00000  Uiso   1.00
O176   O     0.24152   0.50707   0.18160   0.00000  Uiso   1.00
C177   C     0.51509   0.60007   0.25155   0.00000  Uiso   1.00
C178   C     0.44531   0.49768   0.40358   0.00000  Uiso   1.00
C179   C     0.52359   0.65602   0.25234   0.00000  Uiso   1.00
C180   C     0.46636   0.49902   0.34732   0.00000  Uiso   1.00
C181   C     0.47635   0.34398   0.24783   0.00000  Uiso   1.00
C182   C     0.48488   0.39993   0.24853   0.00000  Uiso   1.00
C183   C     0.53392   0.50368   0.15294   0.00000  Uiso   1.00
C184   C     0.62640   0.55908   0.02648   0.00000  Uiso   1.00
C185   C     0.55427   0.51215   0.09784   0.00000  Uiso   1.00
C186   C     0.38354   0.47110   0.42502   0.00000  Uiso   1.00
C187   C     0.36598   0.46116   0.47694   0.00000  Uiso   1.00
C188   C     0.47251   0.50179   0.48795   0.00000  Uiso   1.00
C189   C     0.40980   0.47516   0.00796   0.00000  Uiso   1.00
C190   C     0.48840   0.51728   0.43617   0.00000  Uiso   1.00
C191   C     0.51974   0.51428   0.01781   0.00000  Uiso   1.00
C192   C     0.57968   0.54610   0.49725   0.00000  Uiso   1.00
C193   C     0.59177   0.56585   0.44831   0.00000  Uiso   1.00
C194   C     0.54659   0.55244   0.41856   0.00000  Uiso   1.00
C195   C     0.50928   0.49610   0.06763   0.00000  Uiso   1.00
C196   C     0.61362   0.54247   0.07674   0.00000  Uiso   1.00
Cu197  Cu    0.44043   0.49439   0.24435   0.00000  Uiso   1.00
Cu198  Cu    0.55957   0.50561   0.25564   0.00000  Uiso   1.00
F199   F     0.34031   0.45308   0.39567   0.00000  Uiso   1.00
H200   H     0.64893   0.55526   0.09966   0.00000  Uiso   1.00
H201   H     0.55753   0.57128   0.38208   0.00000  Uiso   1.00
H202   H     0.56913   0.34647   0.25661   0.00000  Uiso   1.00
H203   H     0.43081   0.65352   0.24356   0.00000  Uiso   1.00
H204   H     0.33695   0.53919   0.28968   0.00000  Uiso   1.00
H205   H     0.66303   0.46078   0.21035   0.00000  Uiso   1.00
H206   H     0.63638   0.59200   0.43293   0.00000  Uiso   1.00
H207   H     0.33891   0.58333   0.01090   0.00000  Uiso   1.00
H208   H     0.46575   0.47009   0.08456   0.00000  Uiso   1.00
H209   H     0.39241   0.46575   0.04772   0.00000  Uiso   1.00
H210   H     0.65154   0.44106   0.49317   0.00000  Uiso   1.00
N211   N     0.64908   0.51407   0.26416   0.00000  Uiso   1.00
N212   N     0.35092   0.48593   0.23584   0.00000  Uiso   1.00
O213   O     0.46131   0.57141   0.24633   0.00000  Uiso   1.00
O214   O     0.56191   0.58089   0.25586   0.00000  Uiso   1.00
O215   O     0.42515   0.49293   0.31839   0.00000  Uiso   1.00
O216   O     0.52575   0.50241   0.32793   0.00000  Uiso   1.00
O217   O     0.43809   0.41911   0.24413   0.00000  Uiso   1.00
O218   O     0.53869   0.42859   0.25367   0.00000  Uiso   1.00
O219   O     0.47425   0.49759   0.17207   0.00000  Uiso   1.00
O220   O     0.57485   0.50707   0.18160   0.00000  Uiso   1.00
C221   C     0.84842   0.60007   0.25155   0.00000  Uiso   1.00
C222   C     0.77864   0.49768   0.40358   0.00000  Uiso   1.00
C223   C     0.85692   0.65602   0.25234   0.00000  Uiso   1.00
C224   C     0.79969   0.49902   0.34732   0.00000  Uiso   1.00
C225   C     0.80968   0.34398   0.24783   0.00000  Uiso   1.00
C226   C     0.81821   0.39993   0.24853   0.00000  Uiso   1.00
C227   C     0.86725   0.50368   0.15294   0.00000  Uiso   1.00
C228   C     0.95973   0.55908   0.02648   0.00000  Uiso   1.00
C229   C     0.88760   0.51215   0.09784   0.00000  Uiso   1.00
C230   C     0.71687   0.47110   0.42502   0.00000  Uiso   1.00
C231   C     0.69931   0.46116   0.47694   0.00000  Uiso   1.00
C232   C     0.80585   0.50179   0.48795   0.00000  Uiso   1.00
C233   C     0.74313   0.47516   0.00796   0.00000  Uiso   1.00
C234   C     0.82174   0.51728   0.43617   0.00000  Uiso   1.00
C235   C     0.85307   0.51428   0.01781   0.00000  Uiso   1.00
C236   C     0.91301   0.54610   0.49725   0.00000  Uiso   1.00
C237   C     0.92510   0.56585   0.44831   0.00000  Uiso   1.00
C238   C     0.87993   0.55244   0.41856   0.00000  Uiso   1.00
C239   C     0.84261   0.49610   0.06763   0.00000  Uiso   1.00
C240   C     0.94695   0.54247   0.07674   0.00000  Uiso   1.00
Cu241  Cu    0.77377   0.49439   0.24435   0.00000  Uiso   1.00
Cu242  Cu    0.89290   0.50561   0.25564   0.00000  Uiso   1.00
F243   F     0.67364   0.45308   0.39567   0.00000  Uiso   1.00
H244   H     0.98227   0.55526   0.09966   0.00000  Uiso   1.00
H245   H     0.89086   0.57128   0.38208   0.00000  Uiso   1.00
H246   H     0.90246   0.34647   0.25661   0.00000  Uiso   1.00
H247   H     0.76414   0.65352   0.24356   0.00000  Uiso   1.00
H248   H     0.67028   0.53919   0.28968   0.00000  Uiso   1.00
H249   H     0.99636   0.46078   0.21035   0.00000  Uiso   1.00
H250   H     0.96971   0.59200   0.43293   0.00000  Uiso   1.00
H251   H     0.67224   0.58333   0.01090   0.00000  Uiso   1.00
H252   H     0.79908   0.47009   0.08456   0.00000  Uiso   1.00
H253   H     0.72574   0.46575   0.04772   0.00000  Uiso   1.00
H254   H     0.98488   0.44106   0.49317   0.00000  Uiso   1.00
N255   N     0.98241   0.51407   0.26416   0.00000  Uiso   1.00
N256   N     0.68426   0.48593   0.23584   0.00000  Uiso   1.00
O257   O     0.79464   0.57141   0.24633   0.00000  Uiso   1.00
O258   O     0.89524   0.58089   0.25586   0.00000  Uiso   1.00
O259   O     0.75848   0.49293   0.31839   0.00000  Uiso   1.00
O260   O     0.85908   0.50241   0.32793   0.00000  Uiso   1.00
O261   O     0.77142   0.41911   0.24413   0.00000  Uiso   1.00
O262   O     0.87203   0.42859   0.25367   0.00000  Uiso   1.00
O263   O     0.80758   0.49759   0.17207   0.00000  Uiso   1.00
O264   O     0.90819   0.50707   0.18160   0.00000  Uiso   1.00
C265   C     0.18176   0.93340   0.25155   0.00000  Uiso   1.00
C266   C     0.11198   0.83101   0.40358   0.00000  Uiso   1.00
C267   C     0.19026   0.98935   0.25234   0.00000  Uiso   1.00
C268   C     0.13303   0.83235   0.34732   0.00000  Uiso   1.00
C269   C     0.14302   0.67731   0.24783   0.00000  Uiso   1.00
C270   C     0.15155   0.73327   0.24853   0.00000  Uiso   1.00
C271   C     0.20059   0.83702   0.15294   0.00000  Uiso   1.00
C272   C     0.29307   0.89241   0.02648   0.00000  Uiso   1.00
C273   C     0.22094   0.84549   0.09784   0.00000  Uiso   1.00
C274   C     0.05020   0.80444   0.42502   0.00000  Uiso   1.00
C275   C     0.03265   0.79449   0.47694   0.00000  Uiso   1.00
C276   C     0.13918   0.83512   0.48795   0.00000  Uiso   1.00
C277   C     0.07646   0.80849   0.00796   0.00000  Uiso   1.00
C278   C     0.15507   0.85061   0.43617   0.00000  Uiso   1.00
C279   C     0.18641   0.84762   0.01781   0.00000  Uiso   1.00
C280   C     0.24635   0.87943   0.49725   0.00000  Uiso   1.00
C281   C     0.25844   0.89919   0.44831   0.00000  Uiso   1.00
C282   C     0.21326   0.88577   0.41856   0.00000  Uiso   1.00
C283   C     0.17595   0.82943   0.06763   0.00000  Uiso   1.00
C284   C     0.28028   0.87581   0.07674   0.00000  Uiso   1.00
Cu285  Cu    0.10710   0.82772   0.24435   0.00000  Uiso   1.00
Cu286  Cu    0.22623   0.83895   0.25564   0.00000  Uiso   1.00
F287   F     0.00697   0.78641   0.39567   0.00000  Uiso   1.00
H288   H     0.31560   0.88859   0.09966   0.00000  Uiso   1.00
H289   H     0.22420   0.90461   0.38208   0.00000  Uiso   1.00
H290   H     0.23579   0.67981   0.25661   0.00000  Uiso   1.00
H291   H     0.09748   0.98686   0.24356   0.00000  Uiso   1.00
H292   H     0.00361   0.87252   0.28968   0.00000  Uiso   1.00
H293   H     0.32969   0.79412   0.21035   0.00000  Uiso   1.00
H294   H     0.30305   0.92534   0.43293   0.00000  Uiso   1.00
H295   H     0.00557   0.91666   0.01090   0.00000  Uiso   1.00
H296   H     0.13242   0.80342   0.08456   0.00000  Uiso   1.00
H297   H     0.05908   0.79908   0.04772   0.00000  Uiso   1.00
H298   H     0.31821   0.77439   0.49317   0.00000  Uiso   1.00
N299   N     0.31574   0.84741   0.26416   0.00000  Uiso   1.00
N300   N     0.01759   0.81926   0.23584   0.00000  Uiso   1.00
O301   O     0.12797   0.90474   0.24633   0.00000  Uiso   1.00
O302   O     0.22858   0.91422   0.25586   0.00000  Uiso   1.00
O303   O     0.09181   0.82627   0.31839   0.00000  Uiso   1.00
O304   O     0.19242   0.83575   0.32793   0.00000  Uiso   1.00
O305   O     0.10476   0.75245   0.24413   0.00000  Uiso   1.00
O306   O     0.20536   0.76193   0.25367   0.00000  Uiso   1.00
O307   O     0.14092   0.83092   0.17207   0.00000  Uiso   1.00
O308   O     0.24152   0.84040   0.18160   0.00000  Uiso   1.00
C309   C     0.51509   0.93340   0.25155   0.00000  Uiso   1.00
C310   C     0.44531   0.83101   0.40358   0.00000  Uiso   1.00
C311   C     0.52359   0.98935   0.25234   0.00000  Uiso   1.00
C312   C     0.46636   0.83235   0.34732   0.00000  Uiso   1.00
C313   C     0.47635   0.67731   0.24783   0.00000  Uiso   1.00
C314   C     0.48488   0.73327   0.24853   0.00000  Uiso   1.00
C315   C     0.53392   0.83702   0.15294   0.00000  Uiso   1.00
C316   C     0.62640   0.89241   0.02648   0.00000  Uiso   1.00
C317   C     0.55427   0.84549   0.09784   0.00000  Uiso   1.00
C318   C     0.38354   0.80444   0.42502   0.00000  Uiso   1.00
C319   C     0.36598   0.79449   0.47694   0.00000  Uiso   1.00
C320   C     0.47251   0.83512   0.48795   0.00000  Uiso   1.00
C321   C     0.40980   0.80849   0.00796   0.00000  Uiso   1.00
C322   C     0.48840   0.85061   0.43617   0.00000  Uiso   1.00
C323   C     0.51974   0.84762   0.01781   0.00000  Uiso   1.00
C324   C     0.57968   0.87943   0.49725   0.00000  Uiso   1.00
C325   C     0.59177   0.89919   0.44831   0.00000  Uiso   1.00
C326   C     0.54659   0.88577   0.41856   0.00000  Uiso   1.00
C327   C     0.50928   0.82943   0.06763   0.00000  Uiso   1.00
C328   C     0.61362   0.87581   0.07674   0.00000  Uiso   1.00
Cu329  Cu    0.44043   0.82772   0.24435   0.00000  Uiso   1.00
Cu330  Cu    0.55957   0.83895   0.25564   0.00000  Uiso   1.00
F331   F     0.34031   0.78641   0.39567   0.00000  Uiso   1.00
H332   H     0.64893   0.88859   0.09966   0.00000  Uiso   1.00
H333   H     0.55753   0.90461   0.38208   0.00000  Uiso   1.00
H334   H     0.56913   0.67981   0.25661   0.00000  Uiso   1.00
H335   H     0.43081   0.98686   0.24356   0.00000  Uiso   1.00
H336   H     0.33695   0.87252   0.28968   0.00000  Uiso   1.00
H337   H     0.66303   0.79412   0.21035   0.00000  Uiso   1.00
H338   H     0.63638   0.92534   0.43293   0.00000  Uiso   1.00
H339   H     0.33891   0.91666   0.01090   0.00000  Uiso   1.00
H340   H     0.46575   0.80342   0.08456   0.00000  Uiso   1.00
H341   H     0.39241   0.79908   0.04772   0.00000  Uiso   1.00
H342   H     0.65154   0.77439   0.49317   0.00000  Uiso   1.00
N343   N     0.64908   0.84741   0.26416   0.00000  Uiso   1.00
N344   N     0.35092   0.81926   0.23584   0.00000  Uiso   1.00
O345   O     0.46131   0.90474   0.24633   0.00000  Uiso   1.00
O346   O     0.56191   0.91422   0.25586   0.00000  Uiso   1.00
O347   O     0.42515   0.82627   0.31839   0.00000  Uiso   1.00
O348   O     0.52575   0.83575   0.32793   0.00000  Uiso   1.00
O349   O     0.43809   0.75245   0.24413   0.00000  Uiso   1.00
O350   O     0.53869   0.76193   0.25367   0.00000  Uiso   1.00
O351   O     0.47425   0.83092   0.17207   0.00000  Uiso   1.00
O352   O     0.57485   0.84040   0.18160   0.00000  Uiso   1.00
C353   C     0.84842   0.93340   0.25155   0.00000  Uiso   1.00
C354   C     0.77864   0.83101   0.40358   0.00000  Uiso   1.00
C355   C     0.85692   0.98935   0.25234   0.00000  Uiso   1.00
C356   C     0.79969   0.83235   0.34732   0.00000  Uiso   1.00
C357   C     0.80968   0.67731   0.24783   0.00000  Uiso   1.00
C358   C     0.81821   0.73327   0.24853   0.00000  Uiso   1.00
C359   C     0.86725   0.83702   0.15294   0.00000  Uiso   1.00
C360   C     0.95973   0.89241   0.02648   0.00000  Uiso   1.00
C361   C     0.88760   0.84549   0.09784   0.00000  Uiso   1.00
C362   C     0.71687   0.80444   0.42502   0.00000  Uiso   1.00
C363   C     0.69931   0.79449   0.47694   0.00000  Uiso   1.00
C364   C     0.80585   0.83512   0.48795   0.00000  Uiso   1.00
C365   C     0.74313   0.80849   0.00796   0.00000  Uiso   1.00
C366   C     0.82174   0.85061   0.43617   0.00000  Uiso   1.00
C367   C     0.85307   0.84762   0.01781   0.00000  Uiso   1.00
C368   C     0.91301   0.87943   0.49725   0.00000  Uiso   1.00
C369   C     0.92510   0.89919   0.44831   0.00000  Uiso   1.00
C370   C     0.87993   0.88577   0.41856   0.00000  Uiso   1.00
C371   C     0.84261   0.82943   0.06763   0.00000  Uiso   1.00
C372   C     0.94695   0.87581   0.07674   0.00000  Uiso   1.00
Cu373  Cu    0.77377   0.82772   0.24435   0.00000  Uiso   1.00
Cu374  Cu    0.89290   0.83895   0.25564   0.00000  Uiso   1.00
F375   F     0.67364   0.78641   0.39567   0.00000  Uiso   1.00
H376   H     0.98227   0.88859   0.09966   0.00000  Uiso   1.00
H377   H     0.89086   0.90461   0.38208   0.00000  Uiso   1.00
H378   H     0.90246   0.67981   0.25661   0.00000  Uiso   1.00
H379   H     0.76414   0.98686   0.24356   0.00000  Uiso   1.00
H380   H     0.67028   0.87252   0.28968   0.00000  Uiso   1.00
H381   H     0.99636   0.79412   0.21035   0.00000  Uiso   1.00
H382   H     0.96971   0.92534   0.43293   0.00000  Uiso   1.00
H383   H     0.67224   0.91666   0.01090   0.00000  Uiso   1.00
H384   H     0.79908   0.80342   0.08456   0.00000  Uiso   1.00
H385   H     0.72574   0.79908   0.04772   0.00000  Uiso   1.00
H386   H     0.98488   0.77439   0.49317   0.00000  Uiso   1.00
N387   N     0.98241   0.84741   0.26416   0.00000  Uiso   1.00
N388   N     0.68426   0.81926   0.23584   0.00000  Uiso   1.00
O389   O     0.79464   0.90474   0.24633   0.00000  Uiso   1.00
O390   O     0.89524   0.91422   0.25586   0.00000  Uiso   1.00
O391   O     0.75848   0.82627   0.31839   0.00000  Uiso   1.00
O392   O     0.85908   0.83575   0.32793   0.00000  Uiso   1.00
O393   O     0.77142   0.75245   0.24413   0.00000  Uiso   1.00
O394   O     0.87203   0.76193   0.25367   0.00000  Uiso   1.00
O395   O     0.80758   0.83092   0.17207   0.00000  Uiso   1.00
O396   O     0.90819   0.84040   0.18160   0.00000  Uiso   1.00
C397   C     0.18176   0.26673   0.75155   0.00000  Uiso   1.00
C398   C     0.11198   0.16435   0.90358   0.00000  Uiso   1.00
C399   C     0.19026   0.32268   0.75234   0.00000  Uiso   1.00
C400   C     0.13303   0.16569   0.84732   0.00000  Uiso   1.00
C401   C     0.14302   0.01065   0.74783   0.00000  Uiso   1.00
C402   C     0.15155   0.06660   0.74853   0.00000  Uiso   1.00
C403   C     0.20059   0.17035   0.65294   0.00000  Uiso   1.00
C404   C     0.29307   0.22575   0.52648   0.00000  Uiso   1.00
C405   C     0.22094   0.17882   0.59784   0.00000  Uiso   1.00
C406   C     0.05020   0.13777   0.92502   0.00000  Uiso   1.00
C407   C     0.03265   0.12782   0.97694   0.00000  Uiso   1.00
C408   C     0.13918   0.16846   0.98795   0.00000  Uiso   1.00
C409   C     0.07646   0.14183   0.50796   0.00000  Uiso   1.00
C410   C     0.15507   0.18394   0.93617   0.00000  Uiso   1.00
C411   C     0.18641   0.18095   0.51781   0.00000  Uiso   1.00
C412   C     0.24635   0.21276   0.99725   0.00000  Uiso   1.00
C413   C     0.25844   0.23252   0.94831   0.00000  Uiso   1.00
C414   C     0.21326   0.21911   0.91856   0.00000  Uiso   1.00
C415   C     0.17595   0.16277   0.56763   0.00000  Uiso   1.00
C416   C     0.28028   0.20914   0.57674   0.00000  Uiso   1.00
Cu417  Cu    0.10710   0.16105   0.74435   0.00000  Uiso   1.00
Cu418  Cu    0.22623   0.17228   0.75564   0.00000  Uiso   1.00
F419   F     0.00697   0.11975   0.89567   0.00000  Uiso   1.00
H420   H     0.31560   0.22192   0.59966   0.00000  Uiso   1.00
H421   H     0.22420   0.23794   0.88208   0.00000  Uiso   1.00
H422   H     0.23579   0.01314   0.75661   0.00000  Uiso   1.00
H423   H     0.09748   0.32019   0.74356   0.00000  Uiso   1.00
H424   H     0.00361   0.20586   0.78968   0.00000  Uiso   1.00
H425   H     0.32969   0.12745   0.71035   0.00000  Uiso   1.00
H426   H     0.30305   0.25867   0.93293   0.00000  Uiso   1.00
H427   H     0.00557   0.24999   0.51090   0.00000  Uiso   1.00
H428   H     0.13242   0.13676   0.58456   0.00000  Uiso   1.00
H429   H     0.05908   0.13241   0.54772   0.00000  Uiso   1.00
H430   H     0.31821   0.10773   0.99317   0.00000  Uiso   1.00
N431   N     0.31574   0.18074   0.76416   0.00000  Uiso   1.00
N432   N     0.01759   0.15259   0.73584   0.00000  Uiso   1.00
O433   O     0.12797   0.23807   0.74633   0.00000  Uiso   1.00
O434   O     0.22858   0.24755   0.75586   0.00000  Uiso   1.00
O435   O     0.09181   0.15960   0.81839   0.00000  Uiso   1.00
O436   O     0.19242   0.16908   0.82793   0.00000  Uiso   1.00
O437   O     0.10476   0.08578   0.74413   0.00000  Uiso   1.00
O438   O     0.20536   0.09526   0.75367   0.00000  Uiso   1.00
O439   O     0.14092   0.16425   0.67207   0.00000  Uiso   1.00
O440   O     0.24152   0.17373   0.68160   0.00000  Uiso   1.00
C441   C     0.51509   0.26673   0.75155   0.00000  Uiso   1.00
C442   C     0.44531   0.16435   0.90358   0.00000  Uiso   1.00
C443   C     0.52359   0.32268   0.75234   0.00000  Uiso   1.00
C444   C     0.46636   0.16569   0.84732   0.00000  Uiso   1.00
C445   C     0.47635   0.01065   0.74783   0.00000  Uiso   1.00
C446   C     0.48488   0.06660   0.74853   0.00000  Uiso   1.00
C447   C     0.53392   0.17035   0.65294   0.00000  Uiso   1.00
C448   C     0.62640   0.22575   0.52648   0.00000  Uiso   1.00
C449   C     0.55427   0.17882   0.59784   0.00000  Uiso   1.00
C450   C     0.38354   0.13777   0.92502   0.00000  Uiso   1.00
C451   C     0.36598   0.12782   0.97694   0.00000  Uiso   1.00
C452   C     0.47251   0.16846   0.98795   0.00000  Uiso   1.00
C453   C     0.40980   0.14183   0.50796   0.00000  Uiso   1.00
C454   C     0.48840   0.18394   0.93617   0.00000  Uiso   1.00
C455   C     0.51974   0.18095   0.51781   0.00000  Uiso   1.00
C456   C     0.57968   0.21276   0.99725   0.00000  Uiso   1.00
C457   C     0.59177   0.23252   0.94831   0.00000  Uiso   1.00
C458   C     0.54659   0.21911   0.91856   0.00000  Uiso   1.00
C459   C     0.50928   0.16277   0.56763   0.00000  Uiso   1.00
C460   C     0.61362   0.20914   0.57674   0.00000  Uiso   1.00
Cu461  Cu    0.44043   0.16105   0.74435   0.00000  Uiso   1.00
Cu462  Cu    0.55957   0.17228   0.75564   0.00000  Uiso   1.00
F463   F     0.34031   0.11975   0.89567   0.00000  Uiso   1.00
H464   H     0.64893   0.22192   0.59966   0.00000  Uiso   1.00
H465   H     0.55753   0.23794   0.88208   0.00000  Uiso   1.00
H466   H     0.56913   0.01314   0.75661   0.00000  Uiso   1.00
H467   H     0.43081   0.32019   0.74356   0.00000  Uiso   1.00
H468   H     0.33695   0.20586   0.78968   0.00000  Uiso   1.00
H469   H     0.66303   0.12745   0.71035   0.00000  Uiso   1.00
H470   H     0.63638   0.25867   0.93293   0.00000  Uiso   1.00
H471   H     0.33891   0.24999   0.51090   0.00000  Uiso   1.00
H472   H     0.46575   0.13676   0.58456   0.00000  Uiso   1.00
H473   H     0.39241   0.13241   0.54772   0.00000  Uiso   1.00
H474   H     0.65154   0.10773   0.99317   0.00000  Uiso   1.00
N475   N     0.64908   0.18074   0.76416   0.00000  Uiso   1.00
N476   N     0.35092   0.15259   0.73584   0.00000  Uiso   1.00
O477   O     0.46131   0.23807   0.74633   0.00000  Uiso   1.00
O478   O     0.56191   0.24755   0.75586   0.00000  Uiso   1.00
O479   O     0.42515   0.15960   0.81839   0.00000  Uiso   1.00
O480   O     0.52575   0.16908   0.82793   0.00000  Uiso   1.00
O481   O     0.43809   0.08578   0.74413   0.00000  Uiso   1.00
O482   O     0.53869   0.09526   0.75367   0.00000  Uiso   1.00
O483   O     0.47425   0.16425   0.67207   0.00000  Uiso   1.00
O484   O     0.57485   0.17373   0.68160   0.00000  Uiso   1.00
C485   C     0.84842   0.26673   0.75155   0.00000  Uiso   1.00
C486   C     0.77864   0.16435   0.90358   0.00000  Uiso   1.00
C487   C     0.85692   0.32268   0.75234   0.00000  Uiso   1.00
C488   C     0.79969   0.16569   0.84732   0.00000  Uiso   1.00
C489   C     0.80968   0.01065   0.74783   0.00000  Uiso   1.00
C490   C     0.81821   0.06660   0.74853   0.00000  Uiso   1.00
C491   C     0.86725   0.17035   0.65294   0.00000  Uiso   1.00
C492   C     0.95973   0.22575   0.52648   0.00000  Uiso   1.00
C493   C     0.88760   0.17882   0.59784   0.00000  Uiso   1.00
C494   C     0.71687   0.13777   0.92502   0.00000  Uiso   1.00
C495   C     0.69931   0.12782   0.97694   0.00000  Uiso   1.00
C496   C     0.80585   0.16846   0.98795   0.00000  Uiso   1.00
C497   C     0.74313   0.14183   0.50796   0.00000  Uiso   1.00
C498   C     0.82174   0.18394   0.93617   0.00000  Uiso   1.00
C499   C     0.85307   0.18095   0.51781   0.00000  Uiso   1.00
C500   C     0.91301   0.21276   0.99725   0.00000  Uiso   1.00
C501   C     0.92510   0.23252   0.94831   0.00000  Uiso   1.00
C502   C     0.87993   0.21911   0.91856   0.00000  Uiso   1.00
C503   C     0.84261   0.16277   0.56763   0.00000  Uiso   1.00
C504   C     0.94695   0.20914   0.57674   0.00000  Uiso   1.00
Cu505  Cu    0.77377   0.16105   0.74435   0.00000  Uiso   1.00
Cu506  Cu    0.89290   0.17228   0.75564   0.00000  Uiso   1.00
F507   F     0.67364   0.11975   0.89567   0.00000  Uiso   1.00
H508   H     0.98227   0.22192   0.59966   0.00000  Uiso   1.00
H509   H     0.89086   0.23794   0.88208   0.00000  Uiso   1.00
H510   H     0.90246   0.01314   0.75661   0.00000  Uiso   1.00
H511   H     0.76414   0.32019   0.74356   0.00000  Uiso   1.00
H512   H     0.67028   0.20586   0.78968   0.00000  Uiso   1.00
H513   H     0.99636   0.12745   0.71035   0.00000  Uiso   1.00
H514   H     0.96971   0.25867   0.93293   0.00000  Uiso   1.00
H515   H     0.67224   0.24999   0.51090   0.00000  Uiso   1.00
H516   H     0.79908   0.13676   0.58456   0.00000  Uiso   1.00
H517   H     0.72574   0.13241   0.54772   0.00000  Uiso   1.00
H518   H     0.98488   0.10773   0.99317   0.00000  Uiso   1.00
N519   N     0.98241   0.18074   0.76416   0.00000  Uiso   1.00
N520   N     0.68426   0.15259   0.73584   0.00000  Uiso   1.00
O521   O     0.79464   0.23807   0.74633   0.00000  Uiso   1.00
O522   O     0.89524   0.24755   0.75586   0.00000  Uiso   1.00
O523   O     0.75848   0.15960   0.81839   0.00000  Uiso   1.00
O524   O     0.85908   0.16908   0.82793   0.00000  Uiso   1.00
O525   O     0.77142   0.08578   0.74413   0.00000  Uiso   1.00
O526   O     0.87203   0.09526   0.75367   0.00000  Uiso   1.00
O527   O     0.80758   0.16425   0.67207   0.00000  Uiso   1.00
O528   O     0.90819   0.17373   0.68160   0.00000  Uiso   1.00
C529   C     0.18176   0.60007   0.75155   0.00000  Uiso   1.00
C530   C     0.11198   0.49768   0.90358   0.00000  Uiso   1.00
C531   C     0.19026   0.65602   0.75234   0.00000  Uiso   1.00
C532   C     0.13303   0.49902   0.84732   0.00000  Uiso   1.00
C533   C     0.14302   0.34398   0.74783   0.00000  Uiso   1.00
C534   C     0.15155   0.39993   0.74853   0.00000  Uiso   1.00
C535   C     0.20059   0.50368   0.65294   0.00000  Uiso   1.00
C536   C     0.29307   0.55908   0.52648   0.00000  Uiso   1.00
C537   C     0.22094   0.51215   0.59784   0.00000  Uiso   1.00
C538   C     0.05020   0.47110   0.92502   0.00000  Uiso   1.00
C539   C     0.03265   0.46116   0.97694   0.00000  Uiso   1.00
C540   C     0.13918   0.50179   0.98795   0.00000  Uiso   1.00
C541   C     0.07646   0.47516   0.50796   0.00000  Uiso   1.00
C542   C     0.15507   0.51728   0.93617   0.00000  Uiso   1.00
C543   C     0.18641   0.51428   0.51781   0.00000  Uiso   1.00
C544   C     0.24635   0.54610   0.99725   0.00000  Uiso   1.00
C545   C     0.25844   0.56585   0.94831   0.00000  Uiso   1.00
C546   C     0.21326   0.55244   0.91856   0.00000  Uiso   1.00
C547   C     0.17595   0.49610   0.56763   0.00000  Uiso   1.00
C548   C     0.28028   0.54247   0.57674   0.00000  Uiso   1.00
Cu549  Cu    0.10710   0.49439   0.74435   0.00000  Uiso   1.00
Cu550  Cu    0.22623   0.50561   0.75564   0.00000  Uiso   1.00
F551   F     0.00697   0.45308   0.89567   0.00000  Uiso   1.00
H552   H     0.31560   0.55526   0.59966   0.00000  Uiso   1.00
H553   H     0.22420   0.57128   0.88208   0.00000  Uiso   1.00
H554   H     0.23579   0.34647   0.75661   0.00000  Uiso   1.00
H555   H     0.09748   0.65352   0.74356   0.00000  Uiso   1.00
H556   H     0.00361   0.53919   0.78968   0.00000  Uiso   1.00
H557   H     0.32969   0.46078   0.71035   0.00000  Uiso   1.00
H558   H     0.30305   0.59200   0.93293   0.00000  Uiso   1.00
H559   H     0.00557   0.58333   0.51090   0.00000  Uiso   1.00
H560   H     0.13242   0.47009   0.58456   0.00000  Uiso   1.00
H561   H     0.05908   0.46575   0.54772   0.00000  Uiso   1.00
H562   H     0.31821   0.44106   0.99317   0.00000  Uiso   1.00
N563   N     0.31574   0.51407   0.76416   0.00000  Uiso   1.00
N564   N     0.01759   0.48593   0.73584   0.00000  Uiso   1.00
O565   O     0.12797   0.57141   0.74633   0.00000  Uiso   1.00
O566   O     0.22858   0.58089   0.75586   0.00000  Uiso   1.00
O567   O     0.09181   0.49293   0.81839   0.00000  Uiso   1.00
O568   O     0.19242   0.50241   0.82793   0.00000  Uiso   1.00
O569   O     0.10476   0.41911   0.74413   0.00000  Uiso   1.00
O570   O     0.20536   0.42859   0.75367   0.00000  Uiso   1.00
O571   O     0.14092   0.49759   0.67207   0.00000  Uiso   1.00
O572   O     0.24152   0.50707   0.68160   0.00000  Uiso   1.00
C573   C     0.51509   0.60007   0.75155   0.00000  Uiso   1.00
C574   C     0.44531   0.49768   0.90358   0.00000  Uiso   1.00
C575   C     0.52359   0.65602   0.75234   0.00000  Uiso   1.00
C576   C     0.46636   0.49902   0.84732   0.00000  Uiso   1.00
C577   C     0.47635   0.34398   0.74783   0.00000  Uiso   1.00
C578   C     0.48488   0.39993   0.74853   0.00000  Uiso   1.00
C579   C     0.53392   0.50368   0.65294   0.00000  Uiso   1.00
C580   C     0.62640   0.55908   0.52648   0.00000  Uiso   1.00
C581   C     0.55427   0.51215   0.59784   0.00000  Uiso   1.00
C582   C     0.38354   0.47110   0.92502   0.00000  Uiso   1.00
C583   C     0.36598   0.46116   0.97694   0.00000  Uiso   1.00
C584   C     0.47251   0.50179   0.98795   0.00000  Uiso   1.00
C585   C     0.40980   0.47516   0.50796   0.00000  Uiso   1.00
C586   C     0.48840   0.51728   0.93617   0.00000  Uiso   1.00
C587   C     0.51974   0.51428   0.51781   0.00000  Uiso   1.00
C588   C     0.57968   0.54610   0.99725   0.00000  Uiso   1.00
C589   C     0.59177   0.56585   0.94831   0.00000  Uiso   1.00
C590   C     0.54659   0.55244   0.91856   0.00000  Uiso   1.00
C591   C     0.50928   0.49610   0.56763   0.00000  Uiso   1.00
C592   C     0.61362   0.54247   0.57674   0.00000  Uiso   1.00
Cu593  Cu    0.44043   0.49439   0.74435   0.00000  Uiso   1.00
Cu594  Cu    0.55957   0.50561   0.75564   0.00000  Uiso   1.00
F595   F     0.34031   0.45308   0.89567   0.00000  Uiso   1.00
H596   H     0.64893   0.55526   0.59966   0.00000  Uiso   1.00
H597   H     0.55753   0.57128   0.88208   0.00000  Uiso   1.00
H598   H     0.56913   0.34647   0.75661   0.00000  Uiso   1.00
H599   H     0.43081   0.65352   0.74356   0.00000  Uiso   1.00
H600   H     0.33695   0.53919   0.78968   0.00000  Uiso   1.00
H601   H     0.66303   0.46078   0.71035   0.00000  Uiso   1.00
H602   H     0.63638   0.59200   0.93293   0.00000  Uiso   1.00
H603   H     0.33891   0.58333   0.51090   0.00000  Uiso   1.00
H604   H     0.46575   0.47009   0.58456   0.00000  Uiso   1.00
H605   H     0.39241   0.46575   0.54772   0.00000  Uiso   1.00
H606   H     0.65154   0.44106   0.99317   0.00000  Uiso   1.00
N607   N     0.64908   0.51407   0.76416   0.00000  Uiso   1.00
N608   N     0.35092   0.48593   0.73584   0.00000  Uiso   1.00
O609   O     0.46131   0.57141   0.74633   0.00000  Uiso   1.00
O610   O     0.56191   0.58089   0.75586   0.00000  Uiso   1.00
O611   O     0.42515   0.49293   0.81839   0.00000  Uiso   1.00
O612   O     0.52575   0.50241   0.82793   0.00000  Uiso   1.00
O613   O     0.43809   0.41911   0.74413   0.00000  Uiso   1.00
O614   O     0.53869   0.42859   0.75367   0.00000  Uiso   1.00
O615   O     0.47425   0.49759   0.67207   0.00000  Uiso   1.00
O616   O     0.57485   0.50707   0.68160   0.00000  Uiso   1.00
C617   C     0.84842   0.60007   0.75155   0.00000  Uiso   1.00
C618   C     0.77864   0.49768   0.90358   0.00000  Uiso   1.00
C619   C     0.85692   0.65602   0.75234   0.00000  Uiso   1.00
C620   C     0.79969   0.49902   0.84732   0.00000  Uiso   1.00
C621   C     0.80968   0.34398   0.74783   0.00000  Uiso   1.00
C622   C     0.81821   0.39993   0.74853   0.00000  Uiso   1.00
C623   C     0.86725   0.50368   0.65294   0.00000  Uiso   1.00
C624   C     0.95973   0.55908   0.52648   0.00000  Uiso   1.00
C625   C     0.88760   0.51215   0.59784   0.00000  Uiso   1.00
C626   C     0.71687   0.47110   0.92502   0.00000  Uiso   1.00
C627   C     0.69931   0.46116   0.97694   0.00000  Uiso   1.00
C628   C     0.80585   0.50179   0.98795   0.00000  Uiso   1.00
C629   C     0.74313   0.47516   0.50796   0.00000  Uiso   1.00
C630   C     0.82174   0.51728   0.93617   0.00000  Uiso   1.00
C631   C     0.85307   0.51428   0.51781   0.00000  Uiso   1.00
C632   C     0.91301   0.54610   0.99725   0.00000  Uiso   1.00
C633   C     0.92510   0.56585   0.94831   0.00000  Uiso   1.00
C634   C     0.87993   0.55244   0.91856   0.00000  Uiso   1.00
C635   C     0.84261   0.49610   0.56763   0.00000  Uiso   1.00
C636   C     0.94695   0.54247   0.57674   0.00000  Uiso   1.00
Cu637  Cu    0.77377   0.49439   0.74435   0.00000  Uiso   1.00
Cu638  Cu    0.89290   0.50561   0.75564   0.00000  Uiso   1.00
F639   F     0.67364   0.45308   0.89567   0.00000  Uiso   1.00
H640   H     0.98227   0.55526   0.59966   0.00000  Uiso   1.00
H641   H     0.89086   0.57128   0.88208   0.00000  Uiso   1.00
H642   H     0.90246   0.34647   0.75661   0.00000  Uiso   1.00
H643   H     0.76414   0.65352   0.74356   0.00000  Uiso   1.00
H644   H     0.67028   0.53919   0.78968   0.00000  Uiso   1.00
H645   H     0.99636   0.46078   0.71035   0.00000  Uiso   1.00
H646   H     0.96971   0.59200   0.93293   0.00000  Uiso   1.00
H647   H     0.67224   0.58333   0.51090   0.00000  Uiso   1.00
H648   H     0.79908   0.47009   0.58456   0.00000  Uiso   1.00
H649   H     0.72574   0.46575   0.54772   0.00000  Uiso   1.00
H650   H     0.98488   0.44106   0.99317   0.00000  Uiso   1.00
N651   N     0.98241   0.51407   0.76416   0.00000  Uiso   1.00
N652   N     0.68426   0.48593   0.73584   0.00000  Uiso   1.00
O653   O     0.79464   0.57141   0.74633   0.00000  Uiso   1.00
O654   O     0.89524   0.58089   0.75586   0.00000  Uiso   1.00
O655   O     0.75848   0.49293   0.81839   0.00000  Uiso   1.00
O656   O     0.85908   0.50241   0.82793   0.00000  Uiso   1.00
O657   O     0.77142   0.41911   0.74413   0.00000  Uiso   1.00
O658   O     0.87203   0.42859   0.75367   0.00000  Uiso   1.00
O659   O     0.80758   0.49759   0.67207   0.00000  Uiso   1.00
O660   O     0.90819   0.50707   0.68160   0.00000  Uiso   1.00
C661   C     0.18176   0.93340   0.75155   0.00000  Uiso   1.00
C662   C     0.11198   0.83101   0.90358   0.00000  Uiso   1.00
C663   C     0.19026   0.98935   0.75234   0.00000  Uiso   1.00
C664   C     0.13303   0.83235   0.84732   0.00000  Uiso   1.00
C665   C     0.14302   0.67731   0.74783   0.00000  Uiso   1.00
C666   C     0.15155   0.73327   0.74853   0.00000  Uiso   1.00
C667   C     0.20059   0.83702   0.65294   0.00000  Uiso   1.00
C668   C     0.29307   0.89241   0.52648   0.00000  Uiso   1.00
C669   C     0.22094   0.84549   0.59784   0.00000  Uiso   1.00
C670   C     0.05020   0.80444   0.92502   0.00000  Uiso   1.00
C671   C     0.03265   0.79449   0.97694   0.00000  Uiso   1.00
C672   C     0.13918   0.83512   0.98795   0.00000  Uiso   1.00
C673   C     0.07646   0.80849   0.50796   0.00000  Uiso   1.00
C674   C     0.15507   0.85061   0.93617   0.00000  Uiso   1.00
C675   C     0.18641   0.84762   0.51781   0.00000  Uiso   1.00
C676   C     0.24635   0.87943   0.99725   0.00000  Uiso   1.00
C677   C     0.25844   0.89919   0.94831   0.00000  Uiso   1.00
C678   C     0.21326   0.88577   0.91856   0.00000  Uiso   1.00
C679   C     0.17595   0.82943   0.56763   0.00000  Uiso   1.00
C680   C     0.28028   0.87581   0.57674   0.00000  Uiso   1.00
Cu681  Cu    0.10710   0.82772   0.74435   0.00000  Uiso   1.00
Cu682  Cu    0.22623   0.83895   0.75564   0.00000  Uiso   1.00
F683   F     0.00697   0.78641   0.89567   0.00000  Uiso   1.00
H684   H     0.31560   0.88859   0.59966   0.00000  Uiso   1.00
H685   H     0.22420   0.90461   0.88208   0.00000  Uiso   1.00
H686   H     0.23579   0.67981   0.75661   0.00000  Uiso   1.00
H687   H     0.09748   0.98686   0.74356   0.00000  Uiso   1.00
H688   H     0.00361   0.87252   0.78968   0.00000  Uiso   1.00
H689   H     0.32969   0.79412   0.71035   0.00000  Uiso   1.00
H690   H     0.30305   0.92534   0.93293   0.00000  Uiso   1.00
H691   H     0.00557   0.91666   0.51090   0.00000  Uiso   1.00
H692   H     0.13242   0.80342   0.58456   0.00000  Uiso   1.00
H693   H     0.05908   0.79908   0.54772   0.00000  Uiso   1.00
H694   H     0.31821   0.77439   0.99317   0.00000  Uiso   1.00
N695   N     0.31574   0.84741   0.76416   0.00000  Uiso   1.00
N696   N     0.01759   0.81926   0.73584   0.00000  Uiso   1.00
O697   O     0.12797   0.90474   0.74633   0.00000  Uiso   1.00
O698   O     0.22858   0.91422   0.75586   0.00000  Uiso   1.00
O699   O     0.09181   0.82627   0.81839   0.00000  Uiso   1.00
O700   O     0.19242   0.83575   0.82793   0.00000  Uiso   1.00
O701   O     0.10476   0.75245   0.74413   0.00000  Uiso   1.00
O702   O     0.20536   0.76193   0.75367   0.00000  Uiso   1.00
O703   O     0.14092   0.83092   0.67207   0.00000  Uiso   1.00
O704   O     0.24152   0.84040   0.68160   0.00000  Uiso   1.00
C705   C     0.51509   0.93340   0.75155   0.00000  Uiso   1.00
C706   C     0.44531   0.83101   0.90358   0.00000  Uiso   1.00
C707   C     0.52359   0.98935   0.75234   0.00000  Uiso   1.00
C708   C     0.46636   0.83235   0.84732   0.00000  Uiso   1.00
C709   C     0.47635   0.67731   0.74783   0.00000  Uiso   1.00
C710   C     0.48488   0.73327   0.74853   0.00000  Uiso   1.00
C711   C     0.53392   0.83702   0.65294   0.00000  Uiso   1.00
C712   C     0.62640   0.89241   0.52648   0.00000  Uiso   1.00
C713   C     0.55427   0.84549   0.59784   0.00000  Uiso   1.00
C714   C     0.38354   0.80444   0.92502   0.00000  Uiso   1.00
C715   C     0.36598   0.79449   0.97694   0.00000  Uiso   1.00
C716   C     0.47251   0.83512   0.98795   0.00000  Uiso   1.00
C717   C     0.40980   0.80849   0.50796   0.00000  Uiso   1.00
C718   C     0.48840   0.85061   0.93617   0.00000  Uiso   1.00
C719   C     0.51974   0.84762   0.51781   0.00000  Uiso   1.00
C720   C     0.57968   0.87943   0.99725   0.00000  Uiso   1.00
C721   C     0.59177   0.89919   0.94831   0.00000  Uiso   1.00
C722   C     0.54659   0.88577   0.91856   0.00000  Uiso   1.00
C723   C     0.50928   0.82943   0.56763   0.00000  Uiso   1.00
C724   C     0.61362   0.87581   0.57674   0.00000  Uiso   1.00
Cu725  Cu    0.44043   0.82772   0.74435   0.00000  Uiso   1.00
Cu726  Cu    0.55957   0.83895   0.75564   0.00000  Uiso   1.00
F727   F     0.34031   0.78641   0.89567   0.00000  Uiso   1.00
H728   H     0.64893   0.88859   0.59966   0.00000  Uiso   1.00
H729   H     0.55753   0.90461   0.88208   0.00000  Uiso   1.00
H730   H     0.56913   0.67981   0.75661   0.00000  Uiso   1.00
H731   H     0.43081   0.98686   0.74356   0.00000  Uiso   1.00
H732   H     0.33695   0.87252   0.78968   0.00000  Uiso   1.00
H733   H     0.66303   0.79412   0.71035   0.00000  Uiso   1.00
H734   H     0.63638   0.92534   0.93293   0.00000  Uiso   1.00
H735   H     0.33891   0.91666   0.51090   0.00000  Uiso   1.00
H736   H     0.46575   0.80342   0.58456   0.00000  Uiso   1.00
H737   H     0.39241   0.79908   0.54772   0.00000  Uiso   1.00
H738   H     0.65154   0.77439   0.99317   0.00000  Uiso   1.00
N739   N     0.64908   0.84741   0.76416   0.00000  Uiso   1.00
N740   N     0.35092   0.81926   0.73584   0.00000  Uiso   1.00
O741   O     0.46131   0.90474   0.74633   0.00000  Uiso   1.00
O742   O     0.56191   0.91422   0.75586   0.00000  Uiso   1.00
O743   O     0.42515   0.82627   0.81839   0.00000  Uiso   1.00
O744   O     0.52575   0.83575   0.82793   0.00000  Uiso   1.00
O745   O     0.43809   0.75245   0.74413   0.00000  Uiso   1.00
O746   O     0.53869   0.76193   0.75367   0.00000  Uiso   1.00
O747   O     0.47425   0.83092   0.67207   0.00000  Uiso   1.00
O748   O     0.57485   0.84040   0.68160   0.00000  Uiso   1.00
C749   C     0.84842   0.93340   0.75155   0.00000  Uiso   1.00
C750   C     0.77864   0.83101   0.90358   0.00000  Uiso   1.00
C751   C     0.85692   0.98935   0.75234   0.00000  Uiso   1.00
C752   C     0.79969   0.83235   0.84732   0.00000  Uiso   1.00
C753   C     0.80968   0.67731   0.74783   0.00000  Uiso   1.00
C754   C     0.81821   0.73327   0.74853   0.00000  Uiso   1.00
C755   C     0.86725   0.83702   0.65294   0.00000  Uiso   1.00
C756   C     0.95973   0.89241   0.52648   0.00000  Uiso   1.00
C757   C     0.88760   0.84549   0.59784   0.00000  Uiso   1.00
C758   C     0.71687   0.80444   0.92502   0.00000  Uiso   1.00
C759   C     0.69931   0.79449   0.97694   0.00000  Uiso   1.00
C760   C     0.80585   0.83512   0.98795   0.00000  Uiso   1.00
C761   C     0.74313   0.80849   0.50796   0.00000  Uiso   1.00
C762   C     0.82174   0.85061   0.93617   0.00000  Uiso   1.00
C763   C     0.85307   0.84762   0.51781   0.00000  Uiso   1.00
C764   C     0.91301   0.87943   0.99725   0.00000  Uiso   1.00
C765   C     0.92510   0.89919   0.94831   0.00000  Uiso   1.00
C766   C     0.87993   0.88577   0.91856   0.00000  Uiso   1.00
C767   C     0.84261   0.82943   0.56763   0.00000  Uiso   1.00
C768   C     0.94695   0.87581   0.57674   0.00000  Uiso   1.00
Cu769  Cu    0.77377   0.82772   0.74435   0.00000  Uiso   1.00
Cu770  Cu    0.89290   0.83895   0.75564   0.00000  Uiso   1.00
F771   F     0.67364   0.78641   0.89567   0.00000  Uiso   1.00
H772   H     0.98227   0.88859   0.59966   0.00000  Uiso   1.00
H773   H     0.89086   0.90461   0.88208   0.00000  Uiso   1.00
H774   H     0.90246   0.67981   0.75661   0.00000  Uiso   1.00
H775   H     0.76414   0.98686   0.74356   0.00000  Uiso   1.00
H776   H     0.67028   0.87252   0.78968   0.00000  Uiso   1.00
H777   H     0.99636   0.79412   0.71035   0.00000  Uiso   1.00
H778   H     0.96971   0.92534   0.93293   0.00000  Uiso   1.00
H779   H     0.67224   0.91666   0.51090   0.00000  Uiso   1.00
H780   H     0.79908   0.80342   0.58456   0.00000  Uiso   1.00
H781   H     0.72574   0.79908   0.54772   0.00000  Uiso   1.00
H782   H     0.98488   0.77439   0.99317   0.00000  Uiso   1.00
N783   N     0.98241   0.84741   0.76416   0.00000  Uiso   1.00
N784   N     0.68426   0.81926   0.73584   0.00000  Uiso   1.00
O785   O     0.79464   0.90474   0.74633   0.00000  Uiso   1.00
O786   O     0.89524   0.91422   0.75586   0.00000  Uiso   1.00
O787   O     0.75848   0.82627   0.81839   0.00000  Uiso   1.00
O788   O     0.85908   0.83575   0.82793   0.00000  Uiso   1.00
O789   O     0.77142   0.75245   0.74413   0.00000  Uiso   1.00
O790   O     0.87203   0.76193   0.75367   0.00000  Uiso   1.00
O791   O     0.80758   0.83092   0.67207   0.00000  Uiso   1.00
O792   O     0.90819   0.84040   0.68160   0.00000  Uiso   1.00
loop_
_geom_bond_atom_site_label_1
_geom_bond_atom_site_label_2
_geom_bond_distance
_geom_bond_site_symmetry_2
_ccdc_geom_bond_type
C1     O37     1.291   .     A
C1     O38     1.285   .     A
C1     C3      1.428   .     S
C2     C4      1.479   .     S
C2     C14     1.425   .     A
C2     C10     1.408   .     A
C3     C137    1.328   .     S
C3     H158    1.088   .     S
C4     O39     1.304   .     A
C4     O40     1.297   .     A
C5     C6      1.428   .     S
C5     C267    1.328   1_545 S
C5     H291    1.088   1_545 S
C6     O42     1.291   .     A
C6     O41     1.285   .     A
C7     O43     1.294   .     A
C7     O44     1.301   .     A
C7     C9      1.464   .     S
C8     C20     1.394   .     A
C8     C412    1.405   1_554 S
C8     H75     1.084   .     S
C9     C20     1.398   .     A
C9     C19     1.398   .     A
C10    F23     1.358   .     S
C10    C11     1.387   .     A
C11    C409    1.390   .     S
C11    H122    1.083   1_455 S
C12    C14     1.419   .     A
C12    C409    1.417   .     S
C12    C411    1.426   .     S
C13    H33     1.077   .     S
C13    C408    1.417   1_554 S
C13    C407    1.390   1_554 S
C14    C18     1.414   .     A
C15    C19     1.402   .     A
C15    C408    1.426   1_554 S
C15    C412    1.419   1_554 S
C16    C17     1.392   .     A
C16    C411    1.419   .     S
C16    C404    1.405   .     S
C17    H30     1.084   .     S
C17    C18     1.388   .     A
C18    H25     1.080   .     S
C19    H32     1.077   .     S
C20    H24     1.083   .     S
Cu21   O39     1.941   .     S
Cu21   N36     2.018   .     S
Cu21   O41     1.952   .     S
Cu21   Cu22    2.686   .     S
Cu21   O43     1.920   .     S
Cu21   O37     1.956   .     S
Cu22   O40     1.920   .     S
Cu22   N35     2.018   .     S
Cu22   O42     1.956   .     S
Cu22   O44     1.941   .     S
Cu22   O38     1.952   .     S
H26    C267    1.088   1_545 S
H27    C137    1.088   .     S
H28    N123    1.029   1_455 S
H29    N80     1.029   .     S
H31    C96     1.084   1_455 S
H34    C55     1.083   .     S
N35    H72     1.029   .     S
N35    N80     1.285   .     S
N36    N123    1.285   1_455 S
N36    H117    1.029   1_455 S
C45    O81     1.291   .     A
C45    O82     1.285   .     A
C45    C47     1.428   .     S
C46    C48     1.479   .     S
C46    C58     1.425   .     A
C46    C54     1.408   .     A
C47    C181    1.328   .     S
C47    H202    1.088   .     S
C48    O83     1.304   .     A
C48    O84     1.297   .     A
C49    C50     1.428   .     S
C49    C311    1.328   1_545 S
C49    H335    1.088   1_545 S
C50    O86     1.291   .     A
C50    O85     1.285   .     A
C51    O87     1.294   .     A
C51    O88     1.301   .     A
C51    C53     1.464   .     S
C52    C64     1.394   .     A
C52    C456    1.405   1_554 S
C52    H119    1.084   .     S
C53    C64     1.398   .     A
C53    C63     1.398   .     A
C54    F67     1.358   .     S
C54    C55     1.387   .     A
C55    C453    1.390   .     S
C56    C58     1.419   .     A
C56    C453    1.417   .     S
C56    C455    1.426   .     S
C57    H77     1.077   .     S
C57    C452    1.417   1_554 S
C57    C451    1.390   1_554 S
C58    C62     1.414   .     A
C59    C63     1.402   .     A
C59    C452    1.426   1_554 S
C59    C456    1.419   1_554 S
C60    C61     1.392   .     A
C60    C455    1.419   .     S
C60    C448    1.405   .     S
C61    H74     1.084   .     S
C61    C62     1.388   .     A
C62    H69     1.080   .     S
C63    H76     1.077   .     S
C64    H68     1.083   .     S
Cu65   O83     1.941   .     S
Cu65   N80     2.018   .     S
Cu65   O85     1.952   .     S
Cu65   Cu66    2.686   .     S
Cu65   O87     1.920   .     S
Cu65   O81     1.956   .     S
Cu66   O84     1.920   .     S
Cu66   N79     2.018   .     S
Cu66   O86     1.956   .     S
Cu66   O88     1.941   .     S
Cu66   O82     1.952   .     S
H70    C311    1.088   1_545 S
H71    C181    1.088   .     S
H73    N124    1.029   .     S
H78    C99     1.083   .     S
N79    H116    1.029   .     S
N79    N124    1.285   .     S
C89    O125    1.291   .     A
C89    O126    1.285   .     A
C89    C91     1.428   .     S
C90    C92     1.479   .     S
C90    C102    1.425   .     A
C90    C98     1.408   .     A
C91    C225    1.328   .     S
C91    H246    1.088   .     S
C92    O127    1.304   .     A
C92    O128    1.297   .     A
C93    C94     1.428   .     S
C93    C355    1.328   1_545 S
C93    H379    1.088   1_545 S
C94    O130    1.291   .     A
C94    O129    1.285   .     A
C95    O131    1.294   .     A
C95    O132    1.301   .     A
C95    C97     1.464   .     S
C96    C108    1.394   .     A
C96    C500    1.405   1_554 S
C96    H31     1.084   1_655 S
C97    C108    1.398   .     A
C97    C107    1.398   .     A
C98    F111    1.358   .     S
C98    C99     1.387   .     A
C99    C497    1.390   .     S
C100   C102    1.419   .     A
C100   C497    1.417   .     S
C100   C499    1.426   .     S
C101   H121    1.077   .     S
C101   C496    1.417   1_554 S
C101   C495    1.390   1_554 S
C102   C106    1.414   .     A
C103   C107    1.402   .     A
C103   C496    1.426   1_554 S
C103   C500    1.419   1_554 S
C104   C105    1.392   .     A
C104   C499    1.419   .     S
C104   C492    1.405   .     S
C105   H118    1.084   .     S
C105   C106    1.388   .     A
C106   H113    1.080   .     S
C107   H120    1.077   .     S
C108   H112    1.083   .     S
Cu109  O127    1.941   .     S
Cu109  N124    2.018   .     S
Cu109  O129    1.952   .     S
Cu109  Cu110   2.686   .     S
Cu109  O131    1.920   .     S
Cu109  O125    1.956   .     S
Cu110  O128    1.920   .     S
Cu110  N123    2.018   .     S
Cu110  O130    1.956   .     S
Cu110  O132    1.941   .     S
Cu110  O126    1.952   .     S
H114   C355    1.088   1_545 S
H115   C225    1.088   .     S
H117   N36     1.029   1_655 S
H122   C11     1.083   1_655 S
N123   H28     1.029   1_655 S
N123   N36     1.285   1_655 S
C133   O169    1.291   .     A
C133   O170    1.285   .     A
C133   C135    1.428   .     S
C134   C136    1.479   .     S
C134   C146    1.425   .     A
C134   C142    1.408   .     A
C135   C269    1.328   .     S
C135   H290    1.088   .     S
C136   O171    1.304   .     A
C136   O172    1.297   .     A
C137   C138    1.428   .     S
C138   O174    1.291   .     A
C138   O173    1.285   .     A
C139   O175    1.294   .     A
C139   O176    1.301   .     A
C139   C141    1.464   .     S
C140   C152    1.394   .     A
C140   C544    1.405   1_554 S
C140   H207    1.084   .     S
C141   C152    1.398   .     A
C141   C151    1.398   .     A
C142   F155    1.358   .     S
C142   C143    1.387   .     A
C143   C541    1.390   .     S
C143   H254    1.083   1_455 S
C144   C146    1.419   .     A
C144   C541    1.417   .     S
C144   C543    1.426   .     S
C145   H165    1.077   .     S
C145   C540    1.417   1_554 S
C145   C539    1.390   1_554 S
C146   C150    1.414   .     A
C147   C151    1.402   .     A
C147   C540    1.426   1_554 S
C147   C544    1.419   1_554 S
C148   C149    1.392   .     A
C148   C543    1.419   .     S
C148   C536    1.405   .     S
C149   H162    1.084   .     S
C149   C150    1.388   .     A
C150   H157    1.080   .     S
C151   H164    1.077   .     S
C152   H156    1.083   .     S
Cu153  O171    1.941   .     S
Cu153  N168    2.018   .     S
Cu153  O173    1.952   .     S
Cu153  Cu154   2.686   .     S
Cu153  O175    1.920   .     S
Cu153  O169    1.956   .     S
Cu154  O172    1.920   .     S
Cu154  N167    2.018   .     S
Cu154  O174    1.956   .     S
Cu154  O176    1.941   .     S
Cu154  O170    1.952   .     S
H159   C269    1.088   .     S
H160   N255    1.029   1_455 S
H161   N212    1.029   .     S
H163   C228    1.084   1_455 S
H166   C187    1.083   .     S
N167   H204    1.029   .     S
N167   N212    1.285   .     S
N168   N255    1.285   1_455 S
N168   H249    1.029   1_455 S
C177   O213    1.291   .     A
C177   O214    1.285   .     A
C177   C179    1.428   .     S
C178   C180    1.479   .     S
C178   C190    1.425   .     A
C178   C186    1.408   .     A
C179   C313    1.328   .     S
C179   H334    1.088   .     S
C180   O215    1.304   .     A
C180   O216    1.297   .     A
C181   C182    1.428   .     S
C182   O218    1.291   .     A
C182   O217    1.285   .     A
C183   O219    1.294   .     A
C183   O220    1.301   .     A
C183   C185    1.464   .     S
C184   C196    1.394   .     A
C184   C588    1.405   1_554 S
C184   H251    1.084   .     S
C185   C196    1.398   .     A
C185   C195    1.398   .     A
C186   F199    1.358   .     S
C186   C187    1.387   .     A
C187   C585    1.390   .     S
C188   C190    1.419   .     A
C188   C585    1.417   .     S
C188   C587    1.426   .     S
C189   H209    1.077   .     S
C189   C584    1.417   1_554 S
C189   C583    1.390   1_554 S
C190   C194    1.414   .     A
C191   C195    1.402   .     A
C191   C584    1.426   1_554 S
C191   C588    1.419   1_554 S
C192   C193    1.392   .     A
C192   C587    1.419   .     S
C192   C580    1.405   .     S
C193   H206    1.084   .     S
C193   C194    1.388   .     A
C194   H201    1.080   .     S
C195   H208    1.077   .     S
C196   H200    1.083   .     S
Cu197  O215    1.941   .     S
Cu197  N212    2.018   .     S
Cu197  O217    1.952   .     S
Cu197  Cu198   2.686   .     S
Cu197  O219    1.920   .     S
Cu197  O213    1.956   .     S
Cu198  O216    1.920   .     S
Cu198  N211    2.018   .     S
Cu198  O218    1.956   .     S
Cu198  O220    1.941   .     S
Cu198  O214    1.952   .     S
H203   C313    1.088   .     S
H205   N256    1.029   .     S
H210   C231    1.083   .     S
N211   H248    1.029   .     S
N211   N256    1.285   .     S
C221   O257    1.291   .     A
C221   O258    1.285   .     A
C221   C223    1.428   .     S
C222   C224    1.479   .     S
C222   C234    1.425   .     A
C222   C230    1.408   .     A
C223   C357    1.328   .     S
C223   H378    1.088   .     S
C224   O259    1.304   .     A
C224   O260    1.297   .     A
C225   C226    1.428   .     S
C226   O262    1.291   .     A
C226   O261    1.285   .     A
C227   O263    1.294   .     A
C227   O264    1.301   .     A
C227   C229    1.464   .     S
C228   C240    1.394   .     A
C228   C632    1.405   1_554 S
C228   H163    1.084   1_655 S
C229   C240    1.398   .     A
C229   C239    1.398   .     A
C230   F243    1.358   .     S
C230   C231    1.387   .     A
C231   C629    1.390   .     S
C232   C234    1.419   .     A
C232   C629    1.417   .     S
C232   C631    1.426   .     S
C233   H253    1.077   .     S
C233   C628    1.417   1_554 S
C233   C627    1.390   1_554 S
C234   C238    1.414   .     A
C235   C239    1.402   .     A
C235   C628    1.426   1_554 S
C235   C632    1.419   1_554 S
C236   C237    1.392   .     A
C236   C631    1.419   .     S
C236   C624    1.405   .     S
C237   H250    1.084   .     S
C237   C238    1.388   .     A
C238   H245    1.080   .     S
C239   H252    1.077   .     S
C240   H244    1.083   .     S
Cu241  O259    1.941   .     S
Cu241  N256    2.018   .     S
Cu241  O261    1.952   .     S
Cu241  Cu242   2.686   .     S
Cu241  O263    1.920   .     S
Cu241  O257    1.956   .     S
Cu242  O260    1.920   .     S
Cu242  N255    2.018   .     S
Cu242  O262    1.956   .     S
Cu242  O264    1.941   .     S
Cu242  O258    1.952   .     S
H247   C357    1.088   .     S
H249   N168    1.029   1_655 S
H254   C143    1.083   1_655 S
N255   H160    1.029   1_655 S
N255   N168    1.285   1_655 S
C265   O301    1.291   .     A
C265   O302    1.285   .     A
C265   C267    1.428   .     S
C266   C268    1.479   .     S
C266   C278    1.425   .     A
C266   C274    1.408   .     A
C267   C5      1.328   1_565 S
C267   H26     1.088   1_565 S
C268   O303    1.304   .     A
C268   O304    1.297   .     A
C269   C270    1.428   .     S
C270   O306    1.291   .     A
C270   O305    1.285   .     A
C271   O307    1.294   .     A
C271   O308    1.301   .     A
C271   C273    1.464   .     S
C272   C284    1.394   .     A
C272   C676    1.405   1_554 S
C272   H339    1.084   .     S
C273   C284    1.398   .     A
C273   C283    1.398   .     A
C274   F287    1.358   .     S
C274   C275    1.387   .     A
C275   C673    1.390   .     S
C275   H386    1.083   1_455 S
C276   C278    1.419   .     A
C276   C673    1.417   .     S
C276   C675    1.426   .     S
C277   H297    1.077   .     S
C277   C672    1.417   1_554 S
C277   C671    1.390   1_554 S
C278   C282    1.414   .     A
C279   C283    1.402   .     A
C279   C672    1.426   1_554 S
C279   C676    1.419   1_554 S
C280   C281    1.392   .     A
C280   C675    1.419   .     S
C280   C668    1.405   .     S
C281   H294    1.084   .     S
C281   C282    1.388   .     A
C282   H289    1.080   .     S
C283   H296    1.077   .     S
C284   H288    1.083   .     S
Cu285  O303    1.941   .     S
Cu285  N300    2.018   .     S
Cu285  O305    1.952   .     S
Cu285  Cu286   2.686   .     S
Cu285  O307    1.920   .     S
Cu285  O301    1.956   .     S
Cu286  O304    1.920   .     S
Cu286  N299    2.018   .     S
Cu286  O306    1.956   .     S
Cu286  O308    1.941   .     S
Cu286  O302    1.952   .     S
H291   C5      1.088   1_565 S
H292   N387    1.029   1_455 S
H293   N344    1.029   .     S
H295   C360    1.084   1_455 S
H298   C319    1.083   .     S
N299   H336    1.029   .     S
N299   N344    1.285   .     S
N300   N387    1.285   1_455 S
N300   H381    1.029   1_455 S
C309   O345    1.291   .     A
C309   O346    1.285   .     A
C309   C311    1.428   .     S
C310   C312    1.479   .     S
C310   C322    1.425   .     A
C310   C318    1.408   .     A
C311   C49     1.328   1_565 S
C311   H70     1.088   1_565 S
C312   O347    1.304   .     A
C312   O348    1.297   .     A
C313   C314    1.428   .     S
C314   O350    1.291   .     A
C314   O349    1.285   .     A
C315   O351    1.294   .     A
C315   O352    1.301   .     A
C315   C317    1.464   .     S
C316   C328    1.394   .     A
C316   C720    1.405   1_554 S
C316   H383    1.084   .     S
C317   C328    1.398   .     A
C317   C327    1.398   .     A
C318   F331    1.358   .     S
C318   C319    1.387   .     A
C319   C717    1.390   .     S
C320   C322    1.419   .     A
C320   C717    1.417   .     S
C320   C719    1.426   .     S
C321   H341    1.077   .     S
C321   C716    1.417   1_554 S
C321   C715    1.390   1_554 S
C322   C326    1.414   .     A
C323   C327    1.402   .     A
C323   C716    1.426   1_554 S
C323   C720    1.419   1_554 S
C324   C325    1.392   .     A
C324   C719    1.419   .     S
C324   C712    1.405   .     S
C325   H338    1.084   .     S
C325   C326    1.388   .     A
C326   H333    1.080   .     S
C327   H340    1.077   .     S
C328   H332    1.083   .     S
Cu329  O347    1.941   .     S
Cu329  N344    2.018   .     S
Cu329  O349    1.952   .     S
Cu329  Cu330   2.686   .     S
Cu329  O351    1.920   .     S
Cu329  O345    1.956   .     S
Cu330  O348    1.920   .     S
Cu330  N343    2.018   .     S
Cu330  O350    1.956   .     S
Cu330  O352    1.941   .     S
Cu330  O346    1.952   .     S
H335   C49     1.088   1_565 S
H337   N388    1.029   .     S
H342   C363    1.083   .     S
N343   H380    1.029   .     S
N343   N388    1.285   .     S
C353   O389    1.291   .     A
C353   O390    1.285   .     A
C353   C355    1.428   .     S
C354   C356    1.479   .     S
C354   C366    1.425   .     A
C354   C362    1.408   .     A
C355   C93     1.328   1_565 S
C355   H114    1.088   1_565 S
C356   O391    1.304   .     A
C356   O392    1.297   .     A
C357   C358    1.428   .     S
C358   O394    1.291   .     A
C358   O393    1.285   .     A
C359   O395    1.294   .     A
C359   O396    1.301   .     A
C359   C361    1.464   .     S
C360   C372    1.394   .     A
C360   C764    1.405   1_554 S
C360   H295    1.084   1_655 S
C361   C372    1.398   .     A
C361   C371    1.398   .     A
C362   F375    1.358   .     S
C362   C363    1.387   .     A
C363   C761    1.390   .     S
C364   C366    1.419   .     A
C364   C761    1.417   .     S
C364   C763    1.426   .     S
C365   H385    1.077   .     S
C365   C760    1.417   1_554 S
C365   C759    1.390   1_554 S
C366   C370    1.414   .     A
C367   C371    1.402   .     A
C367   C760    1.426   1_554 S
C367   C764    1.419   1_554 S
C368   C369    1.392   .     A
C368   C763    1.419   .     S
C368   C756    1.405   .     S
C369   H382    1.084   .     S
C369   C370    1.388   .     A
C370   H377    1.080   .     S
C371   H384    1.077   .     S
C372   H376    1.083   .     S
Cu373  O391    1.941   .     S
Cu373  N388    2.018   .     S
Cu373  O393    1.952   .     S
Cu373  Cu374   2.686   .     S
Cu373  O395    1.920   .     S
Cu373  O389    1.956   .     S
Cu374  O392    1.920   .     S
Cu374  N387    2.018   .     S
Cu374  O394    1.956   .     S
Cu374  O396    1.941   .     S
Cu374  O390    1.952   .     S
H379   C93     1.088   1_565 S
H381   N300    1.029   1_655 S
H386   C275    1.083   1_655 S
N387   H292    1.029   1_655 S
N387   N300    1.285   1_655 S
C397   O433    1.291   .     A
C397   O434    1.285   .     A
C397   C399    1.428   .     S
C398   C400    1.479   .     S
C398   C410    1.425   .     A
C398   C406    1.408   .     A
C399   C533    1.328   .     S
C399   H554    1.088   .     S
C400   O435    1.304   .     A
C400   O436    1.297   .     A
C401   C402    1.428   .     S
C401   C663    1.328   1_545 S
C401   H687    1.088   1_545 S
C402   O438    1.291   .     A
C402   O437    1.285   .     A
C403   O439    1.294   .     A
C403   O440    1.301   .     A
C403   C405    1.464   .     S
C404   C416    1.394   .     A
C404   H471    1.084   .     S
C405   C416    1.398   .     A
C405   C415    1.398   .     A
C406   F419    1.358   .     S
C406   C407    1.387   .     A
C407   C13     1.390   1_556 S
C407   H518    1.083   1_455 S
C408   C410    1.419   .     A
C408   C13     1.417   1_556 S
C408   C15     1.426   1_556 S
C409   H429    1.077   .     S
C410   C414    1.414   .     A
C411   C415    1.402   .     A
C412   C413    1.392   .     A
C412   C15     1.419   1_556 S
C412   C8      1.405   1_556 S
C413   H426    1.084   .     S
C413   C414    1.388   .     A
C414   H421    1.080   .     S
C415   H428    1.077   .     S
C416   H420    1.083   .     S
Cu417  O435    1.941   .     S
Cu417  N432    2.018   .     S
Cu417  O437    1.952   .     S
Cu417  Cu418   2.686   .     S
Cu417  O439    1.920   .     S
Cu417  O433    1.956   .     S
Cu418  O436    1.920   .     S
Cu418  N431    2.018   .     S
Cu418  O438    1.956   .     S
Cu418  O440    1.941   .     S
Cu418  O434    1.952   .     S
H422   C663    1.088   1_545 S
H423   C533    1.088   .     S
H424   N519    1.029   1_455 S
H425   N476    1.029   .     S
H427   C492    1.084   1_455 S
H430   C451    1.083   .     S
N431   H468    1.029   .     S
N431   N476    1.285   .     S
N432   N519    1.285   1_455 S
N432   H513    1.029   1_455 S
C441   O477    1.291   .     A
C441   O478    1.285   .     A
C441   C443    1.428   .     S
C442   C444    1.479   .     S
C442   C454    1.425   .     A
C442   C450    1.408   .     A
C443   C577    1.328   .     S
C443   H598    1.088   .     S
C444   O479    1.304   .     A
C444   O480    1.297   .     A
C445   C446    1.428   .     S
C445   C707    1.328   1_545 S
C445   H731    1.088   1_545 S
C446   O482    1.291   .     A
C446   O481    1.285   .     A
C447   O483    1.294   .     A
C447   O484    1.301   .     A
C447   C449    1.464   .     S
C448   C460    1.394   .     A
C448   H515    1.084   .     S
C449   C460    1.398   .     A
C449   C459    1.398   .     A
C450   F463    1.358   .     S
C450   C451    1.387   .     A
C451   C57     1.390   1_556 S
C452   C454    1.419   .     A
C452   C57     1.417   1_556 S
C452   C59     1.426   1_556 S
C453   H473    1.077   .     S
C454   C458    1.414   .     A
C455   C459    1.402   .     A
C456   C457    1.392   .     A
C456   C59     1.419   1_556 S
C456   C52     1.405   1_556 S
C457   H470    1.084   .     S
C457   C458    1.388   .     A
C458   H465    1.080   .     S
C459   H472    1.077   .     S
C460   H464    1.083   .     S
Cu461  O479    1.941   .     S
Cu461  N476    2.018   .     S
Cu461  O481    1.952   .     S
Cu461  Cu462   2.686   .     S
Cu461  O483    1.920   .     S
Cu461  O477    1.956   .     S
Cu462  O480    1.920   .     S
Cu462  N475    2.018   .     S
Cu462  O482    1.956   .     S
Cu462  O484    1.941   .     S
Cu462  O478    1.952   .     S
H466   C707    1.088   1_545 S
H467   C577    1.088   .     S
H469   N520    1.029   .     S
H474   C495    1.083   .     S
N475   H512    1.029   .     S
N475   N520    1.285   .     S
C485   O521    1.291   .     A
C485   O522    1.285   .     A
C485   C487    1.428   .     S
C486   C488    1.479   .     S
C486   C498    1.425   .     A
C486   C494    1.408   .     A
C487   C621    1.328   .     S
C487   H642    1.088   .     S
C488   O523    1.304   .     A
C488   O524    1.297   .     A
C489   C490    1.428   .     S
C489   C751    1.328   1_545 S
C489   H775    1.088   1_545 S
C490   O526    1.291   .     A
C490   O525    1.285   .     A
C491   O527    1.294   .     A
C491   O528    1.301   .     A
C491   C493    1.464   .     S
C492   C504    1.394   .     A
C492   H427    1.084   1_655 S
C493   C504    1.398   .     A
C493   C503    1.398   .     A
C494   F507    1.358   .     S
C494   C495    1.387   .     A
C495   C101    1.390   1_556 S
C496   C498    1.419   .     A
C496   C101    1.417   1_556 S
C496   C103    1.426   1_556 S
C497   H517    1.077   .     S
C498   C502    1.414   .     A
C499   C503    1.402   .     A
C500   C501    1.392   .     A
C500   C103    1.419   1_556 S
C500   C96     1.405   1_556 S
C501   H514    1.084   .     S
C501   C502    1.388   .     A
C502   H509    1.080   .     S
C503   H516    1.077   .     S
C504   H508    1.083   .     S
Cu505  O523    1.941   .     S
Cu505  N520    2.018   .     S
Cu505  O525    1.952   .     S
Cu505  Cu506   2.686   .     S
Cu505  O527    1.920   .     S
Cu505  O521    1.956   .     S
Cu506  O524    1.920   .     S
Cu506  N519    2.018   .     S
Cu506  O526    1.956   .     S
Cu506  O528    1.941   .     S
Cu506  O522    1.952   .     S
H510   C751    1.088   1_545 S
H511   C621    1.088   .     S
H513   N432    1.029   1_655 S
H518   C407    1.083   1_655 S
N519   H424    1.029   1_655 S
N519   N432    1.285   1_655 S
C529   O565    1.291   .     A
C529   O566    1.285   .     A
C529   C531    1.428   .     S
C530   C532    1.479   .     S
C530   C542    1.425   .     A
C530   C538    1.408   .     A
C531   C665    1.328   .     S
C531   H686    1.088   .     S
C532   O567    1.304   .     A
C532   O568    1.297   .     A
C533   C534    1.428   .     S
C534   O570    1.291   .     A
C534   O569    1.285   .     A
C535   O571    1.294   .     A
C535   O572    1.301   .     A
C535   C537    1.464   .     S
C536   C548    1.394   .     A
C536   H603    1.084   .     S
C537   C548    1.398   .     A
C537   C547    1.398   .     A
C538   F551    1.358   .     S
C538   C539    1.387   .     A
C539   C145    1.390   1_556 S
C539   H650    1.083   1_455 S
C540   C542    1.419   .     A
C540   C145    1.417   1_556 S
C540   C147    1.426   1_556 S
C541   H561    1.077   .     S
C542   C546    1.414   .     A
C543   C547    1.402   .     A
C544   C545    1.392   .     A
C544   C147    1.419   1_556 S
C544   C140    1.405   1_556 S
C545   H558    1.084   .     S
C545   C546    1.388   .     A
C546   H553    1.080   .     S
C547   H560    1.077   .     S
C548   H552    1.083   .     S
Cu549  O567    1.941   .     S
Cu549  N564    2.018   .     S
Cu549  O569    1.952   .     S
Cu549  Cu550   2.686   .     S
Cu549  O571    1.920   .     S
Cu549  O565    1.956   .     S
Cu550  O568    1.920   .     S
Cu550  N563    2.018   .     S
Cu550  O570    1.956   .     S
Cu550  O572    1.941   .     S
Cu550  O566    1.952   .     S
H555   C665    1.088   .     S
H556   N651    1.029   1_455 S
H557   N608    1.029   .     S
H559   C624    1.084   1_455 S
H562   C583    1.083   .     S
N563   H600    1.029   .     S
N563   N608    1.285   .     S
N564   N651    1.285   1_455 S
N564   H645    1.029   1_455 S
C573   O609    1.291   .     A
C573   O610    1.285   .     A
C573   C575    1.428   .     S
C574   C576    1.479   .     S
C574   C586    1.425   .     A
C574   C582    1.408   .     A
C575   C709    1.328   .     S
C575   H730    1.088   .     S
C576   O611    1.304   .     A
C576   O612    1.297   .     A
C577   C578    1.428   .     S
C578   O614    1.291   .     A
C578   O613    1.285   .     A
C579   O615    1.294   .     A
C579   O616    1.301   .     A
C579   C581    1.464   .     S
C580   C592    1.394   .     A
C580   H647    1.084   .     S
C581   C592    1.398   .     A
C581   C591    1.398   .     A
C582   F595    1.358   .     S
C582   C583    1.387   .     A
C583   C189    1.390   1_556 S
C584   C586    1.419   .     A
C584   C189    1.417   1_556 S
C584   C191    1.426   1_556 S
C585   H605    1.077   .     S
C586   C590    1.414   .     A
C587   C591    1.402   .     A
C588   C589    1.392   .     A
C588   C191    1.419   1_556 S
C588   C184    1.405   1_556 S
C589   H602    1.084   .     S
C589   C590    1.388   .     A
C590   H597    1.080   .     S
C591   H604    1.077   .     S
C592   H596    1.083   .     S
Cu593  O611    1.941   .     S
Cu593  N608    2.018   .     S
Cu593  O613    1.952   .     S
Cu593  Cu594   2.686   .     S
Cu593  O615    1.920   .     S
Cu593  O609    1.956   .     S
Cu594  O612    1.920   .     S
Cu594  N607    2.018   .     S
Cu594  O614    1.956   .     S
Cu594  O616    1.941   .     S
Cu594  O610    1.952   .     S
H599   C709    1.088   .     S
H601   N652    1.029   .     S
H606   C627    1.083   .     S
N607   H644    1.029   .     S
N607   N652    1.285   .     S
C617   O653    1.291   .     A
C617   O654    1.285   .     A
C617   C619    1.428   .     S
C618   C620    1.479   .     S
C618   C630    1.425   .     A
C618   C626    1.408   .     A
C619   C753    1.328   .     S
C619   H774    1.088   .     S
C620   O655    1.304   .     A
C620   O656    1.297   .     A
C621   C622    1.428   .     S
C622   O658    1.291   .     A
C622   O657    1.285   .     A
C623   O659    1.294   .     A
C623   O660    1.301   .     A
C623   C625    1.464   .     S
C624   C636    1.394   .     A
C624   H559    1.084   1_655 S
C625   C636    1.398   .     A
C625   C635    1.398   .     A
C626   F639    1.358   .     S
C626   C627    1.387   .     A
C627   C233    1.390   1_556 S
C628   C630    1.419   .     A
C628   C233    1.417   1_556 S
C628   C235    1.426   1_556 S
C629   H649    1.077   .     S
C630   C634    1.414   .     A
C631   C635    1.402   .     A
C632   C633    1.392   .     A
C632   C235    1.419   1_556 S
C632   C228    1.405   1_556 S
C633   H646    1.084   .     S
C633   C634    1.388   .     A
C634   H641    1.080   .     S
C635   H648    1.077   .     S
C636   H640    1.083   .     S
Cu637  O655    1.941   .     S
Cu637  N652    2.018   .     S
Cu637  O657    1.952   .     S
Cu637  Cu638   2.686   .     S
Cu637  O659    1.920   .     S
Cu637  O653    1.956   .     S
Cu638  O656    1.920   .     S
Cu638  N651    2.018   .     S
Cu638  O658    1.956   .     S
Cu638  O660    1.941   .     S
Cu638  O654    1.952   .     S
H643   C753    1.088   .     S
H645   N564    1.029   1_655 S
H650   C539    1.083   1_655 S
N651   H556    1.029   1_655 S
N651   N564    1.285   1_655 S
C661   O697    1.291   .     A
C661   O698    1.285   .     A
C661   C663    1.428   .     S
C662   C664    1.479   .     S
C662   C674    1.425   .     A
C662   C670    1.408   .     A
C663   C401    1.328   1_565 S
C663   H422    1.088   1_565 S
C664   O699    1.304   .     A
C664   O700    1.297   .     A
C665   C666    1.428   .     S
C666   O702    1.291   .     A
C666   O701    1.285   .     A
C667   O703    1.294   .     A
C667   O704    1.301   .     A
C667   C669    1.464   .     S
C668   C680    1.394   .     A
C668   H735    1.084   .     S
C669   C680    1.398   .     A
C669   C679    1.398   .     A
C670   F683    1.358   .     S
C670   C671    1.387   .     A
C671   C277    1.390   1_556 S
C671   H782    1.083   1_455 S
C672   C674    1.419   .     A
C672   C277    1.417   1_556 S
C672   C279    1.426   1_556 S
C673   H693    1.077   .     S
C674   C678    1.414   .     A
C675   C679    1.402   .     A
C676   C677    1.392   .     A
C676   C279    1.419   1_556 S
C676   C272    1.405   1_556 S
C677   H690    1.084   .     S
C677   C678    1.388   .     A
C678   H685    1.080   .     S
C679   H692    1.077   .     S
C680   H684    1.083   .     S
Cu681  O699    1.941   .     S
Cu681  N696    2.018   .     S
Cu681  O701    1.952   .     S
Cu681  Cu682   2.686   .     S
Cu681  O703    1.920   .     S
Cu681  O697    1.956   .     S
Cu682  O700    1.920   .     S
Cu682  N695    2.018   .     S
Cu682  O702    1.956   .     S
Cu682  O704    1.941   .     S
Cu682  O698    1.952   .     S
H687   C401    1.088   1_565 S
H688   N783    1.029   1_455 S
H689   N740    1.029   .     S
H691   C756    1.084   1_455 S
H694   C715    1.083   .     S
N695   H732    1.029   .     S
N695   N740    1.285   .     S
N696   N783    1.285   1_455 S
N696   H777    1.029   1_455 S
C705   O741    1.291   .     A
C705   O742    1.285   .     A
C705   C707    1.428   .     S
C706   C708    1.479   .     S
C706   C718    1.425   .     A
C706   C714    1.408   .     A
C707   C445    1.328   1_565 S
C707   H466    1.088   1_565 S
C708   O743    1.304   .     A
C708   O744    1.297   .     A
C709   C710    1.428   .     S
C710   O746    1.291   .     A
C710   O745    1.285   .     A
C711   O747    1.294   .     A
C711   O748    1.301   .     A
C711   C713    1.464   .     S
C712   C724    1.394   .     A
C712   H779    1.084   .     S
C713   C724    1.398   .     A
C713   C723    1.398   .     A
C714   F727    1.358   .     S
C714   C715    1.387   .     A
C715   C321    1.390   1_556 S
C716   C718    1.419   .     A
C716   C321    1.417   1_556 S
C716   C323    1.426   1_556 S
C717   H737    1.077   .     S
C718   C722    1.414   .     A
C719   C723    1.402   .     A
C720   C721    1.392   .     A
C720   C323    1.419   1_556 S
C720   C316    1.405   1_556 S
C721   H734    1.084   .     S
C721   C722    1.388   .     A
C722   H729    1.080   .     S
C723   H736    1.077   .     S
C724   H728    1.083   .     S
Cu725  O743    1.941   .     S
Cu725  N740    2.018   .     S
Cu725  O745    1.952   .     S
Cu725  Cu726   2.686   .     S
Cu725  O747    1.920   .     S
Cu725  O741    1.956   .     S
Cu726  O744    1.920   .     S
Cu726  N739    2.018   .     S
Cu726  O746    1.956   .     S
Cu726  O748    1.941   .     S
Cu726  O742    1.952   .     S
H731   C445    1.088   1_565 S
H733   N784    1.029   .     S
H738   C759    1.083   .     S
N739   H776    1.029   .     S
N739   N784    1.285   .     S
C749   O785    1.291   .     A
C749   O786    1.285   .     A
C749   C751    1.428   .     S
C750   C752    1.479   .     S
C750   C762    1.425   .     A
C750   C758    1.408   .     A
C751   C489    1.328   1_565 S
C751   H510    1.088   1_565 S
C752   O787    1.304   .     A
C752   O788    1.297   .     A
C753   C754    1.428   .     S
C754   O790    1.291   .     A
C754   O789    1.285   .     A
C755   O791    1.294   .     A
C755   O792    1.301   .     A
C755   C757    1.464   .     S
C756   C768    1.394   .     A
C756   H691    1.084   1_655 S
C757   C768    1.398   .     A
C757   C767    1.398   .     A
C758   F771    1.358   .     S
C758   C759    1.387   .     A
C759   C365    1.390   1_556 S
C760   C762    1.419   .     A
C760   C365    1.417   1_556 S
C760   C367    1.426   1_556 S
C761   H781    1.077   .     S
C762   C766    1.414   .     A
C763   C767    1.402   .     A
C764   C765    1.392   .     A
C764   C367    1.419   1_556 S
C764   C360    1.405   1_556 S
C765   H778    1.084   .     S
C765   C766    1.388   .     A
C766   H773    1.080   .     S
C767   H780    1.077   .     S
C768   H772    1.083   .     S
Cu769  O787    1.941   .     S
Cu769  N784    2.018   .     S
Cu769  O789    1.952   .     S
Cu769  Cu770   2.686   .     S
Cu769  O791    1.920   .     S
Cu769  O785    1.956   .     S
Cu770  O788    1.920   .     S
Cu770  N783    2.018   .     S
Cu770  O790    1.956   .     S
Cu770  O792    1.941   .     S
Cu770  O786    1.952   .     S
H775   C489    1.088   1_565 S
H777   N696    1.029   1_655 S
H782   C671    1.083   1_655 S
N783   H688    1.029   1_655 S
N783   N696    1.285   1_655 S
