data_str_m1_o2_o5_pcu_sym.40
_audit_creation_date              2020-01-03
_audit_creation_method            'Materials Studio'
_symmetry_space_group_name_H-M    'P1'
_symmetry_Int_Tables_number       1
_symmetry_cell_setting            triclinic
loop_
_symmetry_equiv_pos_as_xyz
  x,y,z
_cell_length_a                    24.4345
_cell_length_b                    24.4344
_cell_length_c                    22.4421
_cell_angle_alpha                 90.0000
_cell_angle_beta                  90.0000
_cell_angle_gamma                 90.0000
loop_
_atom_site_label
_atom_site_type_symbol
_atom_site_fract_x
_atom_site_fract_y
_atom_site_fract_z
_atom_site_U_iso_or_equiv
_atom_site_adp_type
_atom_site_occupancy
C1     C     0.22866   0.27134   0.25000   0.00000  Uiso   1.00
C2     C     0.22868   0.72868   0.25000   0.00000  Uiso   1.00
C3     C     0.20163   0.63405   0.26442   0.00000  Uiso   1.00
C4     C     0.34205   0.17776   0.69822   0.00000  Uiso   1.00
C5     C     0.63405   0.79837   0.26442   0.00000  Uiso   1.00
C6     C     0.17776   0.65796   0.69822   0.00000  Uiso   1.00
C7     C     0.79837   0.36595   0.26442   0.00000  Uiso   1.00
C8     C     0.34205   0.82224   0.30178   0.00000  Uiso   1.00
C9     C     0.63405   0.20163   0.73559   0.00000  Uiso   1.00
C10    C     0.17776   0.34205   0.30178   0.00000  Uiso   1.00
C11    C     0.79837   0.63405   0.73559   0.00000  Uiso   1.00
C12    C     0.65796   0.17776   0.30178   0.00000  Uiso   1.00
C13    C     0.72866   0.77134   0.75000   0.00000  Uiso   1.00
C14    C     0.36595   0.79837   0.73558   0.00000  Uiso   1.00
C15    C     0.82224   0.65796   0.30178   0.00000  Uiso   1.00
C16    C     0.20163   0.36595   0.73559   0.00000  Uiso   1.00
C17    C     0.14759   0.35242   0.25000   0.00000  Uiso   1.00
C18    C     0.85246   0.64754   0.75000   0.00000  Uiso   1.00
C19    C     0.35242   0.85242   0.25000   0.00000  Uiso   1.00
C20    C     0.64754   0.14754   0.75000   0.00000  Uiso   1.00
C21    C     0.85242   0.64759   0.25000   0.00000  Uiso   1.00
C22    C     0.14754   0.35246   0.75000   0.00000  Uiso   1.00
C23    C     0.64759   0.14759   0.25000   0.00000  Uiso   1.00
C24    C     0.27132   0.22868   0.25000   0.00000  Uiso   1.00
C25    C     0.35246   0.85246   0.75000   0.00000  Uiso   1.00
C26    C     0.85242   0.35242   0.75000   0.00000  Uiso   1.00
C27    C     0.14754   0.64754   0.25000   0.00000  Uiso   1.00
C28    C     0.64759   0.85242   0.75000   0.00000  Uiso   1.00
C29    C     0.35246   0.14754   0.25000   0.00000  Uiso   1.00
C30    C     0.14759   0.64759   0.75000   0.00000  Uiso   1.00
C31    C     0.85246   0.35246   0.25000   0.00000  Uiso   1.00
C32    C     0.35242   0.14759   0.75000   0.00000  Uiso   1.00
C33    C     0.64754   0.85246   0.25000   0.00000  Uiso   1.00
C34    C     0.22543   0.28922   0.09860   0.00000  Uiso   1.00
C35    C     0.22866   0.72866   0.75000   0.00000  Uiso   1.00
C36    C     0.86221   0.82032   0.72415   0.00000  Uiso   1.00
C37    C     0.28922   0.77457   0.09860   0.00000  Uiso   1.00
C38    C     0.82032   0.13779   0.72415   0.00000  Uiso   1.00
C39    C     0.77457   0.71078   0.09860   0.00000  Uiso   1.00
C40    C     0.13779   0.17968   0.72415   0.00000  Uiso   1.00
C41    C     0.71078   0.22543   0.09860   0.00000  Uiso   1.00
C42    C     0.17968   0.86221   0.72415   0.00000  Uiso   1.00
C43    C     0.77457   0.28922   0.90140   0.00000  Uiso   1.00
C44    C     0.13779   0.82032   0.27585   0.00000  Uiso   1.00
C45    C     0.71078   0.77457   0.90140   0.00000  Uiso   1.00
C46    C     0.77132   0.27132   0.25000   0.00000  Uiso   1.00
C47    C     0.17968   0.13779   0.27585   0.00000  Uiso   1.00
C48    C     0.22543   0.71078   0.90140   0.00000  Uiso   1.00
C49    C     0.86221   0.17968   0.27585   0.00000  Uiso   1.00
C50    C     0.28922   0.22543   0.90140   0.00000  Uiso   1.00
C51    C     0.82032   0.86221   0.27585   0.00000  Uiso   1.00
C52    C     0.72543   0.78922   0.59860   0.00000  Uiso   1.00
C53    C     0.36221   0.32032   0.22415   0.00000  Uiso   1.00
C54    C     0.78922   0.27457   0.59860   0.00000  Uiso   1.00
C55    C     0.32032   0.63779   0.22415   0.00000  Uiso   1.00
C56    C     0.27457   0.21078   0.59860   0.00000  Uiso   1.00
C57    C     0.27134   0.22866   0.75000   0.00000  Uiso   1.00
C58    C     0.63779   0.67968   0.22415   0.00000  Uiso   1.00
C59    C     0.21078   0.72543   0.59860   0.00000  Uiso   1.00
C60    C     0.67968   0.36221   0.22415   0.00000  Uiso   1.00
C61    C     0.27457   0.78922   0.40140   0.00000  Uiso   1.00
C62    C     0.63779   0.32032   0.77585   0.00000  Uiso   1.00
C63    C     0.21078   0.27457   0.40140   0.00000  Uiso   1.00
C64    C     0.67968   0.63779   0.77585   0.00000  Uiso   1.00
C65    C     0.72543   0.21078   0.40140   0.00000  Uiso   1.00
C66    C     0.36221   0.67968   0.77585   0.00000  Uiso   1.00
C67    C     0.78922   0.72543   0.40140   0.00000  Uiso   1.00
C68    C     0.72868   0.77132   0.25000   0.00000  Uiso   1.00
C69    C     0.32032   0.36221   0.77585   0.00000  Uiso   1.00
C70    C     0.00000   0.50000   0.47332   0.00000  Uiso   1.00
C71    C     0.00000   0.50000   0.52668   0.00000  Uiso   1.00
C72    C     0.50000   0.00000   0.47332   0.00000  Uiso   1.00
C73    C     0.77132   0.72868   0.75000   0.00000  Uiso   1.00
C74    C     0.50000   0.00000   0.52668   0.00000  Uiso   1.00
C75    C     0.50000   0.00000   0.97332   0.00000  Uiso   1.00
C76    C     0.50000   0.00000   0.02668   0.00000  Uiso   1.00
C77    C     0.00000   0.50000   0.97332   0.00000  Uiso   1.00
C78    C     0.00000   0.50000   0.02668   0.00000  Uiso   1.00
C79    C     0.00000   0.50000   0.09000   0.00000  Uiso   1.00
C80    C     0.00000   0.50000   0.91000   0.00000  Uiso   1.00
C81    C     0.50000   0.00000   0.09000   0.00000  Uiso   1.00
C82    C     0.50000   0.00000   0.91000   0.00000  Uiso   1.00
C83    C     0.50000   0.00000   0.59000   0.00000  Uiso   1.00
C84    C     0.27134   0.77134   0.25000   0.00000  Uiso   1.00
C85    C     0.50000   0.00000   0.41000   0.00000  Uiso   1.00
C86    C     0.00000   0.50000   0.59000   0.00000  Uiso   1.00
C87    C     0.00000   0.50000   0.41000   0.00000  Uiso   1.00
C88    C     0.10520   0.60520   0.25000   0.00000  Uiso   1.00
C89    C     0.89479   0.39479   0.75000   0.00000  Uiso   1.00
C90    C     0.60520   0.89480   0.25000   0.00000  Uiso   1.00
C91    C     0.39479   0.10521   0.75000   0.00000  Uiso   1.00
C92    C     0.89480   0.39480   0.25000   0.00000  Uiso   1.00
C93    C     0.10521   0.60521   0.75000   0.00000  Uiso   1.00
C94    C     0.39480   0.10520   0.25000   0.00000  Uiso   1.00
C95    C     0.72868   0.22868   0.75000   0.00000  Uiso   1.00
C96    C     0.60521   0.89479   0.75000   0.00000  Uiso   1.00
C97    C     0.89480   0.60520   0.75000   0.00000  Uiso   1.00
C98    C     0.10521   0.39479   0.25000   0.00000  Uiso   1.00
C99    C     0.39480   0.89480   0.75000   0.00000  Uiso   1.00
C100   C     0.60521   0.10521   0.25000   0.00000  Uiso   1.00
C101   C     0.10520   0.39480   0.75000   0.00000  Uiso   1.00
C102   C     0.89479   0.60521   0.25000   0.00000  Uiso   1.00
C103   C     0.60520   0.10520   0.75000   0.00000  Uiso   1.00
C104   C     0.39479   0.89479   0.25000   0.00000  Uiso   1.00
C105   C     0.20005   0.28319   0.19703   0.00000  Uiso   1.00
C106   C     0.77134   0.72866   0.25000   0.00000  Uiso   1.00
C107   C     0.82607   0.74262   0.76260   0.00000  Uiso   1.00
C108   C     0.28319   0.79995   0.19703   0.00000  Uiso   1.00
C109   C     0.74262   0.17393   0.76260   0.00000  Uiso   1.00
C110   C     0.79995   0.71681   0.19703   0.00000  Uiso   1.00
C111   C     0.17393   0.25738   0.76260   0.00000  Uiso   1.00
C112   C     0.71681   0.20005   0.19703   0.00000  Uiso   1.00
C113   C     0.25738   0.82607   0.76260   0.00000  Uiso   1.00
C114   C     0.79995   0.28319   0.80297   0.00000  Uiso   1.00
C115   C     0.17393   0.74262   0.23740   0.00000  Uiso   1.00
C116   C     0.71681   0.79995   0.80297   0.00000  Uiso   1.00
C117   C     0.22868   0.27132   0.75000   0.00000  Uiso   1.00
C118   C     0.25738   0.17393   0.23740   0.00000  Uiso   1.00
C119   C     0.20005   0.71681   0.80297   0.00000  Uiso   1.00
C120   C     0.82607   0.25738   0.23740   0.00000  Uiso   1.00
C121   C     0.28319   0.20005   0.80297   0.00000  Uiso   1.00
C122   C     0.74262   0.82607   0.23740   0.00000  Uiso   1.00
C123   C     0.70005   0.78319   0.69703   0.00000  Uiso   1.00
C124   C     0.32607   0.24262   0.26260   0.00000  Uiso   1.00
C125   C     0.78319   0.29995   0.69703   0.00000  Uiso   1.00
C126   C     0.24262   0.67393   0.26260   0.00000  Uiso   1.00
C127   C     0.29995   0.21681   0.69703   0.00000  Uiso   1.00
C128   C     0.72866   0.22866   0.25000   0.00000  Uiso   1.00
C129   C     0.67393   0.75738   0.26260   0.00000  Uiso   1.00
C130   C     0.21681   0.70005   0.69703   0.00000  Uiso   1.00
C131   C     0.75738   0.32607   0.26260   0.00000  Uiso   1.00
C132   C     0.29995   0.78319   0.30297   0.00000  Uiso   1.00
C133   C     0.67393   0.24262   0.73740   0.00000  Uiso   1.00
C134   C     0.21681   0.29995   0.30297   0.00000  Uiso   1.00
C135   C     0.75738   0.67393   0.73740   0.00000  Uiso   1.00
C136   C     0.70005   0.21681   0.30297   0.00000  Uiso   1.00
C137   C     0.32607   0.75738   0.73740   0.00000  Uiso   1.00
C138   C     0.78319   0.70005   0.30297   0.00000  Uiso   1.00
C139   C     0.27132   0.77132   0.75000   0.00000  Uiso   1.00
C140   C     0.24262   0.32607   0.73740   0.00000  Uiso   1.00
C141   C     0.15796   0.32224   0.19822   0.00000  Uiso   1.00
C142   C     0.86595   0.70164   0.76442   0.00000  Uiso   1.00
C143   C     0.32224   0.84205   0.19822   0.00000  Uiso   1.00
C144   C     0.70164   0.13405   0.76442   0.00000  Uiso   1.00
C145   C     0.84205   0.67776   0.19822   0.00000  Uiso   1.00
C146   C     0.13405   0.29837   0.76441   0.00000  Uiso   1.00
C147   C     0.67776   0.15796   0.19822   0.00000  Uiso   1.00
C148   C     0.29837   0.86595   0.76442   0.00000  Uiso   1.00
C149   C     0.84205   0.32224   0.80178   0.00000  Uiso   1.00
C150   C     0.77134   0.27134   0.75000   0.00000  Uiso   1.00
C151   C     0.13405   0.70163   0.23559   0.00000  Uiso   1.00
C152   C     0.67776   0.84205   0.80178   0.00000  Uiso   1.00
C153   C     0.29837   0.13405   0.23559   0.00000  Uiso   1.00
C154   C     0.15796   0.67776   0.80178   0.00000  Uiso   1.00
C155   C     0.86595   0.29837   0.23559   0.00000  Uiso   1.00
C156   C     0.32224   0.15796   0.80178   0.00000  Uiso   1.00
C157   C     0.70164   0.86595   0.23559   0.00000  Uiso   1.00
C158   C     0.65796   0.82224   0.69822   0.00000  Uiso   1.00
C159   C     0.36595   0.20163   0.26442   0.00000  Uiso   1.00
C160   C     0.82224   0.34205   0.69822   0.00000  Uiso   1.00
H1     H     0.13396   0.32978   0.15851   0.00000  Uiso   1.00
H2     H     0.09229   0.71246   0.22440   0.00000  Uiso   1.00
H3     H     0.19334   0.68803   0.57787   0.00000  Uiso   1.00
H4     H     0.23474   0.74694   0.56376   0.00000  Uiso   1.00
H5     H     0.68036   0.33233   0.18671   0.00000  Uiso   1.00
H6     H     0.69988   0.40110   0.21064   0.00000  Uiso   1.00
H7     H     0.63621   0.37161   0.23401   0.00000  Uiso   1.00
H8     H     0.24635   0.82252   0.38700   0.00000  Uiso   1.00
H9     H     0.31197   0.80666   0.42213   0.00000  Uiso   1.00
H10    H     0.25306   0.76526   0.43624   0.00000  Uiso   1.00
H11    H     0.66767   0.31964   0.81329   0.00000  Uiso   1.00
H12    H     0.59890   0.30012   0.78936   0.00000  Uiso   1.00
H13    H     0.67022   0.86604   0.84149   0.00000  Uiso   1.00
H14    H     0.62839   0.36379   0.76599   0.00000  Uiso   1.00
H15    H     0.17748   0.24635   0.38700   0.00000  Uiso   1.00
H16    H     0.19334   0.31197   0.42213   0.00000  Uiso   1.00
H17    H     0.23474   0.25306   0.43624   0.00000  Uiso   1.00
H18    H     0.68036   0.66767   0.81329   0.00000  Uiso   1.00
H19    H     0.69988   0.59890   0.78936   0.00000  Uiso   1.00
H20    H     0.63621   0.62839   0.76599   0.00000  Uiso   1.00
H21    H     0.75365   0.17748   0.38700   0.00000  Uiso   1.00
H22    H     0.68803   0.19334   0.42213   0.00000  Uiso   1.00
H23    H     0.74694   0.23474   0.43624   0.00000  Uiso   1.00
H24    H     0.28754   0.09229   0.22440   0.00000  Uiso   1.00
H25    H     0.33233   0.68036   0.81329   0.00000  Uiso   1.00
H26    H     0.40111   0.69988   0.78936   0.00000  Uiso   1.00
H27    H     0.37161   0.63621   0.76599   0.00000  Uiso   1.00
H28    H     0.82252   0.75365   0.38700   0.00000  Uiso   1.00
H29    H     0.80666   0.68803   0.42213   0.00000  Uiso   1.00
H30    H     0.76526   0.74694   0.43624   0.00000  Uiso   1.00
H31    H     0.31964   0.33233   0.81329   0.00000  Uiso   1.00
H32    H     0.30012   0.40110   0.78936   0.00000  Uiso   1.00
H33    H     0.36379   0.37161   0.76599   0.00000  Uiso   1.00
H34    H     0.13396   0.67022   0.84149   0.00000  Uiso   1.00
H35    H     0.90771   0.28754   0.22440   0.00000  Uiso   1.00
H36    H     0.32978   0.13396   0.84149   0.00000  Uiso   1.00
H37    H     0.71247   0.90771   0.22440   0.00000  Uiso   1.00
H38    H     0.63396   0.82978   0.65851   0.00000  Uiso   1.00
H39    H     0.40771   0.21247   0.27560   0.00000  Uiso   1.00
H40    H     0.82978   0.36604   0.65851   0.00000  Uiso   1.00
H41    H     0.90771   0.71247   0.77560   0.00000  Uiso   1.00
H42    H     0.21247   0.59229   0.27560   0.00000  Uiso   1.00
H43    H     0.36604   0.17022   0.65851   0.00000  Uiso   1.00
H44    H     0.59229   0.78754   0.27560   0.00000  Uiso   1.00
H45    H     0.17022   0.63396   0.65851   0.00000  Uiso   1.00
H46    H     0.78754   0.40771   0.27560   0.00000  Uiso   1.00
H47    H     0.36604   0.82978   0.34149   0.00000  Uiso   1.00
H48    H     0.59229   0.21247   0.72440   0.00000  Uiso   1.00
H49    H     0.17022   0.36604   0.34149   0.00000  Uiso   1.00
H50    H     0.78754   0.59229   0.72440   0.00000  Uiso   1.00
H51    H     0.63396   0.17022   0.34149   0.00000  Uiso   1.00
H52    H     0.32978   0.86604   0.15851   0.00000  Uiso   1.00
H53    H     0.40771   0.78754   0.72440   0.00000  Uiso   1.00
H54    H     0.82978   0.63396   0.34149   0.00000  Uiso   1.00
H55    H     0.21247   0.40771   0.72440   0.00000  Uiso   1.00
H56    H     0.25365   0.32252   0.11300   0.00000  Uiso   1.00
H57    H     0.18803   0.30666   0.07787   0.00000  Uiso   1.00
H58    H     0.24694   0.26526   0.06376   0.00000  Uiso   1.00
H59    H     0.83233   0.81964   0.68671   0.00000  Uiso   1.00
H60    H     0.90110   0.80012   0.71064   0.00000  Uiso   1.00
H61    H     0.87161   0.86379   0.73401   0.00000  Uiso   1.00
H62    H     0.32252   0.74635   0.11300   0.00000  Uiso   1.00
H63    H     0.71247   0.09229   0.77560   0.00000  Uiso   1.00
H64    H     0.30666   0.81197   0.07787   0.00000  Uiso   1.00
H65    H     0.26526   0.75306   0.06376   0.00000  Uiso   1.00
H66    H     0.81964   0.16767   0.68671   0.00000  Uiso   1.00
H67    H     0.80012   0.09890   0.71064   0.00000  Uiso   1.00
H68    H     0.86379   0.12839   0.73401   0.00000  Uiso   1.00
H69    H     0.74635   0.67748   0.11300   0.00000  Uiso   1.00
H70    H     0.81197   0.69334   0.07787   0.00000  Uiso   1.00
H71    H     0.75306   0.73474   0.06376   0.00000  Uiso   1.00
H72    H     0.16767   0.18036   0.68671   0.00000  Uiso   1.00
H73    H     0.09890   0.19988   0.71064   0.00000  Uiso   1.00
H74    H     0.86604   0.67022   0.15851   0.00000  Uiso   1.00
H75    H     0.12839   0.13621   0.73401   0.00000  Uiso   1.00
H76    H     0.67748   0.25365   0.11300   0.00000  Uiso   1.00
H77    H     0.69334   0.18803   0.07787   0.00000  Uiso   1.00
H78    H     0.73474   0.24694   0.06376   0.00000  Uiso   1.00
H79    H     0.18036   0.83233   0.68671   0.00000  Uiso   1.00
H80    H     0.19988   0.90110   0.71064   0.00000  Uiso   1.00
H81    H     0.13621   0.87161   0.73401   0.00000  Uiso   1.00
H82    H     0.74635   0.32252   0.88700   0.00000  Uiso   1.00
H83    H     0.81197   0.30666   0.92213   0.00000  Uiso   1.00
H84    H     0.75306   0.26526   0.93624   0.00000  Uiso   1.00
H85    H     0.09229   0.28754   0.77560   0.00000  Uiso   1.00
H86    H     0.16767   0.81964   0.31329   0.00000  Uiso   1.00
H87    H     0.09890   0.80012   0.28936   0.00000  Uiso   1.00
H88    H     0.12839   0.86379   0.26599   0.00000  Uiso   1.00
H89    H     0.67748   0.74635   0.88700   0.00000  Uiso   1.00
H90    H     0.69334   0.81197   0.92213   0.00000  Uiso   1.00
H91    H     0.73474   0.75306   0.93624   0.00000  Uiso   1.00
H92    H     0.18036   0.16767   0.31329   0.00000  Uiso   1.00
H93    H     0.19988   0.09890   0.28936   0.00000  Uiso   1.00
H94    H     0.13621   0.12839   0.26599   0.00000  Uiso   1.00
H95    H     0.25366   0.67748   0.88700   0.00000  Uiso   1.00
H96    H     0.67022   0.13396   0.15851   0.00000  Uiso   1.00
H97    H     0.18803   0.69334   0.92213   0.00000  Uiso   1.00
H98    H     0.24694   0.73474   0.93624   0.00000  Uiso   1.00
H99    H     0.83233   0.18036   0.31329   0.00000  Uiso   1.00
H100   H     0.90110   0.19988   0.28936   0.00000  Uiso   1.00
H101   H     0.87161   0.13621   0.26599   0.00000  Uiso   1.00
H102   H     0.32252   0.25365   0.88700   0.00000  Uiso   1.00
H103   H     0.30666   0.18803   0.92213   0.00000  Uiso   1.00
H104   H     0.26526   0.24694   0.93624   0.00000  Uiso   1.00
H105   H     0.81964   0.83233   0.31329   0.00000  Uiso   1.00
H106   H     0.80012   0.90110   0.28936   0.00000  Uiso   1.00
H107   H     0.28754   0.90771   0.77560   0.00000  Uiso   1.00
H108   H     0.86379   0.87161   0.26599   0.00000  Uiso   1.00
H109   H     0.75365   0.82252   0.61300   0.00000  Uiso   1.00
H110   H     0.68803   0.80666   0.57787   0.00000  Uiso   1.00
H111   H     0.74694   0.76526   0.56376   0.00000  Uiso   1.00
H112   H     0.33233   0.31964   0.18671   0.00000  Uiso   1.00
H113   H     0.40110   0.30012   0.21064   0.00000  Uiso   1.00
H114   H     0.37161   0.36379   0.23401   0.00000  Uiso   1.00
H115   H     0.82252   0.24635   0.61300   0.00000  Uiso   1.00
H116   H     0.80666   0.31197   0.57787   0.00000  Uiso   1.00
H117   H     0.76526   0.25306   0.56376   0.00000  Uiso   1.00
H118   H     0.86604   0.32978   0.84149   0.00000  Uiso   1.00
H119   H     0.31964   0.66767   0.18671   0.00000  Uiso   1.00
H120   H     0.30012   0.59890   0.21064   0.00000  Uiso   1.00
H121   H     0.36379   0.62839   0.23401   0.00000  Uiso   1.00
H122   H     0.24635   0.17748   0.61300   0.00000  Uiso   1.00
H123   H     0.31197   0.19334   0.57787   0.00000  Uiso   1.00
H124   H     0.25306   0.23474   0.56376   0.00000  Uiso   1.00
H125   H     0.66767   0.68036   0.18671   0.00000  Uiso   1.00
H126   H     0.59890   0.69988   0.21064   0.00000  Uiso   1.00
H127   H     0.62839   0.63621   0.23401   0.00000  Uiso   1.00
H128   H     0.17748   0.75365   0.61300   0.00000  Uiso   1.00
O1     O     0.00000   0.50000   0.25000   0.00000  Uiso   1.00
O2     O     0.00000   0.45454   0.88202   0.00000  Uiso   1.00
O3     O     0.54546   0.00000   0.11798   0.00000  Uiso   1.00
O4     O     0.45454   0.00000   0.88202   0.00000  Uiso   1.00
O5     O     0.50000   0.95454   0.61798   0.00000  Uiso   1.00
O6     O     0.50000   0.04546   0.38202   0.00000  Uiso   1.00
O7     O     0.95454   0.50000   0.61798   0.00000  Uiso   1.00
O8     O     0.04546   0.50000   0.38202   0.00000  Uiso   1.00
O9     O     0.50000   0.04546   0.61798   0.00000  Uiso   1.00
O10    O     0.50000   0.95454   0.38202   0.00000  Uiso   1.00
O11    O     0.04546   0.50000   0.61798   0.00000  Uiso   1.00
O12    O     0.00000   0.50000   0.75000   0.00000  Uiso   1.00
O13    O     0.95454   0.50000   0.38202   0.00000  Uiso   1.00
O14    O     0.06399   0.60947   0.21539   0.00000  Uiso   1.00
O15    O     0.93601   0.39053   0.78461   0.00000  Uiso   1.00
O16    O     0.60947   0.93601   0.21539   0.00000  Uiso   1.00
O17    O     0.39053   0.06399   0.78461   0.00000  Uiso   1.00
O18    O     0.93601   0.39053   0.21539   0.00000  Uiso   1.00
O19    O     0.06399   0.60947   0.78461   0.00000  Uiso   1.00
O20    O     0.39053   0.06399   0.21539   0.00000  Uiso   1.00
O21    O     0.60947   0.93601   0.78461   0.00000  Uiso   1.00
O22    O     0.93601   0.60947   0.78461   0.00000  Uiso   1.00
O23    O     0.50000   0.00000   0.25000   0.00000  Uiso   1.00
O24    O     0.06399   0.39053   0.21539   0.00000  Uiso   1.00
O25    O     0.39053   0.93601   0.78461   0.00000  Uiso   1.00
O26    O     0.60947   0.06399   0.21539   0.00000  Uiso   1.00
O27    O     0.06399   0.39053   0.78461   0.00000  Uiso   1.00
O28    O     0.93601   0.60947   0.21539   0.00000  Uiso   1.00
O29    O     0.60947   0.06399   0.78461   0.00000  Uiso   1.00
O30    O     0.39053   0.93601   0.21539   0.00000  Uiso   1.00
O31    O     0.56399   0.10947   0.71539   0.00000  Uiso   1.00
O32    O     0.43601   0.89053   0.28461   0.00000  Uiso   1.00
O33    O     0.10947   0.43601   0.71539   0.00000  Uiso   1.00
O34    O     0.50000   0.00000   0.75000   0.00000  Uiso   1.00
O35    O     0.89053   0.56399   0.28461   0.00000  Uiso   1.00
O36    O     0.43601   0.89053   0.71539   0.00000  Uiso   1.00
O37    O     0.56399   0.10947   0.28461   0.00000  Uiso   1.00
O38    O     0.89053   0.56399   0.71539   0.00000  Uiso   1.00
O39    O     0.10947   0.43601   0.28461   0.00000  Uiso   1.00
O40    O     0.43601   0.10947   0.28461   0.00000  Uiso   1.00
O41    O     0.56399   0.89053   0.71539   0.00000  Uiso   1.00
O42    O     0.89053   0.43601   0.28461   0.00000  Uiso   1.00
O43    O     0.10947   0.56399   0.71539   0.00000  Uiso   1.00
O44    O     0.56399   0.89053   0.28461   0.00000  Uiso   1.00
O45    O     0.00000   0.45454   0.11798   0.00000  Uiso   1.00
O46    O     0.43601   0.10947   0.71539   0.00000  Uiso   1.00
O47    O     0.10947   0.56399   0.28461   0.00000  Uiso   1.00
O48    O     0.89053   0.43601   0.71539   0.00000  Uiso   1.00
O49    O     0.21166   0.25357   0.14577   0.00000  Uiso   1.00
O50    O     0.84020   0.79604   0.77583   0.00000  Uiso   1.00
O51    O     0.25357   0.78834   0.14577   0.00000  Uiso   1.00
O52    O     0.79604   0.15980   0.77583   0.00000  Uiso   1.00
O53    O     0.78834   0.74643   0.14577   0.00000  Uiso   1.00
O54    O     0.15980   0.20396   0.77583   0.00000  Uiso   1.00
O55    O     0.74643   0.21166   0.14577   0.00000  Uiso   1.00
O56    O     0.00000   0.54546   0.88202   0.00000  Uiso   1.00
O57    O     0.20396   0.84020   0.77583   0.00000  Uiso   1.00
O58    O     0.78834   0.25357   0.85423   0.00000  Uiso   1.00
O59    O     0.15980   0.79604   0.22417   0.00000  Uiso   1.00
O60    O     0.74643   0.78834   0.85423   0.00000  Uiso   1.00
O61    O     0.20396   0.15980   0.22417   0.00000  Uiso   1.00
O62    O     0.21166   0.74643   0.85423   0.00000  Uiso   1.00
O63    O     0.84020   0.20396   0.22417   0.00000  Uiso   1.00
O64    O     0.25357   0.21166   0.85423   0.00000  Uiso   1.00
O65    O     0.79604   0.84020   0.22417   0.00000  Uiso   1.00
O66    O     0.71166   0.75357   0.64577   0.00000  Uiso   1.00
O67    O     0.45454   0.00000   0.11798   0.00000  Uiso   1.00
O68    O     0.34020   0.29604   0.27583   0.00000  Uiso   1.00
O69    O     0.75357   0.28834   0.64577   0.00000  Uiso   1.00
O70    O     0.29604   0.65980   0.27583   0.00000  Uiso   1.00
O71    O     0.28834   0.24643   0.64577   0.00000  Uiso   1.00
O72    O     0.65980   0.70396   0.27583   0.00000  Uiso   1.00
O73    O     0.24643   0.71166   0.64577   0.00000  Uiso   1.00
O74    O     0.70396   0.34020   0.27583   0.00000  Uiso   1.00
O75    O     0.28834   0.75357   0.35423   0.00000  Uiso   1.00
O76    O     0.65980   0.29604   0.72417   0.00000  Uiso   1.00
O77    O     0.24643   0.28834   0.35423   0.00000  Uiso   1.00
O78    O     0.54546   0.00000   0.88202   0.00000  Uiso   1.00
O79    O     0.70396   0.65980   0.72417   0.00000  Uiso   1.00
O80    O     0.71166   0.24643   0.35423   0.00000  Uiso   1.00
O81    O     0.34020   0.70396   0.72417   0.00000  Uiso   1.00
O82    O     0.75357   0.71166   0.35423   0.00000  Uiso   1.00
O83    O     0.29604   0.34020   0.72417   0.00000  Uiso   1.00
O84    O     0.00000   0.54546   0.11798   0.00000  Uiso   1.00
Zn1    Zn    0.06497   0.50000   0.29947   0.00000  Uiso   1.00
Zn2    Zn    0.43503   0.00000   0.20053   0.00000  Uiso   1.00
Zn3    Zn    0.00000   0.43503   0.79947   0.00000  Uiso   1.00
Zn4    Zn    0.00000   0.56497   0.20053   0.00000  Uiso   1.00
Zn5    Zn    0.43503   0.00000   0.79947   0.00000  Uiso   1.00
Zn6    Zn    0.56497   0.00000   0.20053   0.00000  Uiso   1.00
Zn7    Zn    0.00000   0.56497   0.79947   0.00000  Uiso   1.00
Zn8    Zn    0.00000   0.43503   0.20053   0.00000  Uiso   1.00
Zn9    Zn    0.93503   0.50000   0.70053   0.00000  Uiso   1.00
Zn10   Zn    0.50000   0.93503   0.29947   0.00000  Uiso   1.00
Zn11   Zn    0.50000   0.06497   0.70053   0.00000  Uiso   1.00
Zn12   Zn    0.93503   0.50000   0.29947   0.00000  Uiso   1.00
Zn13   Zn    0.06497   0.50000   0.70053   0.00000  Uiso   1.00
Zn14   Zn    0.50000   0.06497   0.29947   0.00000  Uiso   1.00
Zn15   Zn    0.50000   0.93503   0.70053   0.00000  Uiso   1.00
Zn16   Zn    0.56497   0.00000   0.79947   0.00000  Uiso   1.00
loop_
_geom_bond_atom_site_label_1
_geom_bond_atom_site_label_2
_geom_bond_distance
_geom_bond_site_symmetry_2
_ccdc_geom_bond_type
C1     C24     1.474   .     S
C1     C105    1.409   .     A
C1     C134    1.409   .     A
C2     C84     1.474   .     S
C2     C115    1.409   .     A
C2     C126    1.409   .     A
C3     C126    1.398   .     A
C3     H42     1.084   .     S
C3     C27     1.400   .     A
C4     C32     1.399   .     A
C4     C127    1.403   .     A
C4     H43     1.083   .     S
C5     H44     1.084   .     S
C5     C33     1.400   .     A
C5     C129    1.398   .     A
C6     H45     1.083   .     S
C6     C30     1.399   .     A
C6     C130    1.403   .     A
C7     H46     1.084   .     S
C7     C131    1.398   .     A
C7     C31     1.400   .     A
C8     C19     1.399   .     A
C8     H47     1.083   .     S
C8     C132    1.403   .     A
C9     C133    1.398   .     A
C9     C20     1.400   .     A
C9     H48     1.084   .     S
C10    C17     1.399   .     A
C10    H49     1.083   .     S
C10    C134    1.403   .     A
C11    C18     1.400   .     A
C11    H50     1.084   .     S
C11    C135    1.398   .     A
C12    C23     1.399   .     A
C12    H51     1.083   .     S
C12    C136    1.403   .     A
C13    C123    1.409   .     A
C13    C116    1.409   .     A
C13    C73     1.474   .     S
C14    H53     1.084   .     S
C14    C137    1.398   .     A
C14    C25     1.400   .     A
C15    C138    1.403   .     A
C15    H54     1.083   .     S
C15    C21     1.399   .     A
C16    H55     1.084   .     S
C16    C140    1.398   .     A
C16    C22     1.400   .     A
C17    C98     1.464   .     S
C17    C141    1.399   .     A
C18    C97     1.463   .     S
C18    C142    1.400   .     A
C19    C104    1.464   .     S
C19    C143    1.399   .     A
C20    C144    1.400   .     A
C20    C103    1.463   .     S
C21    C102    1.464   .     S
C21    C145    1.399   .     A
C22    C146    1.400   .     A
C22    C101    1.463   .     S
C23    C147    1.399   .     A
C23    C100    1.464   .     S
C24    C124    1.409   .     A
C24    C118    1.409   .     A
C25    C99     1.463   .     S
C25    C148    1.400   .     A
C26    C149    1.399   .     A
C26    C160    1.399   .     A
C26    C89     1.464   .     S
C27    C151    1.400   .     A
C27    C88     1.463   .     S
C28    C96     1.464   .     S
C28    C158    1.399   .     A
C28    C152    1.399   .     A
C29    C94     1.463   .     S
C29    C159    1.400   .     A
C29    C153    1.400   .     A
C30    C154    1.399   .     A
C30    C93     1.464   .     S
C31    C155    1.400   .     A
C31    C92     1.463   .     S
C32    C156    1.399   .     A
C32    C91     1.464   .     S
C33    C157    1.400   .     A
C33    C90     1.463   .     S
C34    H57     1.110   .     S
C34    O49     1.412   .     S
C34    H56     1.114   .     S
C34    H58     1.109   .     S
C35    C139    1.474   .     S
C35    C130    1.409   .     A
C35    C119    1.409   .     A
C36    O50     1.409   .     S
C36    H59     1.113   .     S
C36    H61     1.109   .     S
C36    H60     1.113   .     S
C37    H65     1.109   .     S
C37    H62     1.114   .     S
C37    O51     1.412   .     S
C37    H64     1.110   .     S
C38    H66     1.113   .     S
C38    O52     1.409   .     S
C38    H67     1.113   .     S
C38    H68     1.109   .     S
C39    H69     1.114   .     S
C39    H70     1.110   .     S
C39    O53     1.412   .     S
C39    H71     1.109   .     S
C40    H72     1.113   .     S
C40    H73     1.113   .     S
C40    H75     1.109   .     S
C40    O54     1.409   .     S
C41    H78     1.109   .     S
C41    H77     1.110   .     S
C41    H76     1.114   .     S
C41    O55     1.412   .     S
C42    H80     1.113   .     S
C42    H81     1.109   .     S
C42    O57     1.409   .     S
C42    H79     1.113   .     S
C43    H84     1.109   .     S
C43    H82     1.114   .     S
C43    H83     1.110   .     S
C43    O58     1.412   .     S
C44    O59     1.409   .     S
C44    H87     1.113   .     S
C44    H88     1.109   .     S
C44    H86     1.113   .     S
C45    H89     1.114   .     S
C45    H91     1.109   .     S
C45    O60     1.412   .     S
C45    H90     1.110   .     S
C46    C120    1.409   .     A
C46    C128    1.474   .     S
C46    C131    1.409   .     A
C47    H94     1.109   .     S
C47    O61     1.409   .     S
C47    H93     1.113   .     S
C47    H92     1.113   .     S
C48    H98     1.109   .     S
C48    H95     1.114   .     S
C48    H97     1.110   .     S
C48    O62     1.412   .     S
C49    O63     1.409   .     S
C49    H100    1.113   .     S
C49    H99     1.113   .     S
C49    H101    1.109   .     S
C50    H104    1.109   .     S
C50    H103    1.110   .     S
C50    O64     1.412   .     S
C50    H102    1.114   .     S
C51    H105    1.113   .     S
C51    O65     1.409   .     S
C51    H108    1.109   .     S
C51    H106    1.113   .     S
C52    H110    1.110   .     S
C52    O66     1.412   .     S
C52    H109    1.114   .     S
C52    H111    1.109   .     S
C53    H114    1.109   .     S
C53    H112    1.113   .     S
C53    H113    1.113   .     S
C53    O68     1.409   .     S
C54    H116    1.110   .     S
C54    O69     1.412   .     S
C54    H117    1.109   .     S
C54    H115    1.114   .     S
C55    H119    1.113   .     S
C55    O70     1.409   .     S
C55    H121    1.109   .     S
C55    H120    1.113   .     S
C56    H123    1.110   .     S
C56    H122    1.114   .     S
C56    H124    1.109   .     S
C56    O71     1.412   .     S
C57    C127    1.409   .     A
C57    C117    1.474   .     S
C57    C121    1.409   .     A
C58    H126    1.113   .     S
C58    O72     1.409   .     S
C58    H127    1.109   .     S
C58    H125    1.113   .     S
C59    H4      1.109   .     S
C59    H3      1.110   .     S
C59    H128    1.114   .     S
C59    O73     1.412   .     S
C60    H5      1.113   .     S
C60    H7      1.109   .     S
C60    H6      1.113   .     S
C60    O74     1.409   .     S
C61    H9      1.110   .     S
C61    H8      1.114   .     S
C61    O75     1.412   .     S
C61    H10     1.109   .     S
C62    H11     1.113   .     S
C62    O76     1.409   .     S
C62    H14     1.109   .     S
C62    H12     1.113   .     S
C63    O77     1.412   .     S
C63    H16     1.110   .     S
C63    H15     1.114   .     S
C63    H17     1.109   .     S
C64    O79     1.409   .     S
C64    H19     1.113   .     S
C64    H18     1.113   .     S
C64    H20     1.109   .     S
C65    O80     1.412   .     S
C65    H22     1.110   .     S
C65    H23     1.109   .     S
C65    H21     1.114   .     S
C66    H26     1.113   .     S
C66    H27     1.109   .     S
C66    H25     1.113   .     S
C66    O81     1.409   .     S
C67    H30     1.109   .     S
C67    H28     1.114   .     S
C67    O82     1.412   .     S
C67    H29     1.110   .     S
C68    C122    1.409   .     A
C68    C129    1.409   .     A
C68    C106    1.474   .     S
C69    H31     1.113   .     S
C69    H33     1.109   .     S
C69    H32     1.113   .     S
C69    O83     1.409   .     S
C70    C71     1.198   .     S
C70    C87     1.421   .     S
C71    C86     1.421   .     S
C72    C85     1.421   .     S
C72    C74     1.198   .     T
C73    C135    1.409   .     A
C73    C107    1.409   .     A
C74    C83     1.421   .     S
C75    C76     1.198   1_556 S
C75    C82     1.421   .     S
C76    C81     1.421   .     S
C76    C75     1.198   1_554 S
C77    C78     1.198   1_556 S
C77    C80     1.421   .     S
C78    C79     1.421   .     S
C78    C77     1.198   1_554 S
C79    O45     1.276   .     S
C79    O84     1.276   .     S
C80    O2      1.276   .     A
C80    O56     1.276   .     A
C81    O3      1.276   .     A
C81    O67     1.276   .     A
C82    O4      1.276   .     S
C82    O78     1.276   .     S
C83    O9      1.276   .     A
C83    O5      1.276   1_545 S
C84    C132    1.409   .     A
C84    C108    1.409   .     A
C85    O6      1.276   .     A
C85    O10     1.276   1_545 S
C86    O11     1.276   .     A
C86    O7      1.276   1_455 S
C87    O8      1.276   .     A
C87    O13     1.276   1_455 S
C88    O14     1.276   .     A
C88    O47     1.276   .     A
C89    O15     1.276   .     A
C89    O48     1.276   .     A
C90    O16     1.276   .     A
C90    O44     1.276   .     A
C91    O17     1.276   .     A
C91    O46     1.276   .     A
C92    O18     1.276   .     A
C92    O42     1.276   .     A
C93    O19     1.276   .     A
C93    O43     1.276   .     A
C94    O20     1.276   .     A
C94    O40     1.276   .     A
C95    C133    1.409   .     A
C95    C109    1.409   .     A
C95    C150    1.474   .     S
C96    O21     1.276   .     A
C96    O41     1.276   .     A
C97    O22     1.276   .     A
C97    O38     1.276   .     A
C98    O39     1.276   .     A
C98    O24     1.276   .     A
C99    O36     1.276   .     A
C99    O25     1.276   .     A
C100   O37     1.276   .     A
C100   O26     1.276   .     A
C101   O27     1.276   .     A
C101   O33     1.276   .     A
C102   O28     1.276   .     A
C102   O35     1.276   .     A
C103   O31     1.276   .     A
C103   O29     1.276   .     A
C104   O30     1.276   .     A
C104   O32     1.276   .     A
C105   O49     1.388   .     S
C105   C141    1.403   .     A
C106   C138    1.409   .     A
C106   C110    1.409   .     A
C107   O50     1.382   .     S
C107   C142    1.398   .     A
C108   O51     1.388   .     S
C108   C143    1.403   .     A
C109   C144    1.398   .     A
C109   O52     1.382   .     S
C110   C145    1.403   .     A
C110   O53     1.388   .     S
C111   C146    1.398   .     A
C111   C117    1.409   .     A
C111   O54     1.382   .     S
C112   C147    1.403   .     A
C112   C128    1.409   .     A
C112   O55     1.388   .     S
C113   C148    1.398   .     A
C113   C139    1.409   .     A
C113   O57     1.382   .     S
C114   O58     1.388   .     S
C114   C150    1.409   .     A
C114   C149    1.403   .     A
C115   C151    1.398   .     A
C115   O59     1.382   .     S
C116   O60     1.388   .     S
C116   C152    1.403   .     A
C117   C140    1.409   .     A
C118   C153    1.398   .     A
C118   O61     1.382   .     S
C119   O62     1.388   .     S
C119   C154    1.403   .     A
C120   O63     1.382   .     S
C120   C155    1.398   .     A
C121   C156    1.403   .     A
C121   O64     1.388   .     S
C122   C157    1.398   .     A
C122   O65     1.382   .     S
C123   O66     1.388   .     S
C123   C158    1.403   .     A
C124   O68     1.382   .     S
C124   C159    1.398   .     A
C125   C150    1.409   .     A
C125   O69     1.388   .     S
C125   C160    1.403   .     A
C126   O70     1.382   .     S
C127   O71     1.388   .     S
C128   C136    1.409   .     A
C129   O72     1.382   .     S
C130   O73     1.388   .     S
C131   O74     1.382   .     S
C132   O75     1.388   .     S
C133   O76     1.382   .     S
C134   O77     1.388   .     S
C135   O79     1.382   .     S
C136   O80     1.388   .     S
C137   O81     1.382   .     S
C137   C139    1.409   .     A
C138   O82     1.388   .     S
C140   O83     1.382   .     S
C141   H1      1.083   .     S
C142   H41     1.084   .     S
C143   H52     1.083   .     S
C144   H63     1.084   .     S
C145   H74     1.083   .     S
C146   H85     1.084   .     S
C147   H96     1.083   .     S
C148   H107    1.084   .     S
C149   H118    1.083   .     S
C151   H2      1.084   .     S
C152   H13     1.083   .     S
C153   H24     1.084   .     S
C154   H34     1.083   .     S
C155   H35     1.084   .     S
C156   H36     1.083   .     S
C157   H37     1.084   .     S
C158   H38     1.083   .     S
C159   H39     1.084   .     S
C160   H40     1.083   .     S
O1     Zn8     1.937   .     S
O1     Zn1     1.937   .     S
O1     Zn4     1.937   .     S
O1     Zn12    1.937   1_455 S
O2     Zn3     1.913   .     S
O3     Zn6     1.913   .     S
O4     Zn5     1.913   .     S
O5     Zn15    1.913   .     S
O5     C83     1.276   1_565 S
O6     Zn14    1.913   .     S
O7     Zn9     1.913   .     S
O7     C86     1.276   1_655 S
O8     Zn1     1.913   .     S
O9     Zn11    1.913   .     S
O10    Zn10    1.913   .     S
O10    C85     1.276   1_565 S
O11    Zn13    1.913   .     S
O12    Zn3     1.937   .     S
O12    Zn7     1.937   .     S
O12    Zn9     1.937   1_455 S
O12    Zn13    1.937   .     S
O13    Zn12    1.913   .     S
O13    C87     1.276   1_655 S
O14    Zn4     1.933   .     S
O15    Zn3     1.933   1_655 S
O16    Zn6     1.933   1_565 S
O17    Zn5     1.933   .     S
O18    Zn8     1.933   1_655 S
O19    Zn7     1.933   .     S
O20    Zn2     1.933   .     S
O21    Zn16    1.933   1_565 S
O22    Zn7     1.933   1_655 S
O23    Zn6     1.937   .     S
O23    Zn2     1.937   .     S
O23    Zn14    1.937   .     S
O23    Zn10    1.937   1_545 S
O24    Zn8     1.933   .     S
O25    Zn5     1.933   1_565 S
O26    Zn6     1.933   .     S
O27    Zn3     1.933   .     S
O28    Zn4     1.933   1_655 S
O29    Zn16    1.933   .     S
O30    Zn2     1.933   1_565 S
O31    Zn11    1.933   .     S
O32    Zn10    1.933   .     S
O33    Zn13    1.933   .     S
O34    Zn16    1.937   .     S
O34    Zn15    1.937   1_545 S
O34    Zn5     1.937   .     S
O34    Zn11    1.937   .     S
O35    Zn12    1.933   .     S
O36    Zn15    1.933   .     S
O37    Zn14    1.933   .     S
O38    Zn9     1.933   .     S
O39    Zn1     1.933   .     S
O40    Zn14    1.933   .     S
O41    Zn15    1.933   .     S
O42    Zn12    1.933   .     S
O43    Zn13    1.933   .     S
O44    Zn10    1.933   .     S
O45    Zn8     1.913   .     S
O46    Zn11    1.933   .     S
O47    Zn1     1.933   .     S
O48    Zn9     1.933   .     S
O56    Zn7     1.913   .     S
O67    Zn2     1.913   .     S
O78    Zn16    1.913   .     S
O84    Zn4     1.913   .     S
Zn2    O30     1.933   1_545 S
Zn3    O15     1.933   1_455 S
Zn4    O28     1.933   1_455 S
Zn5    O25     1.933   1_545 S
Zn6    O16     1.933   1_545 S
Zn7    O22     1.933   1_455 S
Zn8    O18     1.933   1_455 S
Zn9    O12     1.937   1_655 S
Zn10   O23     1.937   1_565 S
Zn12   O1      1.937   1_655 S
Zn15   O34     1.937   1_565 S
Zn16   O21     1.933   1_545 S
