data_str_m3_o1_o18_pcu_sym.205
_audit_creation_date              2020-01-03
_audit_creation_method            'Materials Studio'
_symmetry_space_group_name_H-M    'P1'
_symmetry_Int_Tables_number       1
_symmetry_cell_setting            triclinic
loop_
_symmetry_equiv_pos_as_xyz
  x,y,z
_cell_length_a                    29.7144
_cell_length_b                    32.1187
_cell_length_c                    31.0558
_cell_angle_alpha                 91.1070
_cell_angle_beta                  67.2467
_cell_angle_gamma                 89.2283
loop_
_atom_site_label
_atom_site_type_symbol
_atom_site_fract_x
_atom_site_fract_y
_atom_site_fract_z
_atom_site_U_iso_or_equiv
_atom_site_adp_type
_atom_site_occupancy
O1     O     0.12846   0.22775   0.25000   0.00000  Uiso   1.00
O2     O     0.20488   0.10558   0.25000   0.00000  Uiso   1.00
O3     O     0.20490   0.22774   0.25000   0.00000  Uiso   1.00
O4     O     0.12843   0.10559   0.25000   0.00000  Uiso   1.00
C5     C     0.16636   0.24665   0.25031   0.00000  Uiso   1.00
C6     C     0.16693   0.08669   0.24977   0.00000  Uiso   1.00
O7     O     0.10661   0.16667   0.31613   0.00000  Uiso   1.00
O8     O     0.22672   0.16666   0.18388   0.00000  Uiso   1.00
O9     O     0.18305   0.16666   0.31612   0.00000  Uiso   1.00
O10    O     0.15028   0.16667   0.18388   0.00000  Uiso   1.00
C11    C     0.13608   0.16734   0.33807   0.00000  Uiso   1.00
C12    C     0.19729   0.16679   0.16197   0.00000  Uiso   1.00
Zn13   Zn    0.11562   0.16667   0.25000   0.00000  Uiso   1.00
Zn14   Zn    0.21771   0.16666   0.25000   0.00000  Uiso   1.00
C15    C     0.11788   0.17449   0.38859   0.00000  Uiso   1.00
C16    C     0.21653   0.16795   0.11108   0.00000  Uiso   1.00
C17    C     0.06187   0.20885   0.45973   0.00000  Uiso   1.00
C18    C     0.27973   0.15297   0.03484   0.00000  Uiso   1.00
C19    C     0.07282   0.19408   0.41393   0.00000  Uiso   1.00
C20    C     0.26447   0.15564   0.08342   0.00000  Uiso   1.00
C21    C     0.15078   0.16754   0.40973   0.00000  Uiso   1.00
C22    C     0.18473   0.18024   0.09026   0.00000  Uiso   1.00
C23    C     0.14267   0.18428   0.45388   0.00000  Uiso   1.00
C24    C     0.19914   0.17955   0.04183   0.00000  Uiso   1.00
C25    C     0.09662   0.20346   0.48007   0.00000  Uiso   1.00
C26    C     0.24716   0.16493   0.01383   0.00000  Uiso   1.00
C27    C     0.17887   0.18097   0.47296   0.00000  Uiso   1.00
C28    C     0.16581   0.19042   0.02094   0.00000  Uiso   1.00
C29    C     0.11979   0.21001   0.04633   0.00000  Uiso   1.00
C30    C     0.22787   0.16915   0.44538   0.00000  Uiso   1.00
C31    C     0.08618   0.21679   0.02600   0.00000  Uiso   1.00
C32    C     0.26149   0.16184   0.46548   0.00000  Uiso   1.00
H33    H     0.05160   0.23209   0.04676   0.00000  Uiso   1.00
H34    H     0.29839   0.15231   0.44299   0.00000  Uiso   1.00
H35    H     0.14779   0.18857   0.11285   0.00000  Uiso   1.00
H36    H     0.18316   0.14895   0.39062   0.00000  Uiso   1.00
H37    H     0.28973   0.14705   0.09930   0.00000  Uiso   1.00
H38    H     0.04637   0.19833   0.39833   0.00000  Uiso   1.00
H39    H     0.10916   0.22180   0.08170   0.00000  Uiso   1.00
H40    H     0.24159   0.16621   0.40781   0.00000  Uiso   1.00
C41    C     0.20125   0.31179   0.26188   0.00000  Uiso   1.00
C42    C     0.13191   0.02154   0.23845   0.00000  Uiso   1.00
H43    H     0.22806   0.29535   0.27131   0.00000  Uiso   1.00
H44    H     0.10509   0.03797   0.22902   0.00000  Uiso   1.00
C45    C     0.20177   0.02110   0.26131   0.00000  Uiso   1.00
C46    C     0.13139   0.31224   0.23900   0.00000  Uiso   1.00
H47    H     0.22883   0.03719   0.27040   0.00000  Uiso   1.00
H48    H     0.10433   0.29615   0.22991   0.00000  Uiso   1.00
C49    C     0.16708   0.04250   0.24965   0.00000  Uiso   1.00
C50    C     0.16613   0.29083   0.25060   0.00000  Uiso   1.00
C51    C     0.32491   0.14790   0.21399   0.00000  Uiso   1.00
C52    C     0.00845   0.18555   0.28592   0.00000  Uiso   1.00
C53    C     0.03915   0.14835   0.21418   0.00000  Uiso   1.00
C54    C     0.29417   0.18497   0.28583   0.00000  Uiso   1.00
H55    H     0.06934   0.13335   0.18584   0.00000  Uiso   1.00
H56    H     0.26399   0.20000   0.31415   0.00000  Uiso   1.00
N57    N     0.04759   0.16668   0.25001   0.00000  Uiso   1.00
N58    N     0.28574   0.16666   0.24999   0.00000  Uiso   1.00
O59    O     0.01522   0.22363   0.48644   0.00000  Uiso   1.00
C60    C     0.00885   0.26462   0.47408   0.00000  Uiso   1.00
H61    H     0.02107   0.26775   0.43553   0.00000  Uiso   1.00
H62    H     0.02969   0.28623   0.48747   0.00000  Uiso   1.00
C63    C     0.28779   0.27624   0.49664   0.00000  Uiso   1.00
H64    H     0.26752   0.25648   0.48077   0.00000  Uiso   1.00
H65    H     0.27384   0.27012   0.03466   0.00000  Uiso   1.00
C66    C     0.27813   0.32195   0.49009   0.00000  Uiso   1.00
H67    H     0.29470   0.00878   0.00916   0.00000  Uiso   1.00
H68    H     0.23816   0.32848   0.00444   0.00000  Uiso   1.00
H69    H     0.29344   0.32941   0.45243   0.00000  Uiso   1.00
O70    O     0.32776   0.14224   0.00783   0.00000  Uiso   1.00
C71    C     0.00078   0.09861   0.00576   0.00000  Uiso   1.00
H72    H     0.31156   0.08396   0.48836   0.00000  Uiso   1.00
H73    H     0.32401   0.08596   0.04138   0.00000  Uiso   1.00
C74    C     0.05462   0.08811   0.47711   0.00000  Uiso   1.00
H75    H     0.06535   0.10119   0.44174   0.00000  Uiso   1.00
H76    H     0.07729   0.10261   0.49438   0.00000  Uiso   1.00
C77    C     0.06477   0.04124   0.47206   0.00000  Uiso   1.00
H78    H     0.05307   0.02710   0.00696   0.00000  Uiso   1.00
H79    H     0.10451   0.03504   0.45299   0.00000  Uiso   1.00
H80    H     0.04518   0.02662   0.45184   0.00000  Uiso   1.00
C81    C     0.31993   0.12646   0.17381   0.00000  Uiso   1.00
H82    H     0.01468   0.12985   0.13915   0.00000  Uiso   1.00
O83    O     0.28720   0.10224   0.17896   0.00000  Uiso   1.00
C84    C     0.01357   0.20755   0.32570   0.00000  Uiso   1.00
H85    H     0.31909   0.20433   0.36051   0.00000  Uiso   1.00
O86    O     0.04607   0.23212   0.32000   0.00000  Uiso   1.00
O87    O     0.46179   0.22775   0.25000   0.00000  Uiso   1.00
O88    O     0.53821   0.10558   0.25000   0.00000  Uiso   1.00
O89    O     0.53823   0.22774   0.25000   0.00000  Uiso   1.00
O90    O     0.46177   0.10559   0.25000   0.00000  Uiso   1.00
C91    C     0.49970   0.24665   0.25031   0.00000  Uiso   1.00
C92    C     0.50027   0.08669   0.24977   0.00000  Uiso   1.00
O93    O     0.43994   0.16667   0.31613   0.00000  Uiso   1.00
O94    O     0.56006   0.16666   0.18388   0.00000  Uiso   1.00
O95    O     0.51639   0.16666   0.31612   0.00000  Uiso   1.00
O96    O     0.48361   0.16667   0.18388   0.00000  Uiso   1.00
C97    C     0.46941   0.16734   0.33807   0.00000  Uiso   1.00
C98    C     0.53062   0.16679   0.16197   0.00000  Uiso   1.00
Zn99   Zn    0.44896   0.16667   0.25000   0.00000  Uiso   1.00
Zn100  Zn    0.55104   0.16666   0.25000   0.00000  Uiso   1.00
C101   C     0.45121   0.17449   0.38859   0.00000  Uiso   1.00
C102   C     0.54986   0.16795   0.11108   0.00000  Uiso   1.00
C103   C     0.39521   0.20885   0.45973   0.00000  Uiso   1.00
C104   C     0.61306   0.15297   0.03484   0.00000  Uiso   1.00
C105   C     0.40615   0.19408   0.41393   0.00000  Uiso   1.00
C106   C     0.59781   0.15564   0.08342   0.00000  Uiso   1.00
C107   C     0.48411   0.16754   0.40973   0.00000  Uiso   1.00
C108   C     0.51806   0.18024   0.09026   0.00000  Uiso   1.00
C109   C     0.47601   0.18428   0.45388   0.00000  Uiso   1.00
C110   C     0.53247   0.17955   0.04183   0.00000  Uiso   1.00
C111   C     0.42995   0.20346   0.48007   0.00000  Uiso   1.00
C112   C     0.58049   0.16493   0.01383   0.00000  Uiso   1.00
C113   C     0.51220   0.18097   0.47296   0.00000  Uiso   1.00
C114   C     0.49915   0.19042   0.02094   0.00000  Uiso   1.00
C115   C     0.45313   0.21001   0.04633   0.00000  Uiso   1.00
C116   C     0.56120   0.16915   0.44538   0.00000  Uiso   1.00
C117   C     0.41951   0.21679   0.02600   0.00000  Uiso   1.00
C118   C     0.59482   0.16184   0.46548   0.00000  Uiso   1.00
H119   H     0.38494   0.23209   0.04676   0.00000  Uiso   1.00
H120   H     0.63172   0.15231   0.44299   0.00000  Uiso   1.00
H121   H     0.48112   0.18857   0.11285   0.00000  Uiso   1.00
H122   H     0.51649   0.14895   0.39062   0.00000  Uiso   1.00
H123   H     0.62307   0.14705   0.09930   0.00000  Uiso   1.00
H124   H     0.37970   0.19833   0.39833   0.00000  Uiso   1.00
H125   H     0.44249   0.22180   0.08170   0.00000  Uiso   1.00
H126   H     0.57493   0.16621   0.40781   0.00000  Uiso   1.00
C127   C     0.53458   0.31179   0.26188   0.00000  Uiso   1.00
C128   C     0.46525   0.02154   0.23845   0.00000  Uiso   1.00
H129   H     0.56139   0.29535   0.27131   0.00000  Uiso   1.00
H130   H     0.43843   0.03797   0.22902   0.00000  Uiso   1.00
C131   C     0.53511   0.02110   0.26131   0.00000  Uiso   1.00
C132   C     0.46472   0.31224   0.23900   0.00000  Uiso   1.00
H133   H     0.56216   0.03719   0.27040   0.00000  Uiso   1.00
H134   H     0.43767   0.29615   0.22991   0.00000  Uiso   1.00
C135   C     0.50041   0.04250   0.24965   0.00000  Uiso   1.00
C136   C     0.49946   0.29083   0.25060   0.00000  Uiso   1.00
C137   C     0.65824   0.14790   0.21399   0.00000  Uiso   1.00
C138   C     0.34178   0.18555   0.28592   0.00000  Uiso   1.00
C139   C     0.37249   0.14835   0.21418   0.00000  Uiso   1.00
C140   C     0.62751   0.18497   0.28583   0.00000  Uiso   1.00
H141   H     0.40267   0.13335   0.18584   0.00000  Uiso   1.00
H142   H     0.59733   0.20000   0.31415   0.00000  Uiso   1.00
N143   N     0.38093   0.16668   0.25001   0.00000  Uiso   1.00
N144   N     0.61907   0.16666   0.24999   0.00000  Uiso   1.00
O145   O     0.34855   0.22363   0.48644   0.00000  Uiso   1.00
C146   C     0.34218   0.26462   0.47408   0.00000  Uiso   1.00
H147   H     0.35441   0.26775   0.43553   0.00000  Uiso   1.00
H148   H     0.36303   0.28623   0.48747   0.00000  Uiso   1.00
C149   C     0.62113   0.27624   0.49664   0.00000  Uiso   1.00
H150   H     0.60086   0.25648   0.48077   0.00000  Uiso   1.00
H151   H     0.60717   0.27012   0.03466   0.00000  Uiso   1.00
C152   C     0.61146   0.32195   0.49009   0.00000  Uiso   1.00
H153   H     0.62803   0.00878   0.00916   0.00000  Uiso   1.00
H154   H     0.57150   0.32848   0.00444   0.00000  Uiso   1.00
H155   H     0.62678   0.32941   0.45243   0.00000  Uiso   1.00
O156   O     0.66110   0.14224   0.00783   0.00000  Uiso   1.00
C157   C     0.33412   0.09861   0.00576   0.00000  Uiso   1.00
H158   H     0.64489   0.08396   0.48836   0.00000  Uiso   1.00
H159   H     0.65735   0.08596   0.04138   0.00000  Uiso   1.00
C160   C     0.38796   0.08811   0.47711   0.00000  Uiso   1.00
H161   H     0.39868   0.10119   0.44174   0.00000  Uiso   1.00
H162   H     0.41062   0.10261   0.49438   0.00000  Uiso   1.00
C163   C     0.39810   0.04124   0.47206   0.00000  Uiso   1.00
H164   H     0.38640   0.02710   0.00696   0.00000  Uiso   1.00
H165   H     0.43784   0.03504   0.45299   0.00000  Uiso   1.00
H166   H     0.37851   0.02662   0.45184   0.00000  Uiso   1.00
C167   C     0.65327   0.12646   0.17381   0.00000  Uiso   1.00
H168   H     0.34802   0.12985   0.13915   0.00000  Uiso   1.00
O169   O     0.62054   0.10224   0.17896   0.00000  Uiso   1.00
C170   C     0.34691   0.20755   0.32570   0.00000  Uiso   1.00
H171   H     0.65243   0.20433   0.36051   0.00000  Uiso   1.00
O172   O     0.37941   0.23212   0.32000   0.00000  Uiso   1.00
O173   O     0.79512   0.22775   0.25000   0.00000  Uiso   1.00
O174   O     0.87154   0.10558   0.25000   0.00000  Uiso   1.00
O175   O     0.87157   0.22774   0.25000   0.00000  Uiso   1.00
O176   O     0.79510   0.10559   0.25000   0.00000  Uiso   1.00
C177   C     0.83303   0.24665   0.25031   0.00000  Uiso   1.00
C178   C     0.83360   0.08669   0.24977   0.00000  Uiso   1.00
O179   O     0.77328   0.16667   0.31613   0.00000  Uiso   1.00
O180   O     0.89339   0.16666   0.18388   0.00000  Uiso   1.00
O181   O     0.84972   0.16666   0.31612   0.00000  Uiso   1.00
O182   O     0.81695   0.16667   0.18388   0.00000  Uiso   1.00
C183   C     0.80275   0.16734   0.33807   0.00000  Uiso   1.00
C184   C     0.86396   0.16679   0.16197   0.00000  Uiso   1.00
Zn185  Zn    0.78229   0.16667   0.25000   0.00000  Uiso   1.00
Zn186  Zn    0.88438   0.16666   0.25000   0.00000  Uiso   1.00
C187   C     0.78454   0.17449   0.38859   0.00000  Uiso   1.00
C188   C     0.88320   0.16795   0.11108   0.00000  Uiso   1.00
C189   C     0.72854   0.20885   0.45973   0.00000  Uiso   1.00
C190   C     0.94640   0.15297   0.03484   0.00000  Uiso   1.00
C191   C     0.73948   0.19408   0.41393   0.00000  Uiso   1.00
C192   C     0.93114   0.15564   0.08342   0.00000  Uiso   1.00
C193   C     0.81745   0.16754   0.40973   0.00000  Uiso   1.00
C194   C     0.85139   0.18024   0.09026   0.00000  Uiso   1.00
C195   C     0.80934   0.18428   0.45388   0.00000  Uiso   1.00
C196   C     0.86580   0.17955   0.04183   0.00000  Uiso   1.00
C197   C     0.76329   0.20346   0.48007   0.00000  Uiso   1.00
C198   C     0.91382   0.16493   0.01383   0.00000  Uiso   1.00
C199   C     0.84553   0.18097   0.47296   0.00000  Uiso   1.00
C200   C     0.83248   0.19042   0.02094   0.00000  Uiso   1.00
C201   C     0.78646   0.21001   0.04633   0.00000  Uiso   1.00
C202   C     0.89453   0.16915   0.44538   0.00000  Uiso   1.00
C203   C     0.75284   0.21679   0.02600   0.00000  Uiso   1.00
C204   C     0.92816   0.16184   0.46548   0.00000  Uiso   1.00
H205   H     0.71827   0.23209   0.04676   0.00000  Uiso   1.00
H206   H     0.96506   0.15231   0.44299   0.00000  Uiso   1.00
H207   H     0.81446   0.18857   0.11285   0.00000  Uiso   1.00
H208   H     0.84983   0.14895   0.39062   0.00000  Uiso   1.00
H209   H     0.95640   0.14705   0.09930   0.00000  Uiso   1.00
H210   H     0.71304   0.19833   0.39833   0.00000  Uiso   1.00
H211   H     0.77582   0.22180   0.08170   0.00000  Uiso   1.00
H212   H     0.90826   0.16621   0.40781   0.00000  Uiso   1.00
C213   C     0.86791   0.31179   0.26188   0.00000  Uiso   1.00
C214   C     0.79858   0.02154   0.23845   0.00000  Uiso   1.00
H215   H     0.89473   0.29535   0.27131   0.00000  Uiso   1.00
H216   H     0.77176   0.03797   0.22902   0.00000  Uiso   1.00
C217   C     0.86844   0.02110   0.26131   0.00000  Uiso   1.00
C218   C     0.79806   0.31224   0.23900   0.00000  Uiso   1.00
H219   H     0.89550   0.03719   0.27040   0.00000  Uiso   1.00
H220   H     0.77100   0.29615   0.22991   0.00000  Uiso   1.00
C221   C     0.83375   0.04250   0.24965   0.00000  Uiso   1.00
C222   C     0.83279   0.29083   0.25060   0.00000  Uiso   1.00
C223   C     0.99157   0.14790   0.21399   0.00000  Uiso   1.00
C224   C     0.67512   0.18555   0.28592   0.00000  Uiso   1.00
C225   C     0.70582   0.14835   0.21418   0.00000  Uiso   1.00
C226   C     0.96084   0.18497   0.28583   0.00000  Uiso   1.00
H227   H     0.73601   0.13335   0.18584   0.00000  Uiso   1.00
H228   H     0.93066   0.20000   0.31415   0.00000  Uiso   1.00
N229   N     0.71426   0.16668   0.25001   0.00000  Uiso   1.00
N230   N     0.95241   0.16666   0.24999   0.00000  Uiso   1.00
O231   O     0.68189   0.22363   0.48644   0.00000  Uiso   1.00
C232   C     0.67551   0.26462   0.47408   0.00000  Uiso   1.00
H233   H     0.68774   0.26775   0.43553   0.00000  Uiso   1.00
H234   H     0.69636   0.28623   0.48747   0.00000  Uiso   1.00
C235   C     0.95446   0.27624   0.49664   0.00000  Uiso   1.00
H236   H     0.93419   0.25648   0.48077   0.00000  Uiso   1.00
H237   H     0.94050   0.27012   0.03466   0.00000  Uiso   1.00
C238   C     0.94479   0.32195   0.49009   0.00000  Uiso   1.00
H239   H     0.96136   0.00878   0.00916   0.00000  Uiso   1.00
H240   H     0.90483   0.32848   0.00444   0.00000  Uiso   1.00
H241   H     0.96011   0.32941   0.45243   0.00000  Uiso   1.00
O242   O     0.99443   0.14224   0.00783   0.00000  Uiso   1.00
C243   C     0.66745   0.09861   0.00576   0.00000  Uiso   1.00
H244   H     0.97823   0.08396   0.48836   0.00000  Uiso   1.00
H245   H     0.99068   0.08596   0.04138   0.00000  Uiso   1.00
C246   C     0.72129   0.08811   0.47711   0.00000  Uiso   1.00
H247   H     0.73201   0.10119   0.44174   0.00000  Uiso   1.00
H248   H     0.74395   0.10261   0.49438   0.00000  Uiso   1.00
C249   C     0.73144   0.04124   0.47206   0.00000  Uiso   1.00
H250   H     0.71973   0.02710   0.00696   0.00000  Uiso   1.00
H251   H     0.77118   0.03504   0.45299   0.00000  Uiso   1.00
H252   H     0.71185   0.02662   0.45184   0.00000  Uiso   1.00
C253   C     0.98660   0.12646   0.17381   0.00000  Uiso   1.00
H254   H     0.68135   0.12985   0.13915   0.00000  Uiso   1.00
O255   O     0.95387   0.10224   0.17896   0.00000  Uiso   1.00
C256   C     0.68024   0.20755   0.32570   0.00000  Uiso   1.00
H257   H     0.98576   0.20433   0.36051   0.00000  Uiso   1.00
O258   O     0.71274   0.23212   0.32000   0.00000  Uiso   1.00
O259   O     0.12846   0.56108   0.25000   0.00000  Uiso   1.00
O260   O     0.20488   0.43892   0.25000   0.00000  Uiso   1.00
O261   O     0.20490   0.56107   0.25000   0.00000  Uiso   1.00
O262   O     0.12843   0.43893   0.25000   0.00000  Uiso   1.00
C263   C     0.16636   0.57998   0.25031   0.00000  Uiso   1.00
C264   C     0.16693   0.42002   0.24977   0.00000  Uiso   1.00
O265   O     0.10661   0.50001   0.31613   0.00000  Uiso   1.00
O266   O     0.22672   0.49999   0.18388   0.00000  Uiso   1.00
O267   O     0.18305   0.50000   0.31612   0.00000  Uiso   1.00
O268   O     0.15028   0.50000   0.18388   0.00000  Uiso   1.00
C269   C     0.13608   0.50067   0.33807   0.00000  Uiso   1.00
C270   C     0.19729   0.50013   0.16197   0.00000  Uiso   1.00
Zn271  Zn    0.11562   0.50001   0.25000   0.00000  Uiso   1.00
Zn272  Zn    0.21771   0.49999   0.25000   0.00000  Uiso   1.00
C273   C     0.11788   0.50782   0.38859   0.00000  Uiso   1.00
C274   C     0.21653   0.50128   0.11108   0.00000  Uiso   1.00
C275   C     0.06187   0.54219   0.45973   0.00000  Uiso   1.00
C276   C     0.27973   0.48630   0.03484   0.00000  Uiso   1.00
C277   C     0.07282   0.52742   0.41393   0.00000  Uiso   1.00
C278   C     0.26447   0.48897   0.08342   0.00000  Uiso   1.00
C279   C     0.15078   0.50088   0.40973   0.00000  Uiso   1.00
C280   C     0.18473   0.51357   0.09026   0.00000  Uiso   1.00
C281   C     0.14267   0.51761   0.45388   0.00000  Uiso   1.00
C282   C     0.19914   0.51288   0.04183   0.00000  Uiso   1.00
C283   C     0.09662   0.53679   0.48007   0.00000  Uiso   1.00
C284   C     0.24716   0.49826   0.01383   0.00000  Uiso   1.00
C285   C     0.17887   0.51430   0.47296   0.00000  Uiso   1.00
C286   C     0.16581   0.52375   0.02094   0.00000  Uiso   1.00
C287   C     0.11979   0.54335   0.04633   0.00000  Uiso   1.00
C288   C     0.22787   0.50248   0.44538   0.00000  Uiso   1.00
C289   C     0.08618   0.55013   0.02600   0.00000  Uiso   1.00
C290   C     0.26149   0.49517   0.46548   0.00000  Uiso   1.00
H291   H     0.05160   0.56542   0.04676   0.00000  Uiso   1.00
H292   H     0.29839   0.48565   0.44299   0.00000  Uiso   1.00
H293   H     0.14779   0.52190   0.11285   0.00000  Uiso   1.00
H294   H     0.18316   0.48229   0.39062   0.00000  Uiso   1.00
H295   H     0.28973   0.48039   0.09930   0.00000  Uiso   1.00
H296   H     0.04637   0.53167   0.39833   0.00000  Uiso   1.00
H297   H     0.10916   0.55514   0.08170   0.00000  Uiso   1.00
H298   H     0.24159   0.49954   0.40781   0.00000  Uiso   1.00
C299   C     0.20125   0.64512   0.26188   0.00000  Uiso   1.00
C300   C     0.13191   0.35488   0.23845   0.00000  Uiso   1.00
H301   H     0.22806   0.62868   0.27131   0.00000  Uiso   1.00
H302   H     0.10509   0.37131   0.22902   0.00000  Uiso   1.00
C303   C     0.20177   0.35443   0.26131   0.00000  Uiso   1.00
C304   C     0.13139   0.64557   0.23900   0.00000  Uiso   1.00
H305   H     0.22883   0.37053   0.27040   0.00000  Uiso   1.00
H306   H     0.10433   0.62948   0.22991   0.00000  Uiso   1.00
C307   C     0.16708   0.37583   0.24965   0.00000  Uiso   1.00
C308   C     0.16613   0.62417   0.25060   0.00000  Uiso   1.00
C309   C     0.32491   0.48124   0.21399   0.00000  Uiso   1.00
C310   C     0.00845   0.51888   0.28592   0.00000  Uiso   1.00
C311   C     0.03915   0.48169   0.21418   0.00000  Uiso   1.00
C312   C     0.29417   0.51830   0.28583   0.00000  Uiso   1.00
H313   H     0.06934   0.46669   0.18584   0.00000  Uiso   1.00
H314   H     0.26399   0.53333   0.31415   0.00000  Uiso   1.00
N315   N     0.04759   0.50001   0.25001   0.00000  Uiso   1.00
N316   N     0.28574   0.49999   0.24999   0.00000  Uiso   1.00
O317   O     0.01522   0.55696   0.48644   0.00000  Uiso   1.00
C318   C     0.00885   0.59796   0.47408   0.00000  Uiso   1.00
H319   H     0.02107   0.60108   0.43553   0.00000  Uiso   1.00
H320   H     0.02969   0.61956   0.48747   0.00000  Uiso   1.00
C321   C     0.28779   0.60957   0.49664   0.00000  Uiso   1.00
H322   H     0.26752   0.58982   0.48077   0.00000  Uiso   1.00
H323   H     0.27384   0.60346   0.03466   0.00000  Uiso   1.00
C324   C     0.27813   0.65529   0.49009   0.00000  Uiso   1.00
H325   H     0.29470   0.34211   0.00916   0.00000  Uiso   1.00
H326   H     0.23816   0.66182   0.00444   0.00000  Uiso   1.00
H327   H     0.29344   0.66274   0.45243   0.00000  Uiso   1.00
O328   O     0.32776   0.47558   0.00783   0.00000  Uiso   1.00
C329   C     0.00078   0.43194   0.00576   0.00000  Uiso   1.00
H330   H     0.31156   0.41729   0.48836   0.00000  Uiso   1.00
H331   H     0.32401   0.41930   0.04138   0.00000  Uiso   1.00
C332   C     0.05462   0.42144   0.47711   0.00000  Uiso   1.00
H333   H     0.06535   0.43452   0.44174   0.00000  Uiso   1.00
H334   H     0.07729   0.43594   0.49438   0.00000  Uiso   1.00
C335   C     0.06477   0.37457   0.47206   0.00000  Uiso   1.00
H336   H     0.05307   0.36044   0.00696   0.00000  Uiso   1.00
H337   H     0.10451   0.36837   0.45299   0.00000  Uiso   1.00
H338   H     0.04518   0.35996   0.45184   0.00000  Uiso   1.00
C339   C     0.31993   0.45979   0.17381   0.00000  Uiso   1.00
H340   H     0.01468   0.46318   0.13915   0.00000  Uiso   1.00
O341   O     0.28720   0.43557   0.17896   0.00000  Uiso   1.00
C342   C     0.01357   0.54088   0.32570   0.00000  Uiso   1.00
H343   H     0.31909   0.53767   0.36051   0.00000  Uiso   1.00
O344   O     0.04607   0.56546   0.32000   0.00000  Uiso   1.00
O345   O     0.46179   0.56108   0.25000   0.00000  Uiso   1.00
O346   O     0.53821   0.43892   0.25000   0.00000  Uiso   1.00
O347   O     0.53823   0.56107   0.25000   0.00000  Uiso   1.00
O348   O     0.46177   0.43893   0.25000   0.00000  Uiso   1.00
C349   C     0.49970   0.57998   0.25031   0.00000  Uiso   1.00
C350   C     0.50027   0.42002   0.24977   0.00000  Uiso   1.00
O351   O     0.43994   0.50001   0.31613   0.00000  Uiso   1.00
O352   O     0.56006   0.49999   0.18388   0.00000  Uiso   1.00
O353   O     0.51639   0.50000   0.31612   0.00000  Uiso   1.00
O354   O     0.48361   0.50000   0.18388   0.00000  Uiso   1.00
C355   C     0.46941   0.50067   0.33807   0.00000  Uiso   1.00
C356   C     0.53062   0.50013   0.16197   0.00000  Uiso   1.00
Zn357  Zn    0.44896   0.50001   0.25000   0.00000  Uiso   1.00
Zn358  Zn    0.55104   0.49999   0.25000   0.00000  Uiso   1.00
C359   C     0.45121   0.50782   0.38859   0.00000  Uiso   1.00
C360   C     0.54986   0.50128   0.11108   0.00000  Uiso   1.00
C361   C     0.39521   0.54219   0.45973   0.00000  Uiso   1.00
C362   C     0.61306   0.48630   0.03484   0.00000  Uiso   1.00
C363   C     0.40615   0.52742   0.41393   0.00000  Uiso   1.00
C364   C     0.59781   0.48897   0.08342   0.00000  Uiso   1.00
C365   C     0.48411   0.50088   0.40973   0.00000  Uiso   1.00
C366   C     0.51806   0.51357   0.09026   0.00000  Uiso   1.00
C367   C     0.47601   0.51761   0.45388   0.00000  Uiso   1.00
C368   C     0.53247   0.51288   0.04183   0.00000  Uiso   1.00
C369   C     0.42995   0.53679   0.48007   0.00000  Uiso   1.00
C370   C     0.58049   0.49826   0.01383   0.00000  Uiso   1.00
C371   C     0.51220   0.51430   0.47296   0.00000  Uiso   1.00
C372   C     0.49915   0.52375   0.02094   0.00000  Uiso   1.00
C373   C     0.45313   0.54335   0.04633   0.00000  Uiso   1.00
C374   C     0.56120   0.50248   0.44538   0.00000  Uiso   1.00
C375   C     0.41951   0.55013   0.02600   0.00000  Uiso   1.00
C376   C     0.59482   0.49517   0.46548   0.00000  Uiso   1.00
H377   H     0.38494   0.56542   0.04676   0.00000  Uiso   1.00
H378   H     0.63172   0.48565   0.44299   0.00000  Uiso   1.00
H379   H     0.48112   0.52190   0.11285   0.00000  Uiso   1.00
H380   H     0.51649   0.48229   0.39062   0.00000  Uiso   1.00
H381   H     0.62307   0.48039   0.09930   0.00000  Uiso   1.00
H382   H     0.37970   0.53167   0.39833   0.00000  Uiso   1.00
H383   H     0.44249   0.55514   0.08170   0.00000  Uiso   1.00
H384   H     0.57493   0.49954   0.40781   0.00000  Uiso   1.00
C385   C     0.53458   0.64512   0.26188   0.00000  Uiso   1.00
C386   C     0.46525   0.35488   0.23845   0.00000  Uiso   1.00
H387   H     0.56139   0.62868   0.27131   0.00000  Uiso   1.00
H388   H     0.43843   0.37131   0.22902   0.00000  Uiso   1.00
C389   C     0.53511   0.35443   0.26131   0.00000  Uiso   1.00
C390   C     0.46472   0.64557   0.23900   0.00000  Uiso   1.00
H391   H     0.56216   0.37053   0.27040   0.00000  Uiso   1.00
H392   H     0.43767   0.62948   0.22991   0.00000  Uiso   1.00
C393   C     0.50041   0.37583   0.24965   0.00000  Uiso   1.00
C394   C     0.49946   0.62417   0.25060   0.00000  Uiso   1.00
C395   C     0.65824   0.48124   0.21399   0.00000  Uiso   1.00
C396   C     0.34178   0.51888   0.28592   0.00000  Uiso   1.00
C397   C     0.37249   0.48169   0.21418   0.00000  Uiso   1.00
C398   C     0.62751   0.51830   0.28583   0.00000  Uiso   1.00
H399   H     0.40267   0.46669   0.18584   0.00000  Uiso   1.00
H400   H     0.59733   0.53333   0.31415   0.00000  Uiso   1.00
N401   N     0.38093   0.50001   0.25001   0.00000  Uiso   1.00
N402   N     0.61907   0.49999   0.24999   0.00000  Uiso   1.00
O403   O     0.34855   0.55696   0.48644   0.00000  Uiso   1.00
C404   C     0.34218   0.59796   0.47408   0.00000  Uiso   1.00
H405   H     0.35441   0.60108   0.43553   0.00000  Uiso   1.00
H406   H     0.36303   0.61956   0.48747   0.00000  Uiso   1.00
C407   C     0.62113   0.60957   0.49664   0.00000  Uiso   1.00
H408   H     0.60086   0.58982   0.48077   0.00000  Uiso   1.00
H409   H     0.60717   0.60346   0.03466   0.00000  Uiso   1.00
C410   C     0.61146   0.65529   0.49009   0.00000  Uiso   1.00
H411   H     0.62803   0.34211   0.00916   0.00000  Uiso   1.00
H412   H     0.57150   0.66182   0.00444   0.00000  Uiso   1.00
H413   H     0.62678   0.66274   0.45243   0.00000  Uiso   1.00
O414   O     0.66110   0.47558   0.00783   0.00000  Uiso   1.00
C415   C     0.33412   0.43194   0.00576   0.00000  Uiso   1.00
H416   H     0.64489   0.41729   0.48836   0.00000  Uiso   1.00
H417   H     0.65735   0.41930   0.04138   0.00000  Uiso   1.00
C418   C     0.38796   0.42144   0.47711   0.00000  Uiso   1.00
H419   H     0.39868   0.43452   0.44174   0.00000  Uiso   1.00
H420   H     0.41062   0.43594   0.49438   0.00000  Uiso   1.00
C421   C     0.39810   0.37457   0.47206   0.00000  Uiso   1.00
H422   H     0.38640   0.36044   0.00696   0.00000  Uiso   1.00
H423   H     0.43784   0.36837   0.45299   0.00000  Uiso   1.00
H424   H     0.37851   0.35996   0.45184   0.00000  Uiso   1.00
C425   C     0.65327   0.45979   0.17381   0.00000  Uiso   1.00
H426   H     0.34802   0.46318   0.13915   0.00000  Uiso   1.00
O427   O     0.62054   0.43557   0.17896   0.00000  Uiso   1.00
C428   C     0.34691   0.54088   0.32570   0.00000  Uiso   1.00
H429   H     0.65243   0.53767   0.36051   0.00000  Uiso   1.00
O430   O     0.37941   0.56546   0.32000   0.00000  Uiso   1.00
O431   O     0.79512   0.56108   0.25000   0.00000  Uiso   1.00
O432   O     0.87154   0.43892   0.25000   0.00000  Uiso   1.00
O433   O     0.87157   0.56107   0.25000   0.00000  Uiso   1.00
O434   O     0.79510   0.43893   0.25000   0.00000  Uiso   1.00
C435   C     0.83303   0.57998   0.25031   0.00000  Uiso   1.00
C436   C     0.83360   0.42002   0.24977   0.00000  Uiso   1.00
O437   O     0.77328   0.50001   0.31613   0.00000  Uiso   1.00
O438   O     0.89339   0.49999   0.18388   0.00000  Uiso   1.00
O439   O     0.84972   0.50000   0.31612   0.00000  Uiso   1.00
O440   O     0.81695   0.50000   0.18388   0.00000  Uiso   1.00
C441   C     0.80275   0.50067   0.33807   0.00000  Uiso   1.00
C442   C     0.86396   0.50013   0.16197   0.00000  Uiso   1.00
Zn443  Zn    0.78229   0.50001   0.25000   0.00000  Uiso   1.00
Zn444  Zn    0.88438   0.49999   0.25000   0.00000  Uiso   1.00
C445   C     0.78454   0.50782   0.38859   0.00000  Uiso   1.00
C446   C     0.88320   0.50128   0.11108   0.00000  Uiso   1.00
C447   C     0.72854   0.54219   0.45973   0.00000  Uiso   1.00
C448   C     0.94640   0.48630   0.03484   0.00000  Uiso   1.00
C449   C     0.73948   0.52742   0.41393   0.00000  Uiso   1.00
C450   C     0.93114   0.48897   0.08342   0.00000  Uiso   1.00
C451   C     0.81745   0.50088   0.40973   0.00000  Uiso   1.00
C452   C     0.85139   0.51357   0.09026   0.00000  Uiso   1.00
C453   C     0.80934   0.51761   0.45388   0.00000  Uiso   1.00
C454   C     0.86580   0.51288   0.04183   0.00000  Uiso   1.00
C455   C     0.76329   0.53679   0.48007   0.00000  Uiso   1.00
C456   C     0.91382   0.49826   0.01383   0.00000  Uiso   1.00
C457   C     0.84553   0.51430   0.47296   0.00000  Uiso   1.00
C458   C     0.83248   0.52375   0.02094   0.00000  Uiso   1.00
C459   C     0.78646   0.54335   0.04633   0.00000  Uiso   1.00
C460   C     0.89453   0.50248   0.44538   0.00000  Uiso   1.00
C461   C     0.75284   0.55013   0.02600   0.00000  Uiso   1.00
C462   C     0.92816   0.49517   0.46548   0.00000  Uiso   1.00
H463   H     0.71827   0.56542   0.04676   0.00000  Uiso   1.00
H464   H     0.96506   0.48565   0.44299   0.00000  Uiso   1.00
H465   H     0.81446   0.52190   0.11285   0.00000  Uiso   1.00
H466   H     0.84983   0.48229   0.39062   0.00000  Uiso   1.00
H467   H     0.95640   0.48039   0.09930   0.00000  Uiso   1.00
H468   H     0.71304   0.53167   0.39833   0.00000  Uiso   1.00
H469   H     0.77582   0.55514   0.08170   0.00000  Uiso   1.00
H470   H     0.90826   0.49954   0.40781   0.00000  Uiso   1.00
C471   C     0.86791   0.64512   0.26188   0.00000  Uiso   1.00
C472   C     0.79858   0.35488   0.23845   0.00000  Uiso   1.00
H473   H     0.89473   0.62868   0.27131   0.00000  Uiso   1.00
H474   H     0.77176   0.37131   0.22902   0.00000  Uiso   1.00
C475   C     0.86844   0.35443   0.26131   0.00000  Uiso   1.00
C476   C     0.79806   0.64557   0.23900   0.00000  Uiso   1.00
H477   H     0.89550   0.37053   0.27040   0.00000  Uiso   1.00
H478   H     0.77100   0.62948   0.22991   0.00000  Uiso   1.00
C479   C     0.83375   0.37583   0.24965   0.00000  Uiso   1.00
C480   C     0.83279   0.62417   0.25060   0.00000  Uiso   1.00
C481   C     0.99157   0.48124   0.21399   0.00000  Uiso   1.00
C482   C     0.67512   0.51888   0.28592   0.00000  Uiso   1.00
C483   C     0.70582   0.48169   0.21418   0.00000  Uiso   1.00
C484   C     0.96084   0.51830   0.28583   0.00000  Uiso   1.00
H485   H     0.73601   0.46669   0.18584   0.00000  Uiso   1.00
H486   H     0.93066   0.53333   0.31415   0.00000  Uiso   1.00
N487   N     0.71426   0.50001   0.25001   0.00000  Uiso   1.00
N488   N     0.95241   0.49999   0.24999   0.00000  Uiso   1.00
O489   O     0.68189   0.55696   0.48644   0.00000  Uiso   1.00
C490   C     0.67551   0.59796   0.47408   0.00000  Uiso   1.00
H491   H     0.68774   0.60108   0.43553   0.00000  Uiso   1.00
H492   H     0.69636   0.61956   0.48747   0.00000  Uiso   1.00
C493   C     0.95446   0.60957   0.49664   0.00000  Uiso   1.00
H494   H     0.93419   0.58982   0.48077   0.00000  Uiso   1.00
H495   H     0.94050   0.60346   0.03466   0.00000  Uiso   1.00
C496   C     0.94479   0.65529   0.49009   0.00000  Uiso   1.00
H497   H     0.96136   0.34211   0.00916   0.00000  Uiso   1.00
H498   H     0.90483   0.66182   0.00444   0.00000  Uiso   1.00
H499   H     0.96011   0.66274   0.45243   0.00000  Uiso   1.00
O500   O     0.99443   0.47558   0.00783   0.00000  Uiso   1.00
C501   C     0.66745   0.43194   0.00576   0.00000  Uiso   1.00
H502   H     0.97823   0.41729   0.48836   0.00000  Uiso   1.00
H503   H     0.99068   0.41930   0.04138   0.00000  Uiso   1.00
C504   C     0.72129   0.42144   0.47711   0.00000  Uiso   1.00
H505   H     0.73201   0.43452   0.44174   0.00000  Uiso   1.00
H506   H     0.74395   0.43594   0.49438   0.00000  Uiso   1.00
C507   C     0.73144   0.37457   0.47206   0.00000  Uiso   1.00
H508   H     0.71973   0.36044   0.00696   0.00000  Uiso   1.00
H509   H     0.77118   0.36837   0.45299   0.00000  Uiso   1.00
H510   H     0.71185   0.35996   0.45184   0.00000  Uiso   1.00
C511   C     0.98660   0.45979   0.17381   0.00000  Uiso   1.00
H512   H     0.68135   0.46318   0.13915   0.00000  Uiso   1.00
O513   O     0.95387   0.43557   0.17896   0.00000  Uiso   1.00
C514   C     0.68024   0.54088   0.32570   0.00000  Uiso   1.00
H515   H     0.98576   0.53767   0.36051   0.00000  Uiso   1.00
O516   O     0.71274   0.56546   0.32000   0.00000  Uiso   1.00
O517   O     0.12846   0.89442   0.25000   0.00000  Uiso   1.00
O518   O     0.20488   0.77225   0.25000   0.00000  Uiso   1.00
O519   O     0.20490   0.89441   0.25000   0.00000  Uiso   1.00
O520   O     0.12843   0.77226   0.25000   0.00000  Uiso   1.00
C521   C     0.16636   0.91331   0.25031   0.00000  Uiso   1.00
C522   C     0.16693   0.75335   0.24977   0.00000  Uiso   1.00
O523   O     0.10661   0.83334   0.31613   0.00000  Uiso   1.00
O524   O     0.22672   0.83333   0.18388   0.00000  Uiso   1.00
O525   O     0.18305   0.83333   0.31612   0.00000  Uiso   1.00
O526   O     0.15028   0.83334   0.18388   0.00000  Uiso   1.00
C527   C     0.13608   0.83400   0.33807   0.00000  Uiso   1.00
C528   C     0.19729   0.83346   0.16197   0.00000  Uiso   1.00
Zn529  Zn    0.11562   0.83334   0.25000   0.00000  Uiso   1.00
Zn530  Zn    0.21771   0.83333   0.25000   0.00000  Uiso   1.00
C531   C     0.11788   0.84116   0.38859   0.00000  Uiso   1.00
C532   C     0.21653   0.83461   0.11108   0.00000  Uiso   1.00
C533   C     0.06187   0.87552   0.45973   0.00000  Uiso   1.00
C534   C     0.27973   0.81964   0.03484   0.00000  Uiso   1.00
C535   C     0.07282   0.86075   0.41393   0.00000  Uiso   1.00
C536   C     0.26447   0.82231   0.08342   0.00000  Uiso   1.00
C537   C     0.15078   0.83421   0.40973   0.00000  Uiso   1.00
C538   C     0.18473   0.84691   0.09026   0.00000  Uiso   1.00
C539   C     0.14267   0.85094   0.45388   0.00000  Uiso   1.00
C540   C     0.19914   0.84622   0.04183   0.00000  Uiso   1.00
C541   C     0.09662   0.87012   0.48007   0.00000  Uiso   1.00
C542   C     0.24716   0.83159   0.01383   0.00000  Uiso   1.00
C543   C     0.17887   0.84764   0.47296   0.00000  Uiso   1.00
C544   C     0.16581   0.85708   0.02094   0.00000  Uiso   1.00
C545   C     0.11979   0.87668   0.04633   0.00000  Uiso   1.00
C546   C     0.22787   0.83581   0.44538   0.00000  Uiso   1.00
C547   C     0.08618   0.88346   0.02600   0.00000  Uiso   1.00
C548   C     0.26149   0.82851   0.46548   0.00000  Uiso   1.00
H549   H     0.05160   0.89875   0.04676   0.00000  Uiso   1.00
H550   H     0.29839   0.81898   0.44299   0.00000  Uiso   1.00
H551   H     0.14779   0.85524   0.11285   0.00000  Uiso   1.00
H552   H     0.18316   0.81562   0.39062   0.00000  Uiso   1.00
H553   H     0.28973   0.81372   0.09930   0.00000  Uiso   1.00
H554   H     0.04637   0.86500   0.39833   0.00000  Uiso   1.00
H555   H     0.10916   0.88847   0.08170   0.00000  Uiso   1.00
H556   H     0.24159   0.83287   0.40781   0.00000  Uiso   1.00
C557   C     0.20125   0.97845   0.26188   0.00000  Uiso   1.00
C558   C     0.13191   0.68821   0.23845   0.00000  Uiso   1.00
H559   H     0.22806   0.96202   0.27131   0.00000  Uiso   1.00
H560   H     0.10509   0.70464   0.22902   0.00000  Uiso   1.00
C561   C     0.20177   0.68776   0.26131   0.00000  Uiso   1.00
C562   C     0.13139   0.97891   0.23900   0.00000  Uiso   1.00
H563   H     0.22883   0.70386   0.27040   0.00000  Uiso   1.00
H564   H     0.10433   0.96281   0.22991   0.00000  Uiso   1.00
C565   C     0.16708   0.70917   0.24965   0.00000  Uiso   1.00
C566   C     0.16613   0.95750   0.25060   0.00000  Uiso   1.00
C567   C     0.32491   0.81457   0.21399   0.00000  Uiso   1.00
C568   C     0.00845   0.85221   0.28592   0.00000  Uiso   1.00
C569   C     0.03915   0.81502   0.21418   0.00000  Uiso   1.00
C570   C     0.29417   0.85163   0.28583   0.00000  Uiso   1.00
H571   H     0.06934   0.80002   0.18584   0.00000  Uiso   1.00
H572   H     0.26399   0.86666   0.31415   0.00000  Uiso   1.00
N573   N     0.04759   0.83334   0.25001   0.00000  Uiso   1.00
N574   N     0.28574   0.83332   0.24999   0.00000  Uiso   1.00
O575   O     0.01522   0.89030   0.48644   0.00000  Uiso   1.00
C576   C     0.00885   0.93129   0.47408   0.00000  Uiso   1.00
H577   H     0.02107   0.93441   0.43553   0.00000  Uiso   1.00
H578   H     0.02969   0.95289   0.48747   0.00000  Uiso   1.00
C579   C     0.28779   0.94291   0.49664   0.00000  Uiso   1.00
H580   H     0.26752   0.92315   0.48077   0.00000  Uiso   1.00
H581   H     0.27384   0.93679   0.03466   0.00000  Uiso   1.00
C582   C     0.27813   0.98862   0.49009   0.00000  Uiso   1.00
H583   H     0.29470   0.67545   0.00916   0.00000  Uiso   1.00
H584   H     0.23816   0.99515   0.00444   0.00000  Uiso   1.00
H585   H     0.29344   0.99608   0.45243   0.00000  Uiso   1.00
O586   O     0.32776   0.80891   0.00783   0.00000  Uiso   1.00
C587   C     0.00078   0.76528   0.00576   0.00000  Uiso   1.00
H588   H     0.31156   0.75062   0.48836   0.00000  Uiso   1.00
H589   H     0.32401   0.75263   0.04138   0.00000  Uiso   1.00
C590   C     0.05462   0.75477   0.47711   0.00000  Uiso   1.00
H591   H     0.06535   0.76785   0.44174   0.00000  Uiso   1.00
H592   H     0.07729   0.76927   0.49438   0.00000  Uiso   1.00
C593   C     0.06477   0.70791   0.47206   0.00000  Uiso   1.00
H594   H     0.05307   0.69377   0.00696   0.00000  Uiso   1.00
H595   H     0.10451   0.70170   0.45299   0.00000  Uiso   1.00
H596   H     0.04518   0.69329   0.45184   0.00000  Uiso   1.00
C597   C     0.31993   0.79312   0.17381   0.00000  Uiso   1.00
H598   H     0.01468   0.79651   0.13915   0.00000  Uiso   1.00
O599   O     0.28720   0.76891   0.17896   0.00000  Uiso   1.00
C600   C     0.01357   0.87421   0.32570   0.00000  Uiso   1.00
H601   H     0.31909   0.87100   0.36051   0.00000  Uiso   1.00
O602   O     0.04607   0.89879   0.32000   0.00000  Uiso   1.00
O603   O     0.46179   0.89442   0.25000   0.00000  Uiso   1.00
O604   O     0.53821   0.77225   0.25000   0.00000  Uiso   1.00
O605   O     0.53823   0.89441   0.25000   0.00000  Uiso   1.00
O606   O     0.46177   0.77226   0.25000   0.00000  Uiso   1.00
C607   C     0.49970   0.91331   0.25031   0.00000  Uiso   1.00
C608   C     0.50027   0.75335   0.24977   0.00000  Uiso   1.00
O609   O     0.43994   0.83334   0.31613   0.00000  Uiso   1.00
O610   O     0.56006   0.83333   0.18388   0.00000  Uiso   1.00
O611   O     0.51639   0.83333   0.31612   0.00000  Uiso   1.00
O612   O     0.48361   0.83334   0.18388   0.00000  Uiso   1.00
C613   C     0.46941   0.83400   0.33807   0.00000  Uiso   1.00
C614   C     0.53062   0.83346   0.16197   0.00000  Uiso   1.00
Zn615  Zn    0.44896   0.83334   0.25000   0.00000  Uiso   1.00
Zn616  Zn    0.55104   0.83333   0.25000   0.00000  Uiso   1.00
C617   C     0.45121   0.84116   0.38859   0.00000  Uiso   1.00
C618   C     0.54986   0.83461   0.11108   0.00000  Uiso   1.00
C619   C     0.39521   0.87552   0.45973   0.00000  Uiso   1.00
C620   C     0.61306   0.81964   0.03484   0.00000  Uiso   1.00
C621   C     0.40615   0.86075   0.41393   0.00000  Uiso   1.00
C622   C     0.59781   0.82231   0.08342   0.00000  Uiso   1.00
C623   C     0.48411   0.83421   0.40973   0.00000  Uiso   1.00
C624   C     0.51806   0.84691   0.09026   0.00000  Uiso   1.00
C625   C     0.47601   0.85094   0.45388   0.00000  Uiso   1.00
C626   C     0.53247   0.84622   0.04183   0.00000  Uiso   1.00
C627   C     0.42995   0.87012   0.48007   0.00000  Uiso   1.00
C628   C     0.58049   0.83159   0.01383   0.00000  Uiso   1.00
C629   C     0.51220   0.84764   0.47296   0.00000  Uiso   1.00
C630   C     0.49915   0.85708   0.02094   0.00000  Uiso   1.00
C631   C     0.45313   0.87668   0.04633   0.00000  Uiso   1.00
C632   C     0.56120   0.83581   0.44538   0.00000  Uiso   1.00
C633   C     0.41951   0.88346   0.02600   0.00000  Uiso   1.00
C634   C     0.59482   0.82851   0.46548   0.00000  Uiso   1.00
H635   H     0.38494   0.89875   0.04676   0.00000  Uiso   1.00
H636   H     0.63172   0.81898   0.44299   0.00000  Uiso   1.00
H637   H     0.48112   0.85524   0.11285   0.00000  Uiso   1.00
H638   H     0.51649   0.81562   0.39062   0.00000  Uiso   1.00
H639   H     0.62307   0.81372   0.09930   0.00000  Uiso   1.00
H640   H     0.37970   0.86500   0.39833   0.00000  Uiso   1.00
H641   H     0.44249   0.88847   0.08170   0.00000  Uiso   1.00
H642   H     0.57493   0.83287   0.40781   0.00000  Uiso   1.00
C643   C     0.53458   0.97845   0.26188   0.00000  Uiso   1.00
C644   C     0.46525   0.68821   0.23845   0.00000  Uiso   1.00
H645   H     0.56139   0.96202   0.27131   0.00000  Uiso   1.00
H646   H     0.43843   0.70464   0.22902   0.00000  Uiso   1.00
C647   C     0.53511   0.68776   0.26131   0.00000  Uiso   1.00
C648   C     0.46472   0.97891   0.23900   0.00000  Uiso   1.00
H649   H     0.56216   0.70386   0.27040   0.00000  Uiso   1.00
H650   H     0.43767   0.96281   0.22991   0.00000  Uiso   1.00
C651   C     0.50041   0.70917   0.24965   0.00000  Uiso   1.00
C652   C     0.49946   0.95750   0.25060   0.00000  Uiso   1.00
C653   C     0.65824   0.81457   0.21399   0.00000  Uiso   1.00
C654   C     0.34178   0.85221   0.28592   0.00000  Uiso   1.00
C655   C     0.37249   0.81502   0.21418   0.00000  Uiso   1.00
C656   C     0.62751   0.85163   0.28583   0.00000  Uiso   1.00
H657   H     0.40267   0.80002   0.18584   0.00000  Uiso   1.00
H658   H     0.59733   0.86666   0.31415   0.00000  Uiso   1.00
N659   N     0.38093   0.83334   0.25001   0.00000  Uiso   1.00
N660   N     0.61907   0.83332   0.24999   0.00000  Uiso   1.00
O661   O     0.34855   0.89030   0.48644   0.00000  Uiso   1.00
C662   C     0.34218   0.93129   0.47408   0.00000  Uiso   1.00
H663   H     0.35441   0.93441   0.43553   0.00000  Uiso   1.00
H664   H     0.36303   0.95289   0.48747   0.00000  Uiso   1.00
C665   C     0.62113   0.94291   0.49664   0.00000  Uiso   1.00
H666   H     0.60086   0.92315   0.48077   0.00000  Uiso   1.00
H667   H     0.60717   0.93679   0.03466   0.00000  Uiso   1.00
C668   C     0.61146   0.98862   0.49009   0.00000  Uiso   1.00
H669   H     0.62803   0.67545   0.00916   0.00000  Uiso   1.00
H670   H     0.57150   0.99515   0.00444   0.00000  Uiso   1.00
H671   H     0.62678   0.99608   0.45243   0.00000  Uiso   1.00
O672   O     0.66110   0.80891   0.00783   0.00000  Uiso   1.00
C673   C     0.33412   0.76528   0.00576   0.00000  Uiso   1.00
H674   H     0.64489   0.75062   0.48836   0.00000  Uiso   1.00
H675   H     0.65735   0.75263   0.04138   0.00000  Uiso   1.00
C676   C     0.38796   0.75477   0.47711   0.00000  Uiso   1.00
H677   H     0.39868   0.76785   0.44174   0.00000  Uiso   1.00
H678   H     0.41062   0.76927   0.49438   0.00000  Uiso   1.00
C679   C     0.39810   0.70791   0.47206   0.00000  Uiso   1.00
H680   H     0.38640   0.69377   0.00696   0.00000  Uiso   1.00
H681   H     0.43784   0.70170   0.45299   0.00000  Uiso   1.00
H682   H     0.37851   0.69329   0.45184   0.00000  Uiso   1.00
C683   C     0.65327   0.79312   0.17381   0.00000  Uiso   1.00
H684   H     0.34802   0.79651   0.13915   0.00000  Uiso   1.00
O685   O     0.62054   0.76891   0.17896   0.00000  Uiso   1.00
C686   C     0.34691   0.87421   0.32570   0.00000  Uiso   1.00
H687   H     0.65243   0.87100   0.36051   0.00000  Uiso   1.00
O688   O     0.37941   0.89879   0.32000   0.00000  Uiso   1.00
O689   O     0.79512   0.89442   0.25000   0.00000  Uiso   1.00
O690   O     0.87154   0.77225   0.25000   0.00000  Uiso   1.00
O691   O     0.87157   0.89441   0.25000   0.00000  Uiso   1.00
O692   O     0.79510   0.77226   0.25000   0.00000  Uiso   1.00
C693   C     0.83303   0.91331   0.25031   0.00000  Uiso   1.00
C694   C     0.83360   0.75335   0.24977   0.00000  Uiso   1.00
O695   O     0.77328   0.83334   0.31613   0.00000  Uiso   1.00
O696   O     0.89339   0.83333   0.18388   0.00000  Uiso   1.00
O697   O     0.84972   0.83333   0.31612   0.00000  Uiso   1.00
O698   O     0.81695   0.83334   0.18388   0.00000  Uiso   1.00
C699   C     0.80275   0.83400   0.33807   0.00000  Uiso   1.00
C700   C     0.86396   0.83346   0.16197   0.00000  Uiso   1.00
Zn701  Zn    0.78229   0.83334   0.25000   0.00000  Uiso   1.00
Zn702  Zn    0.88438   0.83333   0.25000   0.00000  Uiso   1.00
C703   C     0.78454   0.84116   0.38859   0.00000  Uiso   1.00
C704   C     0.88320   0.83461   0.11108   0.00000  Uiso   1.00
C705   C     0.72854   0.87552   0.45973   0.00000  Uiso   1.00
C706   C     0.94640   0.81964   0.03484   0.00000  Uiso   1.00
C707   C     0.73948   0.86075   0.41393   0.00000  Uiso   1.00
C708   C     0.93114   0.82231   0.08342   0.00000  Uiso   1.00
C709   C     0.81745   0.83421   0.40973   0.00000  Uiso   1.00
C710   C     0.85139   0.84691   0.09026   0.00000  Uiso   1.00
C711   C     0.80934   0.85094   0.45388   0.00000  Uiso   1.00
C712   C     0.86580   0.84622   0.04183   0.00000  Uiso   1.00
C713   C     0.76329   0.87012   0.48007   0.00000  Uiso   1.00
C714   C     0.91382   0.83159   0.01383   0.00000  Uiso   1.00
C715   C     0.84553   0.84764   0.47296   0.00000  Uiso   1.00
C716   C     0.83248   0.85708   0.02094   0.00000  Uiso   1.00
C717   C     0.78646   0.87668   0.04633   0.00000  Uiso   1.00
C718   C     0.89453   0.83581   0.44538   0.00000  Uiso   1.00
C719   C     0.75284   0.88346   0.02600   0.00000  Uiso   1.00
C720   C     0.92816   0.82851   0.46548   0.00000  Uiso   1.00
H721   H     0.71827   0.89875   0.04676   0.00000  Uiso   1.00
H722   H     0.96506   0.81898   0.44299   0.00000  Uiso   1.00
H723   H     0.81446   0.85524   0.11285   0.00000  Uiso   1.00
H724   H     0.84983   0.81562   0.39062   0.00000  Uiso   1.00
H725   H     0.95640   0.81372   0.09930   0.00000  Uiso   1.00
H726   H     0.71304   0.86500   0.39833   0.00000  Uiso   1.00
H727   H     0.77582   0.88847   0.08170   0.00000  Uiso   1.00
H728   H     0.90826   0.83287   0.40781   0.00000  Uiso   1.00
C729   C     0.86791   0.97845   0.26188   0.00000  Uiso   1.00
C730   C     0.79858   0.68821   0.23845   0.00000  Uiso   1.00
H731   H     0.89473   0.96202   0.27131   0.00000  Uiso   1.00
H732   H     0.77176   0.70464   0.22902   0.00000  Uiso   1.00
C733   C     0.86844   0.68776   0.26131   0.00000  Uiso   1.00
C734   C     0.79806   0.97891   0.23900   0.00000  Uiso   1.00
H735   H     0.89550   0.70386   0.27040   0.00000  Uiso   1.00
H736   H     0.77100   0.96281   0.22991   0.00000  Uiso   1.00
C737   C     0.83375   0.70917   0.24965   0.00000  Uiso   1.00
C738   C     0.83279   0.95750   0.25060   0.00000  Uiso   1.00
C739   C     0.99157   0.81457   0.21399   0.00000  Uiso   1.00
C740   C     0.67512   0.85221   0.28592   0.00000  Uiso   1.00
C741   C     0.70582   0.81502   0.21418   0.00000  Uiso   1.00
C742   C     0.96084   0.85163   0.28583   0.00000  Uiso   1.00
H743   H     0.73601   0.80002   0.18584   0.00000  Uiso   1.00
H744   H     0.93066   0.86666   0.31415   0.00000  Uiso   1.00
N745   N     0.71426   0.83334   0.25001   0.00000  Uiso   1.00
N746   N     0.95241   0.83332   0.24999   0.00000  Uiso   1.00
O747   O     0.68189   0.89030   0.48644   0.00000  Uiso   1.00
C748   C     0.67551   0.93129   0.47408   0.00000  Uiso   1.00
H749   H     0.68774   0.93441   0.43553   0.00000  Uiso   1.00
H750   H     0.69636   0.95289   0.48747   0.00000  Uiso   1.00
C751   C     0.95446   0.94291   0.49664   0.00000  Uiso   1.00
H752   H     0.93419   0.92315   0.48077   0.00000  Uiso   1.00
H753   H     0.94050   0.93679   0.03466   0.00000  Uiso   1.00
C754   C     0.94479   0.98862   0.49009   0.00000  Uiso   1.00
H755   H     0.96136   0.67545   0.00916   0.00000  Uiso   1.00
H756   H     0.90483   0.99515   0.00444   0.00000  Uiso   1.00
H757   H     0.96011   0.99608   0.45243   0.00000  Uiso   1.00
O758   O     0.99443   0.80891   0.00783   0.00000  Uiso   1.00
C759   C     0.66745   0.76528   0.00576   0.00000  Uiso   1.00
H760   H     0.97823   0.75062   0.48836   0.00000  Uiso   1.00
H761   H     0.99068   0.75263   0.04138   0.00000  Uiso   1.00
C762   C     0.72129   0.75477   0.47711   0.00000  Uiso   1.00
H763   H     0.73201   0.76785   0.44174   0.00000  Uiso   1.00
H764   H     0.74395   0.76927   0.49438   0.00000  Uiso   1.00
C765   C     0.73144   0.70791   0.47206   0.00000  Uiso   1.00
H766   H     0.71973   0.69377   0.00696   0.00000  Uiso   1.00
H767   H     0.77118   0.70170   0.45299   0.00000  Uiso   1.00
H768   H     0.71185   0.69329   0.45184   0.00000  Uiso   1.00
C769   C     0.98660   0.79312   0.17381   0.00000  Uiso   1.00
H770   H     0.68135   0.79651   0.13915   0.00000  Uiso   1.00
O771   O     0.95387   0.76891   0.17896   0.00000  Uiso   1.00
C772   C     0.68024   0.87421   0.32570   0.00000  Uiso   1.00
H773   H     0.98576   0.87100   0.36051   0.00000  Uiso   1.00
O774   O     0.71274   0.89879   0.32000   0.00000  Uiso   1.00
O775   O     0.12846   0.22775   0.75000   0.00000  Uiso   1.00
O776   O     0.20488   0.10558   0.75000   0.00000  Uiso   1.00
O777   O     0.20490   0.22774   0.75000   0.00000  Uiso   1.00
O778   O     0.12843   0.10559   0.75000   0.00000  Uiso   1.00
C779   C     0.16636   0.24665   0.75031   0.00000  Uiso   1.00
C780   C     0.16693   0.08669   0.74977   0.00000  Uiso   1.00
O781   O     0.10661   0.16667   0.81613   0.00000  Uiso   1.00
O782   O     0.22672   0.16666   0.68388   0.00000  Uiso   1.00
O783   O     0.18305   0.16666   0.81612   0.00000  Uiso   1.00
O784   O     0.15028   0.16667   0.68388   0.00000  Uiso   1.00
C785   C     0.13608   0.16734   0.83807   0.00000  Uiso   1.00
C786   C     0.19729   0.16679   0.66197   0.00000  Uiso   1.00
Zn787  Zn    0.11562   0.16667   0.75000   0.00000  Uiso   1.00
Zn788  Zn    0.21771   0.16666   0.75000   0.00000  Uiso   1.00
C789   C     0.11788   0.17449   0.88859   0.00000  Uiso   1.00
C790   C     0.21653   0.16795   0.61108   0.00000  Uiso   1.00
C791   C     0.06187   0.20885   0.95973   0.00000  Uiso   1.00
C792   C     0.27973   0.15297   0.53484   0.00000  Uiso   1.00
C793   C     0.07282   0.19408   0.91393   0.00000  Uiso   1.00
C794   C     0.26447   0.15564   0.58342   0.00000  Uiso   1.00
C795   C     0.15078   0.16754   0.90973   0.00000  Uiso   1.00
C796   C     0.18473   0.18024   0.59026   0.00000  Uiso   1.00
C797   C     0.14267   0.18428   0.95388   0.00000  Uiso   1.00
C798   C     0.19914   0.17955   0.54183   0.00000  Uiso   1.00
C799   C     0.09662   0.20346   0.98007   0.00000  Uiso   1.00
C800   C     0.24716   0.16493   0.51383   0.00000  Uiso   1.00
C801   C     0.17887   0.18097   0.97296   0.00000  Uiso   1.00
C802   C     0.16581   0.19042   0.52094   0.00000  Uiso   1.00
C803   C     0.11979   0.21001   0.54633   0.00000  Uiso   1.00
C804   C     0.22787   0.16915   0.94538   0.00000  Uiso   1.00
C805   C     0.08618   0.21679   0.52600   0.00000  Uiso   1.00
C806   C     0.26149   0.16184   0.96548   0.00000  Uiso   1.00
H807   H     0.05160   0.23209   0.54676   0.00000  Uiso   1.00
H808   H     0.29839   0.15231   0.94299   0.00000  Uiso   1.00
H809   H     0.14779   0.18857   0.61285   0.00000  Uiso   1.00
H810   H     0.18316   0.14895   0.89062   0.00000  Uiso   1.00
H811   H     0.28973   0.14705   0.59930   0.00000  Uiso   1.00
H812   H     0.04637   0.19833   0.89833   0.00000  Uiso   1.00
H813   H     0.10916   0.22180   0.58170   0.00000  Uiso   1.00
H814   H     0.24159   0.16621   0.90781   0.00000  Uiso   1.00
C815   C     0.20125   0.31179   0.76188   0.00000  Uiso   1.00
C816   C     0.13191   0.02154   0.73845   0.00000  Uiso   1.00
H817   H     0.22806   0.29535   0.77131   0.00000  Uiso   1.00
H818   H     0.10509   0.03797   0.72902   0.00000  Uiso   1.00
C819   C     0.20177   0.02110   0.76131   0.00000  Uiso   1.00
C820   C     0.13139   0.31224   0.73900   0.00000  Uiso   1.00
H821   H     0.22883   0.03719   0.77040   0.00000  Uiso   1.00
H822   H     0.10433   0.29615   0.72991   0.00000  Uiso   1.00
C823   C     0.16708   0.04250   0.74965   0.00000  Uiso   1.00
C824   C     0.16613   0.29083   0.75060   0.00000  Uiso   1.00
C825   C     0.32491   0.14790   0.71399   0.00000  Uiso   1.00
C826   C     0.00845   0.18555   0.78592   0.00000  Uiso   1.00
C827   C     0.03915   0.14835   0.71418   0.00000  Uiso   1.00
C828   C     0.29417   0.18497   0.78583   0.00000  Uiso   1.00
H829   H     0.06934   0.13335   0.68584   0.00000  Uiso   1.00
H830   H     0.26399   0.20000   0.81415   0.00000  Uiso   1.00
N831   N     0.04759   0.16668   0.75001   0.00000  Uiso   1.00
N832   N     0.28574   0.16666   0.74999   0.00000  Uiso   1.00
O833   O     0.01522   0.22363   0.98644   0.00000  Uiso   1.00
C834   C     0.00885   0.26462   0.97408   0.00000  Uiso   1.00
H835   H     0.02107   0.26775   0.93553   0.00000  Uiso   1.00
H836   H     0.02969   0.28623   0.98747   0.00000  Uiso   1.00
C837   C     0.28779   0.27624   0.99664   0.00000  Uiso   1.00
H838   H     0.26752   0.25648   0.98077   0.00000  Uiso   1.00
H839   H     0.27384   0.27012   0.53466   0.00000  Uiso   1.00
C840   C     0.27813   0.32195   0.99009   0.00000  Uiso   1.00
H841   H     0.29470   0.00878   0.50916   0.00000  Uiso   1.00
H842   H     0.23816   0.32848   0.50444   0.00000  Uiso   1.00
H843   H     0.29344   0.32941   0.95243   0.00000  Uiso   1.00
O844   O     0.32776   0.14224   0.50783   0.00000  Uiso   1.00
C845   C     0.00078   0.09861   0.50576   0.00000  Uiso   1.00
H846   H     0.31156   0.08396   0.98836   0.00000  Uiso   1.00
H847   H     0.32401   0.08596   0.54138   0.00000  Uiso   1.00
C848   C     0.05462   0.08811   0.97711   0.00000  Uiso   1.00
H849   H     0.06535   0.10119   0.94174   0.00000  Uiso   1.00
H850   H     0.07729   0.10261   0.99438   0.00000  Uiso   1.00
C851   C     0.06477   0.04124   0.97206   0.00000  Uiso   1.00
H852   H     0.05307   0.02710   0.50696   0.00000  Uiso   1.00
H853   H     0.10451   0.03504   0.95299   0.00000  Uiso   1.00
H854   H     0.04518   0.02662   0.95184   0.00000  Uiso   1.00
C855   C     0.31993   0.12646   0.67381   0.00000  Uiso   1.00
H856   H     0.01468   0.12985   0.63915   0.00000  Uiso   1.00
O857   O     0.28720   0.10224   0.67896   0.00000  Uiso   1.00
C858   C     0.01357   0.20755   0.82570   0.00000  Uiso   1.00
H859   H     0.31909   0.20433   0.86051   0.00000  Uiso   1.00
O860   O     0.04607   0.23212   0.82000   0.00000  Uiso   1.00
O861   O     0.46179   0.22775   0.75000   0.00000  Uiso   1.00
O862   O     0.53821   0.10558   0.75000   0.00000  Uiso   1.00
O863   O     0.53823   0.22774   0.75000   0.00000  Uiso   1.00
O864   O     0.46177   0.10559   0.75000   0.00000  Uiso   1.00
C865   C     0.49970   0.24665   0.75031   0.00000  Uiso   1.00
C866   C     0.50027   0.08669   0.74977   0.00000  Uiso   1.00
O867   O     0.43994   0.16667   0.81613   0.00000  Uiso   1.00
O868   O     0.56006   0.16666   0.68388   0.00000  Uiso   1.00
O869   O     0.51639   0.16666   0.81612   0.00000  Uiso   1.00
O870   O     0.48361   0.16667   0.68388   0.00000  Uiso   1.00
C871   C     0.46941   0.16734   0.83807   0.00000  Uiso   1.00
C872   C     0.53062   0.16679   0.66197   0.00000  Uiso   1.00
Zn873  Zn    0.44896   0.16667   0.75000   0.00000  Uiso   1.00
Zn874  Zn    0.55104   0.16666   0.75000   0.00000  Uiso   1.00
C875   C     0.45121   0.17449   0.88859   0.00000  Uiso   1.00
C876   C     0.54986   0.16795   0.61108   0.00000  Uiso   1.00
C877   C     0.39521   0.20885   0.95973   0.00000  Uiso   1.00
C878   C     0.61306   0.15297   0.53484   0.00000  Uiso   1.00
C879   C     0.40615   0.19408   0.91393   0.00000  Uiso   1.00
C880   C     0.59781   0.15564   0.58342   0.00000  Uiso   1.00
C881   C     0.48411   0.16754   0.90973   0.00000  Uiso   1.00
C882   C     0.51806   0.18024   0.59026   0.00000  Uiso   1.00
C883   C     0.47601   0.18428   0.95388   0.00000  Uiso   1.00
C884   C     0.53247   0.17955   0.54183   0.00000  Uiso   1.00
C885   C     0.42995   0.20346   0.98007   0.00000  Uiso   1.00
C886   C     0.58049   0.16493   0.51383   0.00000  Uiso   1.00
C887   C     0.51220   0.18097   0.97296   0.00000  Uiso   1.00
C888   C     0.49915   0.19042   0.52094   0.00000  Uiso   1.00
C889   C     0.45313   0.21001   0.54633   0.00000  Uiso   1.00
C890   C     0.56120   0.16915   0.94538   0.00000  Uiso   1.00
C891   C     0.41951   0.21679   0.52600   0.00000  Uiso   1.00
C892   C     0.59482   0.16184   0.96548   0.00000  Uiso   1.00
H893   H     0.38494   0.23209   0.54676   0.00000  Uiso   1.00
H894   H     0.63172   0.15231   0.94299   0.00000  Uiso   1.00
H895   H     0.48112   0.18857   0.61285   0.00000  Uiso   1.00
H896   H     0.51649   0.14895   0.89062   0.00000  Uiso   1.00
H897   H     0.62307   0.14705   0.59930   0.00000  Uiso   1.00
H898   H     0.37970   0.19833   0.89833   0.00000  Uiso   1.00
H899   H     0.44249   0.22180   0.58170   0.00000  Uiso   1.00
H900   H     0.57493   0.16621   0.90781   0.00000  Uiso   1.00
C901   C     0.53458   0.31179   0.76188   0.00000  Uiso   1.00
C902   C     0.46525   0.02154   0.73845   0.00000  Uiso   1.00
H903   H     0.56139   0.29535   0.77131   0.00000  Uiso   1.00
H904   H     0.43843   0.03797   0.72902   0.00000  Uiso   1.00
C905   C     0.53511   0.02110   0.76131   0.00000  Uiso   1.00
C906   C     0.46472   0.31224   0.73900   0.00000  Uiso   1.00
H907   H     0.56216   0.03719   0.77040   0.00000  Uiso   1.00
H908   H     0.43767   0.29615   0.72991   0.00000  Uiso   1.00
C909   C     0.50041   0.04250   0.74965   0.00000  Uiso   1.00
C910   C     0.49946   0.29083   0.75060   0.00000  Uiso   1.00
C911   C     0.65824   0.14790   0.71399   0.00000  Uiso   1.00
C912   C     0.34178   0.18555   0.78592   0.00000  Uiso   1.00
C913   C     0.37249   0.14835   0.71418   0.00000  Uiso   1.00
C914   C     0.62751   0.18497   0.78583   0.00000  Uiso   1.00
H915   H     0.40267   0.13335   0.68584   0.00000  Uiso   1.00
H916   H     0.59733   0.20000   0.81415   0.00000  Uiso   1.00
N917   N     0.38093   0.16668   0.75001   0.00000  Uiso   1.00
N918   N     0.61907   0.16666   0.74999   0.00000  Uiso   1.00
O919   O     0.34855   0.22363   0.98644   0.00000  Uiso   1.00
C920   C     0.34218   0.26462   0.97408   0.00000  Uiso   1.00
H921   H     0.35441   0.26775   0.93553   0.00000  Uiso   1.00
H922   H     0.36303   0.28623   0.98747   0.00000  Uiso   1.00
C923   C     0.62113   0.27624   0.99664   0.00000  Uiso   1.00
H924   H     0.60086   0.25648   0.98077   0.00000  Uiso   1.00
H925   H     0.60717   0.27012   0.53466   0.00000  Uiso   1.00
C926   C     0.61146   0.32195   0.99009   0.00000  Uiso   1.00
H927   H     0.62803   0.00878   0.50916   0.00000  Uiso   1.00
H928   H     0.57150   0.32848   0.50444   0.00000  Uiso   1.00
H929   H     0.62678   0.32941   0.95243   0.00000  Uiso   1.00
O930   O     0.66110   0.14224   0.50783   0.00000  Uiso   1.00
C931   C     0.33412   0.09861   0.50576   0.00000  Uiso   1.00
H932   H     0.64489   0.08396   0.98836   0.00000  Uiso   1.00
H933   H     0.65735   0.08596   0.54138   0.00000  Uiso   1.00
C934   C     0.38796   0.08811   0.97711   0.00000  Uiso   1.00
H935   H     0.39868   0.10119   0.94174   0.00000  Uiso   1.00
H936   H     0.41062   0.10261   0.99438   0.00000  Uiso   1.00
C937   C     0.39810   0.04124   0.97206   0.00000  Uiso   1.00
H938   H     0.38640   0.02710   0.50696   0.00000  Uiso   1.00
H939   H     0.43784   0.03504   0.95299   0.00000  Uiso   1.00
H940   H     0.37851   0.02662   0.95184   0.00000  Uiso   1.00
C941   C     0.65327   0.12646   0.67381   0.00000  Uiso   1.00
H942   H     0.34802   0.12985   0.63915   0.00000  Uiso   1.00
O943   O     0.62054   0.10224   0.67896   0.00000  Uiso   1.00
C944   C     0.34691   0.20755   0.82570   0.00000  Uiso   1.00
H945   H     0.65243   0.20433   0.86051   0.00000  Uiso   1.00
O946   O     0.37941   0.23212   0.82000   0.00000  Uiso   1.00
O947   O     0.79512   0.22775   0.75000   0.00000  Uiso   1.00
O948   O     0.87154   0.10558   0.75000   0.00000  Uiso   1.00
O949   O     0.87157   0.22774   0.75000   0.00000  Uiso   1.00
O950   O     0.79510   0.10559   0.75000   0.00000  Uiso   1.00
C951   C     0.83303   0.24665   0.75031   0.00000  Uiso   1.00
C952   C     0.83360   0.08669   0.74977   0.00000  Uiso   1.00
O953   O     0.77328   0.16667   0.81613   0.00000  Uiso   1.00
O954   O     0.89339   0.16666   0.68388   0.00000  Uiso   1.00
O955   O     0.84972   0.16666   0.81612   0.00000  Uiso   1.00
O956   O     0.81695   0.16667   0.68388   0.00000  Uiso   1.00
C957   C     0.80275   0.16734   0.83807   0.00000  Uiso   1.00
C958   C     0.86396   0.16679   0.66197   0.00000  Uiso   1.00
Zn959  Zn    0.78229   0.16667   0.75000   0.00000  Uiso   1.00
Zn960  Zn    0.88438   0.16666   0.75000   0.00000  Uiso   1.00
C961   C     0.78454   0.17449   0.88859   0.00000  Uiso   1.00
C962   C     0.88320   0.16795   0.61108   0.00000  Uiso   1.00
C963   C     0.72854   0.20885   0.95973   0.00000  Uiso   1.00
C964   C     0.94640   0.15297   0.53484   0.00000  Uiso   1.00
C965   C     0.73948   0.19408   0.91393   0.00000  Uiso   1.00
C966   C     0.93114   0.15564   0.58342   0.00000  Uiso   1.00
C967   C     0.81745   0.16754   0.90973   0.00000  Uiso   1.00
C968   C     0.85139   0.18024   0.59026   0.00000  Uiso   1.00
C969   C     0.80934   0.18428   0.95388   0.00000  Uiso   1.00
C970   C     0.86580   0.17955   0.54183   0.00000  Uiso   1.00
C971   C     0.76329   0.20346   0.98007   0.00000  Uiso   1.00
C972   C     0.91382   0.16493   0.51383   0.00000  Uiso   1.00
C973   C     0.84553   0.18097   0.97296   0.00000  Uiso   1.00
C974   C     0.83248   0.19042   0.52094   0.00000  Uiso   1.00
C975   C     0.78646   0.21001   0.54633   0.00000  Uiso   1.00
C976   C     0.89453   0.16915   0.94538   0.00000  Uiso   1.00
C977   C     0.75284   0.21679   0.52600   0.00000  Uiso   1.00
C978   C     0.92816   0.16184   0.96548   0.00000  Uiso   1.00
H979   H     0.71827   0.23209   0.54676   0.00000  Uiso   1.00
H980   H     0.96506   0.15231   0.94299   0.00000  Uiso   1.00
H981   H     0.81446   0.18857   0.61285   0.00000  Uiso   1.00
H982   H     0.84983   0.14895   0.89062   0.00000  Uiso   1.00
H983   H     0.95640   0.14705   0.59930   0.00000  Uiso   1.00
H984   H     0.71304   0.19833   0.89833   0.00000  Uiso   1.00
H985   H     0.77582   0.22180   0.58170   0.00000  Uiso   1.00
H986   H     0.90826   0.16621   0.90781   0.00000  Uiso   1.00
C987   C     0.86791   0.31179   0.76188   0.00000  Uiso   1.00
C988   C     0.79858   0.02154   0.73845   0.00000  Uiso   1.00
H989   H     0.89473   0.29535   0.77131   0.00000  Uiso   1.00
H990   H     0.77176   0.03797   0.72902   0.00000  Uiso   1.00
C991   C     0.86844   0.02110   0.76131   0.00000  Uiso   1.00
C992   C     0.79806   0.31224   0.73900   0.00000  Uiso   1.00
H993   H     0.89550   0.03719   0.77040   0.00000  Uiso   1.00
H994   H     0.77100   0.29615   0.72991   0.00000  Uiso   1.00
C995   C     0.83375   0.04250   0.74965   0.00000  Uiso   1.00
C996   C     0.83279   0.29083   0.75060   0.00000  Uiso   1.00
C997   C     0.99157   0.14790   0.71399   0.00000  Uiso   1.00
C998   C     0.67512   0.18555   0.78592   0.00000  Uiso   1.00
C999   C     0.70582   0.14835   0.71418   0.00000  Uiso   1.00
C1000  C     0.96084   0.18497   0.78583   0.00000  Uiso   1.00
H1001  H     0.73601   0.13335   0.68584   0.00000  Uiso   1.00
H1002  H     0.93066   0.20000   0.81415   0.00000  Uiso   1.00
N1003  N     0.71426   0.16668   0.75001   0.00000  Uiso   1.00
N1004  N     0.95241   0.16666   0.74999   0.00000  Uiso   1.00
O1005  O     0.68189   0.22363   0.98644   0.00000  Uiso   1.00
C1006  C     0.67551   0.26462   0.97408   0.00000  Uiso   1.00
H1007  H     0.68774   0.26775   0.93553   0.00000  Uiso   1.00
H1008  H     0.69636   0.28623   0.98747   0.00000  Uiso   1.00
C1009  C     0.95446   0.27624   0.99664   0.00000  Uiso   1.00
H1010  H     0.93419   0.25648   0.98077   0.00000  Uiso   1.00
H1011  H     0.94050   0.27012   0.53466   0.00000  Uiso   1.00
C1012  C     0.94479   0.32195   0.99009   0.00000  Uiso   1.00
H1013  H     0.96136   0.00878   0.50916   0.00000  Uiso   1.00
H1014  H     0.90483   0.32848   0.50444   0.00000  Uiso   1.00
H1015  H     0.96011   0.32941   0.95243   0.00000  Uiso   1.00
O1016  O     0.99443   0.14224   0.50783   0.00000  Uiso   1.00
C1017  C     0.66745   0.09861   0.50576   0.00000  Uiso   1.00
H1018  H     0.97823   0.08396   0.98836   0.00000  Uiso   1.00
H1019  H     0.99068   0.08596   0.54138   0.00000  Uiso   1.00
C1020  C     0.72129   0.08811   0.97711   0.00000  Uiso   1.00
H1021  H     0.73201   0.10119   0.94174   0.00000  Uiso   1.00
H1022  H     0.74395   0.10261   0.99438   0.00000  Uiso   1.00
C1023  C     0.73144   0.04124   0.97206   0.00000  Uiso   1.00
H1024  H     0.71973   0.02710   0.50696   0.00000  Uiso   1.00
H1025  H     0.77118   0.03504   0.95299   0.00000  Uiso   1.00
H1026  H     0.71185   0.02662   0.95184   0.00000  Uiso   1.00
C1027  C     0.98660   0.12646   0.67381   0.00000  Uiso   1.00
H1028  H     0.68135   0.12985   0.63915   0.00000  Uiso   1.00
O1029  O     0.95387   0.10224   0.67896   0.00000  Uiso   1.00
C1030  C     0.68024   0.20755   0.82570   0.00000  Uiso   1.00
H1031  H     0.98576   0.20433   0.86051   0.00000  Uiso   1.00
O1032  O     0.71274   0.23212   0.82000   0.00000  Uiso   1.00
O1033  O     0.12846   0.56108   0.75000   0.00000  Uiso   1.00
O1034  O     0.20488   0.43892   0.75000   0.00000  Uiso   1.00
O1035  O     0.20490   0.56107   0.75000   0.00000  Uiso   1.00
O1036  O     0.12843   0.43893   0.75000   0.00000  Uiso   1.00
C1037  C     0.16636   0.57998   0.75031   0.00000  Uiso   1.00
C1038  C     0.16693   0.42002   0.74977   0.00000  Uiso   1.00
O1039  O     0.10661   0.50001   0.81613   0.00000  Uiso   1.00
O1040  O     0.22672   0.49999   0.68388   0.00000  Uiso   1.00
O1041  O     0.18305   0.50000   0.81612   0.00000  Uiso   1.00
O1042  O     0.15028   0.50000   0.68388   0.00000  Uiso   1.00
C1043  C     0.13608   0.50067   0.83807   0.00000  Uiso   1.00
C1044  C     0.19729   0.50013   0.66197   0.00000  Uiso   1.00
Zn1045 Zn    0.11562   0.50001   0.75000   0.00000  Uiso   1.00
Zn1046 Zn    0.21771   0.49999   0.75000   0.00000  Uiso   1.00
C1047  C     0.11788   0.50782   0.88859   0.00000  Uiso   1.00
C1048  C     0.21653   0.50128   0.61108   0.00000  Uiso   1.00
C1049  C     0.06187   0.54219   0.95973   0.00000  Uiso   1.00
C1050  C     0.27973   0.48630   0.53484   0.00000  Uiso   1.00
C1051  C     0.07282   0.52742   0.91393   0.00000  Uiso   1.00
C1052  C     0.26447   0.48897   0.58342   0.00000  Uiso   1.00
C1053  C     0.15078   0.50088   0.90973   0.00000  Uiso   1.00
C1054  C     0.18473   0.51357   0.59026   0.00000  Uiso   1.00
C1055  C     0.14267   0.51761   0.95388   0.00000  Uiso   1.00
C1056  C     0.19914   0.51288   0.54183   0.00000  Uiso   1.00
C1057  C     0.09662   0.53679   0.98007   0.00000  Uiso   1.00
C1058  C     0.24716   0.49826   0.51383   0.00000  Uiso   1.00
C1059  C     0.17887   0.51430   0.97296   0.00000  Uiso   1.00
C1060  C     0.16581   0.52375   0.52094   0.00000  Uiso   1.00
C1061  C     0.11979   0.54335   0.54633   0.00000  Uiso   1.00
C1062  C     0.22787   0.50248   0.94538   0.00000  Uiso   1.00
C1063  C     0.08618   0.55013   0.52600   0.00000  Uiso   1.00
C1064  C     0.26149   0.49517   0.96548   0.00000  Uiso   1.00
H1065  H     0.05160   0.56542   0.54676   0.00000  Uiso   1.00
H1066  H     0.29839   0.48565   0.94299   0.00000  Uiso   1.00
H1067  H     0.14779   0.52190   0.61285   0.00000  Uiso   1.00
H1068  H     0.18316   0.48229   0.89062   0.00000  Uiso   1.00
H1069  H     0.28973   0.48039   0.59930   0.00000  Uiso   1.00
H1070  H     0.04637   0.53167   0.89833   0.00000  Uiso   1.00
H1071  H     0.10916   0.55514   0.58170   0.00000  Uiso   1.00
H1072  H     0.24159   0.49954   0.90781   0.00000  Uiso   1.00
C1073  C     0.20125   0.64512   0.76188   0.00000  Uiso   1.00
C1074  C     0.13191   0.35488   0.73845   0.00000  Uiso   1.00
H1075  H     0.22806   0.62868   0.77131   0.00000  Uiso   1.00
H1076  H     0.10509   0.37131   0.72902   0.00000  Uiso   1.00
C1077  C     0.20177   0.35443   0.76131   0.00000  Uiso   1.00
C1078  C     0.13139   0.64557   0.73900   0.00000  Uiso   1.00
H1079  H     0.22883   0.37053   0.77040   0.00000  Uiso   1.00
H1080  H     0.10433   0.62948   0.72991   0.00000  Uiso   1.00
C1081  C     0.16708   0.37583   0.74965   0.00000  Uiso   1.00
C1082  C     0.16613   0.62417   0.75060   0.00000  Uiso   1.00
C1083  C     0.32491   0.48124   0.71399   0.00000  Uiso   1.00
C1084  C     0.00845   0.51888   0.78592   0.00000  Uiso   1.00
C1085  C     0.03915   0.48169   0.71418   0.00000  Uiso   1.00
C1086  C     0.29417   0.51830   0.78583   0.00000  Uiso   1.00
H1087  H     0.06934   0.46669   0.68584   0.00000  Uiso   1.00
H1088  H     0.26399   0.53333   0.81415   0.00000  Uiso   1.00
N1089  N     0.04759   0.50001   0.75001   0.00000  Uiso   1.00
N1090  N     0.28574   0.49999   0.74999   0.00000  Uiso   1.00
O1091  O     0.01522   0.55696   0.98644   0.00000  Uiso   1.00
C1092  C     0.00885   0.59796   0.97408   0.00000  Uiso   1.00
H1093  H     0.02107   0.60108   0.93553   0.00000  Uiso   1.00
H1094  H     0.02969   0.61956   0.98747   0.00000  Uiso   1.00
C1095  C     0.28779   0.60957   0.99664   0.00000  Uiso   1.00
H1096  H     0.26752   0.58982   0.98077   0.00000  Uiso   1.00
H1097  H     0.27384   0.60346   0.53466   0.00000  Uiso   1.00
C1098  C     0.27813   0.65529   0.99009   0.00000  Uiso   1.00
H1099  H     0.29470   0.34211   0.50916   0.00000  Uiso   1.00
H1100  H     0.23816   0.66182   0.50444   0.00000  Uiso   1.00
H1101  H     0.29344   0.66274   0.95243   0.00000  Uiso   1.00
O1102  O     0.32776   0.47558   0.50783   0.00000  Uiso   1.00
C1103  C     0.00078   0.43194   0.50576   0.00000  Uiso   1.00
H1104  H     0.31156   0.41729   0.98836   0.00000  Uiso   1.00
H1105  H     0.32401   0.41930   0.54138   0.00000  Uiso   1.00
C1106  C     0.05462   0.42144   0.97711   0.00000  Uiso   1.00
H1107  H     0.06535   0.43452   0.94174   0.00000  Uiso   1.00
H1108  H     0.07729   0.43594   0.99438   0.00000  Uiso   1.00
C1109  C     0.06477   0.37457   0.97206   0.00000  Uiso   1.00
H1110  H     0.05307   0.36044   0.50696   0.00000  Uiso   1.00
H1111  H     0.10451   0.36837   0.95299   0.00000  Uiso   1.00
H1112  H     0.04518   0.35996   0.95184   0.00000  Uiso   1.00
C1113  C     0.31993   0.45979   0.67381   0.00000  Uiso   1.00
H1114  H     0.01468   0.46318   0.63915   0.00000  Uiso   1.00
O1115  O     0.28720   0.43557   0.67896   0.00000  Uiso   1.00
C1116  C     0.01357   0.54088   0.82570   0.00000  Uiso   1.00
H1117  H     0.31909   0.53767   0.86051   0.00000  Uiso   1.00
O1118  O     0.04607   0.56546   0.82000   0.00000  Uiso   1.00
O1119  O     0.46179   0.56108   0.75000   0.00000  Uiso   1.00
O1120  O     0.53821   0.43892   0.75000   0.00000  Uiso   1.00
O1121  O     0.53823   0.56107   0.75000   0.00000  Uiso   1.00
O1122  O     0.46177   0.43893   0.75000   0.00000  Uiso   1.00
C1123  C     0.49970   0.57998   0.75031   0.00000  Uiso   1.00
C1124  C     0.50027   0.42002   0.74977   0.00000  Uiso   1.00
O1125  O     0.43994   0.50001   0.81613   0.00000  Uiso   1.00
O1126  O     0.56006   0.49999   0.68388   0.00000  Uiso   1.00
O1127  O     0.51639   0.50000   0.81612   0.00000  Uiso   1.00
O1128  O     0.48361   0.50000   0.68388   0.00000  Uiso   1.00
C1129  C     0.46941   0.50067   0.83807   0.00000  Uiso   1.00
C1130  C     0.53062   0.50013   0.66197   0.00000  Uiso   1.00
Zn1131 Zn    0.44896   0.50001   0.75000   0.00000  Uiso   1.00
Zn1132 Zn    0.55104   0.49999   0.75000   0.00000  Uiso   1.00
C1133  C     0.45121   0.50782   0.88859   0.00000  Uiso   1.00
C1134  C     0.54986   0.50128   0.61108   0.00000  Uiso   1.00
C1135  C     0.39521   0.54219   0.95973   0.00000  Uiso   1.00
C1136  C     0.61306   0.48630   0.53484   0.00000  Uiso   1.00
C1137  C     0.40615   0.52742   0.91393   0.00000  Uiso   1.00
C1138  C     0.59781   0.48897   0.58342   0.00000  Uiso   1.00
C1139  C     0.48411   0.50088   0.90973   0.00000  Uiso   1.00
C1140  C     0.51806   0.51357   0.59026   0.00000  Uiso   1.00
C1141  C     0.47601   0.51761   0.95388   0.00000  Uiso   1.00
C1142  C     0.53247   0.51288   0.54183   0.00000  Uiso   1.00
C1143  C     0.42995   0.53679   0.98007   0.00000  Uiso   1.00
C1144  C     0.58049   0.49826   0.51383   0.00000  Uiso   1.00
C1145  C     0.51220   0.51430   0.97296   0.00000  Uiso   1.00
C1146  C     0.49915   0.52375   0.52094   0.00000  Uiso   1.00
C1147  C     0.45313   0.54335   0.54633   0.00000  Uiso   1.00
C1148  C     0.56120   0.50248   0.94538   0.00000  Uiso   1.00
C1149  C     0.41951   0.55013   0.52600   0.00000  Uiso   1.00
C1150  C     0.59482   0.49517   0.96548   0.00000  Uiso   1.00
H1151  H     0.38494   0.56542   0.54676   0.00000  Uiso   1.00
H1152  H     0.63172   0.48565   0.94299   0.00000  Uiso   1.00
H1153  H     0.48112   0.52190   0.61285   0.00000  Uiso   1.00
H1154  H     0.51649   0.48229   0.89062   0.00000  Uiso   1.00
H1155  H     0.62307   0.48039   0.59930   0.00000  Uiso   1.00
H1156  H     0.37970   0.53167   0.89833   0.00000  Uiso   1.00
H1157  H     0.44249   0.55514   0.58170   0.00000  Uiso   1.00
H1158  H     0.57493   0.49954   0.90781   0.00000  Uiso   1.00
C1159  C     0.53458   0.64512   0.76188   0.00000  Uiso   1.00
C1160  C     0.46525   0.35488   0.73845   0.00000  Uiso   1.00
H1161  H     0.56139   0.62868   0.77131   0.00000  Uiso   1.00
H1162  H     0.43843   0.37131   0.72902   0.00000  Uiso   1.00
C1163  C     0.53511   0.35443   0.76131   0.00000  Uiso   1.00
C1164  C     0.46472   0.64557   0.73900   0.00000  Uiso   1.00
H1165  H     0.56216   0.37053   0.77040   0.00000  Uiso   1.00
H1166  H     0.43767   0.62948   0.72991   0.00000  Uiso   1.00
C1167  C     0.50041   0.37583   0.74965   0.00000  Uiso   1.00
C1168  C     0.49946   0.62417   0.75060   0.00000  Uiso   1.00
C1169  C     0.65824   0.48124   0.71399   0.00000  Uiso   1.00
C1170  C     0.34178   0.51888   0.78592   0.00000  Uiso   1.00
C1171  C     0.37249   0.48169   0.71418   0.00000  Uiso   1.00
C1172  C     0.62751   0.51830   0.78583   0.00000  Uiso   1.00
H1173  H     0.40267   0.46669   0.68584   0.00000  Uiso   1.00
H1174  H     0.59733   0.53333   0.81415   0.00000  Uiso   1.00
N1175  N     0.38093   0.50001   0.75001   0.00000  Uiso   1.00
N1176  N     0.61907   0.49999   0.74999   0.00000  Uiso   1.00
O1177  O     0.34855   0.55696   0.98644   0.00000  Uiso   1.00
C1178  C     0.34218   0.59796   0.97408   0.00000  Uiso   1.00
H1179  H     0.35441   0.60108   0.93553   0.00000  Uiso   1.00
H1180  H     0.36303   0.61956   0.98747   0.00000  Uiso   1.00
C1181  C     0.62113   0.60957   0.99664   0.00000  Uiso   1.00
H1182  H     0.60086   0.58982   0.98077   0.00000  Uiso   1.00
H1183  H     0.60717   0.60346   0.53466   0.00000  Uiso   1.00
C1184  C     0.61146   0.65529   0.99009   0.00000  Uiso   1.00
H1185  H     0.62803   0.34211   0.50916   0.00000  Uiso   1.00
H1186  H     0.57150   0.66182   0.50444   0.00000  Uiso   1.00
H1187  H     0.62678   0.66274   0.95243   0.00000  Uiso   1.00
O1188  O     0.66110   0.47558   0.50783   0.00000  Uiso   1.00
C1189  C     0.33412   0.43194   0.50576   0.00000  Uiso   1.00
H1190  H     0.64489   0.41729   0.98836   0.00000  Uiso   1.00
H1191  H     0.65735   0.41930   0.54138   0.00000  Uiso   1.00
C1192  C     0.38796   0.42144   0.97711   0.00000  Uiso   1.00
H1193  H     0.39868   0.43452   0.94174   0.00000  Uiso   1.00
H1194  H     0.41062   0.43594   0.99438   0.00000  Uiso   1.00
C1195  C     0.39810   0.37457   0.97206   0.00000  Uiso   1.00
H1196  H     0.38640   0.36044   0.50696   0.00000  Uiso   1.00
H1197  H     0.43784   0.36837   0.95299   0.00000  Uiso   1.00
H1198  H     0.37851   0.35996   0.95184   0.00000  Uiso   1.00
C1199  C     0.65327   0.45979   0.67381   0.00000  Uiso   1.00
H1200  H     0.34802   0.46318   0.63915   0.00000  Uiso   1.00
O1201  O     0.62054   0.43557   0.67896   0.00000  Uiso   1.00
C1202  C     0.34691   0.54088   0.82570   0.00000  Uiso   1.00
H1203  H     0.65243   0.53767   0.86051   0.00000  Uiso   1.00
O1204  O     0.37941   0.56546   0.82000   0.00000  Uiso   1.00
O1205  O     0.79512   0.56108   0.75000   0.00000  Uiso   1.00
O1206  O     0.87154   0.43892   0.75000   0.00000  Uiso   1.00
O1207  O     0.87157   0.56107   0.75000   0.00000  Uiso   1.00
O1208  O     0.79510   0.43893   0.75000   0.00000  Uiso   1.00
C1209  C     0.83303   0.57998   0.75031   0.00000  Uiso   1.00
C1210  C     0.83360   0.42002   0.74977   0.00000  Uiso   1.00
O1211  O     0.77328   0.50001   0.81613   0.00000  Uiso   1.00
O1212  O     0.89339   0.49999   0.68388   0.00000  Uiso   1.00
O1213  O     0.84972   0.50000   0.81612   0.00000  Uiso   1.00
O1214  O     0.81695   0.50000   0.68388   0.00000  Uiso   1.00
C1215  C     0.80275   0.50067   0.83807   0.00000  Uiso   1.00
C1216  C     0.86396   0.50013   0.66197   0.00000  Uiso   1.00
Zn1217 Zn    0.78229   0.50001   0.75000   0.00000  Uiso   1.00
Zn1218 Zn    0.88438   0.49999   0.75000   0.00000  Uiso   1.00
C1219  C     0.78454   0.50782   0.88859   0.00000  Uiso   1.00
C1220  C     0.88320   0.50128   0.61108   0.00000  Uiso   1.00
C1221  C     0.72854   0.54219   0.95973   0.00000  Uiso   1.00
C1222  C     0.94640   0.48630   0.53484   0.00000  Uiso   1.00
C1223  C     0.73948   0.52742   0.91393   0.00000  Uiso   1.00
C1224  C     0.93114   0.48897   0.58342   0.00000  Uiso   1.00
C1225  C     0.81745   0.50088   0.90973   0.00000  Uiso   1.00
C1226  C     0.85139   0.51357   0.59026   0.00000  Uiso   1.00
C1227  C     0.80934   0.51761   0.95388   0.00000  Uiso   1.00
C1228  C     0.86580   0.51288   0.54183   0.00000  Uiso   1.00
C1229  C     0.76329   0.53679   0.98007   0.00000  Uiso   1.00
C1230  C     0.91382   0.49826   0.51383   0.00000  Uiso   1.00
C1231  C     0.84553   0.51430   0.97296   0.00000  Uiso   1.00
C1232  C     0.83248   0.52375   0.52094   0.00000  Uiso   1.00
C1233  C     0.78646   0.54335   0.54633   0.00000  Uiso   1.00
C1234  C     0.89453   0.50248   0.94538   0.00000  Uiso   1.00
C1235  C     0.75284   0.55013   0.52600   0.00000  Uiso   1.00
C1236  C     0.92816   0.49517   0.96548   0.00000  Uiso   1.00
H1237  H     0.71827   0.56542   0.54676   0.00000  Uiso   1.00
H1238  H     0.96506   0.48565   0.94299   0.00000  Uiso   1.00
H1239  H     0.81446   0.52190   0.61285   0.00000  Uiso   1.00
H1240  H     0.84983   0.48229   0.89062   0.00000  Uiso   1.00
H1241  H     0.95640   0.48039   0.59930   0.00000  Uiso   1.00
H1242  H     0.71304   0.53167   0.89833   0.00000  Uiso   1.00
H1243  H     0.77582   0.55514   0.58170   0.00000  Uiso   1.00
H1244  H     0.90826   0.49954   0.90781   0.00000  Uiso   1.00
C1245  C     0.86791   0.64512   0.76188   0.00000  Uiso   1.00
C1246  C     0.79858   0.35488   0.73845   0.00000  Uiso   1.00
H1247  H     0.89473   0.62868   0.77131   0.00000  Uiso   1.00
H1248  H     0.77176   0.37131   0.72902   0.00000  Uiso   1.00
C1249  C     0.86844   0.35443   0.76131   0.00000  Uiso   1.00
C1250  C     0.79806   0.64557   0.73900   0.00000  Uiso   1.00
H1251  H     0.89550   0.37053   0.77040   0.00000  Uiso   1.00
H1252  H     0.77100   0.62948   0.72991   0.00000  Uiso   1.00
C1253  C     0.83375   0.37583   0.74965   0.00000  Uiso   1.00
C1254  C     0.83279   0.62417   0.75060   0.00000  Uiso   1.00
C1255  C     0.99157   0.48124   0.71399   0.00000  Uiso   1.00
C1256  C     0.67512   0.51888   0.78592   0.00000  Uiso   1.00
C1257  C     0.70582   0.48169   0.71418   0.00000  Uiso   1.00
C1258  C     0.96084   0.51830   0.78583   0.00000  Uiso   1.00
H1259  H     0.73601   0.46669   0.68584   0.00000  Uiso   1.00
H1260  H     0.93066   0.53333   0.81415   0.00000  Uiso   1.00
N1261  N     0.71426   0.50001   0.75001   0.00000  Uiso   1.00
N1262  N     0.95241   0.49999   0.74999   0.00000  Uiso   1.00
O1263  O     0.68189   0.55696   0.98644   0.00000  Uiso   1.00
C1264  C     0.67551   0.59796   0.97408   0.00000  Uiso   1.00
H1265  H     0.68774   0.60108   0.93553   0.00000  Uiso   1.00
H1266  H     0.69636   0.61956   0.98747   0.00000  Uiso   1.00
C1267  C     0.95446   0.60957   0.99664   0.00000  Uiso   1.00
H1268  H     0.93419   0.58982   0.98077   0.00000  Uiso   1.00
H1269  H     0.94050   0.60346   0.53466   0.00000  Uiso   1.00
C1270  C     0.94479   0.65529   0.99009   0.00000  Uiso   1.00
H1271  H     0.96136   0.34211   0.50916   0.00000  Uiso   1.00
H1272  H     0.90483   0.66182   0.50444   0.00000  Uiso   1.00
H1273  H     0.96011   0.66274   0.95243   0.00000  Uiso   1.00
O1274  O     0.99443   0.47558   0.50783   0.00000  Uiso   1.00
C1275  C     0.66745   0.43194   0.50576   0.00000  Uiso   1.00
H1276  H     0.97823   0.41729   0.98836   0.00000  Uiso   1.00
H1277  H     0.99068   0.41930   0.54138   0.00000  Uiso   1.00
C1278  C     0.72129   0.42144   0.97711   0.00000  Uiso   1.00
H1279  H     0.73201   0.43452   0.94174   0.00000  Uiso   1.00
H1280  H     0.74395   0.43594   0.99438   0.00000  Uiso   1.00
C1281  C     0.73144   0.37457   0.97206   0.00000  Uiso   1.00
H1282  H     0.71973   0.36044   0.50696   0.00000  Uiso   1.00
H1283  H     0.77118   0.36837   0.95299   0.00000  Uiso   1.00
H1284  H     0.71185   0.35996   0.95184   0.00000  Uiso   1.00
C1285  C     0.98660   0.45979   0.67381   0.00000  Uiso   1.00
H1286  H     0.68135   0.46318   0.63915   0.00000  Uiso   1.00
O1287  O     0.95387   0.43557   0.67896   0.00000  Uiso   1.00
C1288  C     0.68024   0.54088   0.82570   0.00000  Uiso   1.00
H1289  H     0.98576   0.53767   0.86051   0.00000  Uiso   1.00
O1290  O     0.71274   0.56546   0.82000   0.00000  Uiso   1.00
O1291  O     0.12846   0.89442   0.75000   0.00000  Uiso   1.00
O1292  O     0.20488   0.77225   0.75000   0.00000  Uiso   1.00
O1293  O     0.20490   0.89441   0.75000   0.00000  Uiso   1.00
O1294  O     0.12843   0.77226   0.75000   0.00000  Uiso   1.00
C1295  C     0.16636   0.91331   0.75031   0.00000  Uiso   1.00
C1296  C     0.16693   0.75335   0.74977   0.00000  Uiso   1.00
O1297  O     0.10661   0.83334   0.81613   0.00000  Uiso   1.00
O1298  O     0.22672   0.83333   0.68388   0.00000  Uiso   1.00
O1299  O     0.18305   0.83333   0.81612   0.00000  Uiso   1.00
O1300  O     0.15028   0.83334   0.68388   0.00000  Uiso   1.00
C1301  C     0.13608   0.83400   0.83807   0.00000  Uiso   1.00
C1302  C     0.19729   0.83346   0.66197   0.00000  Uiso   1.00
Zn1303 Zn    0.11562   0.83334   0.75000   0.00000  Uiso   1.00
Zn1304 Zn    0.21771   0.83333   0.75000   0.00000  Uiso   1.00
C1305  C     0.11788   0.84116   0.88859   0.00000  Uiso   1.00
C1306  C     0.21653   0.83461   0.61108   0.00000  Uiso   1.00
C1307  C     0.06187   0.87552   0.95973   0.00000  Uiso   1.00
C1308  C     0.27973   0.81964   0.53484   0.00000  Uiso   1.00
C1309  C     0.07282   0.86075   0.91393   0.00000  Uiso   1.00
C1310  C     0.26447   0.82231   0.58342   0.00000  Uiso   1.00
C1311  C     0.15078   0.83421   0.90973   0.00000  Uiso   1.00
C1312  C     0.18473   0.84691   0.59026   0.00000  Uiso   1.00
C1313  C     0.14267   0.85094   0.95388   0.00000  Uiso   1.00
C1314  C     0.19914   0.84622   0.54183   0.00000  Uiso   1.00
C1315  C     0.09662   0.87012   0.98007   0.00000  Uiso   1.00
C1316  C     0.24716   0.83159   0.51383   0.00000  Uiso   1.00
C1317  C     0.17887   0.84764   0.97296   0.00000  Uiso   1.00
C1318  C     0.16581   0.85708   0.52094   0.00000  Uiso   1.00
C1319  C     0.11979   0.87668   0.54633   0.00000  Uiso   1.00
C1320  C     0.22787   0.83581   0.94538   0.00000  Uiso   1.00
C1321  C     0.08618   0.88346   0.52600   0.00000  Uiso   1.00
C1322  C     0.26149   0.82851   0.96548   0.00000  Uiso   1.00
H1323  H     0.05160   0.89875   0.54676   0.00000  Uiso   1.00
H1324  H     0.29839   0.81898   0.94299   0.00000  Uiso   1.00
H1325  H     0.14779   0.85524   0.61285   0.00000  Uiso   1.00
H1326  H     0.18316   0.81562   0.89062   0.00000  Uiso   1.00
H1327  H     0.28973   0.81372   0.59930   0.00000  Uiso   1.00
H1328  H     0.04637   0.86500   0.89833   0.00000  Uiso   1.00
H1329  H     0.10916   0.88847   0.58170   0.00000  Uiso   1.00
H1330  H     0.24159   0.83287   0.90781   0.00000  Uiso   1.00
C1331  C     0.20125   0.97845   0.76188   0.00000  Uiso   1.00
C1332  C     0.13191   0.68821   0.73845   0.00000  Uiso   1.00
H1333  H     0.22806   0.96202   0.77131   0.00000  Uiso   1.00
H1334  H     0.10509   0.70464   0.72902   0.00000  Uiso   1.00
C1335  C     0.20177   0.68776   0.76131   0.00000  Uiso   1.00
C1336  C     0.13139   0.97891   0.73900   0.00000  Uiso   1.00
H1337  H     0.22883   0.70386   0.77040   0.00000  Uiso   1.00
H1338  H     0.10433   0.96281   0.72991   0.00000  Uiso   1.00
C1339  C     0.16708   0.70917   0.74965   0.00000  Uiso   1.00
C1340  C     0.16613   0.95750   0.75060   0.00000  Uiso   1.00
C1341  C     0.32491   0.81457   0.71399   0.00000  Uiso   1.00
C1342  C     0.00845   0.85221   0.78592   0.00000  Uiso   1.00
C1343  C     0.03915   0.81502   0.71418   0.00000  Uiso   1.00
C1344  C     0.29417   0.85163   0.78583   0.00000  Uiso   1.00
H1345  H     0.06934   0.80002   0.68584   0.00000  Uiso   1.00
H1346  H     0.26399   0.86666   0.81415   0.00000  Uiso   1.00
N1347  N     0.04759   0.83334   0.75001   0.00000  Uiso   1.00
N1348  N     0.28574   0.83332   0.74999   0.00000  Uiso   1.00
O1349  O     0.01522   0.89030   0.98644   0.00000  Uiso   1.00
C1350  C     0.00885   0.93129   0.97408   0.00000  Uiso   1.00
H1351  H     0.02107   0.93441   0.93553   0.00000  Uiso   1.00
H1352  H     0.02969   0.95289   0.98747   0.00000  Uiso   1.00
C1353  C     0.28779   0.94291   0.99664   0.00000  Uiso   1.00
H1354  H     0.26752   0.92315   0.98077   0.00000  Uiso   1.00
H1355  H     0.27384   0.93679   0.53466   0.00000  Uiso   1.00
C1356  C     0.27813   0.98862   0.99009   0.00000  Uiso   1.00
H1357  H     0.29470   0.67545   0.50916   0.00000  Uiso   1.00
H1358  H     0.23816   0.99515   0.50444   0.00000  Uiso   1.00
H1359  H     0.29344   0.99608   0.95243   0.00000  Uiso   1.00
O1360  O     0.32776   0.80891   0.50783   0.00000  Uiso   1.00
C1361  C     0.00078   0.76528   0.50576   0.00000  Uiso   1.00
H1362  H     0.31156   0.75062   0.98836   0.00000  Uiso   1.00
H1363  H     0.32401   0.75263   0.54138   0.00000  Uiso   1.00
C1364  C     0.05462   0.75477   0.97711   0.00000  Uiso   1.00
H1365  H     0.06535   0.76785   0.94174   0.00000  Uiso   1.00
H1366  H     0.07729   0.76927   0.99438   0.00000  Uiso   1.00
C1367  C     0.06477   0.70791   0.97206   0.00000  Uiso   1.00
H1368  H     0.05307   0.69377   0.50696   0.00000  Uiso   1.00
H1369  H     0.10451   0.70170   0.95299   0.00000  Uiso   1.00
H1370  H     0.04518   0.69329   0.95184   0.00000  Uiso   1.00
C1371  C     0.31993   0.79312   0.67381   0.00000  Uiso   1.00
H1372  H     0.01468   0.79651   0.63915   0.00000  Uiso   1.00
O1373  O     0.28720   0.76891   0.67896   0.00000  Uiso   1.00
C1374  C     0.01357   0.87421   0.82570   0.00000  Uiso   1.00
H1375  H     0.31909   0.87100   0.86051   0.00000  Uiso   1.00
O1376  O     0.04607   0.89879   0.82000   0.00000  Uiso   1.00
O1377  O     0.46179   0.89442   0.75000   0.00000  Uiso   1.00
O1378  O     0.53821   0.77225   0.75000   0.00000  Uiso   1.00
O1379  O     0.53823   0.89441   0.75000   0.00000  Uiso   1.00
O1380  O     0.46177   0.77226   0.75000   0.00000  Uiso   1.00
C1381  C     0.49970   0.91331   0.75031   0.00000  Uiso   1.00
C1382  C     0.50027   0.75335   0.74977   0.00000  Uiso   1.00
O1383  O     0.43994   0.83334   0.81613   0.00000  Uiso   1.00
O1384  O     0.56006   0.83333   0.68388   0.00000  Uiso   1.00
O1385  O     0.51639   0.83333   0.81612   0.00000  Uiso   1.00
O1386  O     0.48361   0.83334   0.68388   0.00000  Uiso   1.00
C1387  C     0.46941   0.83400   0.83807   0.00000  Uiso   1.00
C1388  C     0.53062   0.83346   0.66197   0.00000  Uiso   1.00
Zn1389 Zn    0.44896   0.83334   0.75000   0.00000  Uiso   1.00
Zn1390 Zn    0.55104   0.83333   0.75000   0.00000  Uiso   1.00
C1391  C     0.45121   0.84116   0.88859   0.00000  Uiso   1.00
C1392  C     0.54986   0.83461   0.61108   0.00000  Uiso   1.00
C1393  C     0.39521   0.87552   0.95973   0.00000  Uiso   1.00
C1394  C     0.61306   0.81964   0.53484   0.00000  Uiso   1.00
C1395  C     0.40615   0.86075   0.91393   0.00000  Uiso   1.00
C1396  C     0.59781   0.82231   0.58342   0.00000  Uiso   1.00
C1397  C     0.48411   0.83421   0.90973   0.00000  Uiso   1.00
C1398  C     0.51806   0.84691   0.59026   0.00000  Uiso   1.00
C1399  C     0.47601   0.85094   0.95388   0.00000  Uiso   1.00
C1400  C     0.53247   0.84622   0.54183   0.00000  Uiso   1.00
C1401  C     0.42995   0.87012   0.98007   0.00000  Uiso   1.00
C1402  C     0.58049   0.83159   0.51383   0.00000  Uiso   1.00
C1403  C     0.51220   0.84764   0.97296   0.00000  Uiso   1.00
C1404  C     0.49915   0.85708   0.52094   0.00000  Uiso   1.00
C1405  C     0.45313   0.87668   0.54633   0.00000  Uiso   1.00
C1406  C     0.56120   0.83581   0.94538   0.00000  Uiso   1.00
C1407  C     0.41951   0.88346   0.52600   0.00000  Uiso   1.00
C1408  C     0.59482   0.82851   0.96548   0.00000  Uiso   1.00
H1409  H     0.38494   0.89875   0.54676   0.00000  Uiso   1.00
H1410  H     0.63172   0.81898   0.94299   0.00000  Uiso   1.00
H1411  H     0.48112   0.85524   0.61285   0.00000  Uiso   1.00
H1412  H     0.51649   0.81562   0.89062   0.00000  Uiso   1.00
H1413  H     0.62307   0.81372   0.59930   0.00000  Uiso   1.00
H1414  H     0.37970   0.86500   0.89833   0.00000  Uiso   1.00
H1415  H     0.44249   0.88847   0.58170   0.00000  Uiso   1.00
H1416  H     0.57493   0.83287   0.90781   0.00000  Uiso   1.00
C1417  C     0.53458   0.97845   0.76188   0.00000  Uiso   1.00
C1418  C     0.46525   0.68821   0.73845   0.00000  Uiso   1.00
H1419  H     0.56139   0.96202   0.77131   0.00000  Uiso   1.00
H1420  H     0.43843   0.70464   0.72902   0.00000  Uiso   1.00
C1421  C     0.53511   0.68776   0.76131   0.00000  Uiso   1.00
C1422  C     0.46472   0.97891   0.73900   0.00000  Uiso   1.00
H1423  H     0.56216   0.70386   0.77040   0.00000  Uiso   1.00
H1424  H     0.43767   0.96281   0.72991   0.00000  Uiso   1.00
C1425  C     0.50041   0.70917   0.74965   0.00000  Uiso   1.00
C1426  C     0.49946   0.95750   0.75060   0.00000  Uiso   1.00
C1427  C     0.65824   0.81457   0.71399   0.00000  Uiso   1.00
C1428  C     0.34178   0.85221   0.78592   0.00000  Uiso   1.00
C1429  C     0.37249   0.81502   0.71418   0.00000  Uiso   1.00
C1430  C     0.62751   0.85163   0.78583   0.00000  Uiso   1.00
H1431  H     0.40267   0.80002   0.68584   0.00000  Uiso   1.00
H1432  H     0.59733   0.86666   0.81415   0.00000  Uiso   1.00
N1433  N     0.38093   0.83334   0.75001   0.00000  Uiso   1.00
N1434  N     0.61907   0.83332   0.74999   0.00000  Uiso   1.00
O1435  O     0.34855   0.89030   0.98644   0.00000  Uiso   1.00
C1436  C     0.34218   0.93129   0.97408   0.00000  Uiso   1.00
H1437  H     0.35441   0.93441   0.93553   0.00000  Uiso   1.00
H1438  H     0.36303   0.95289   0.98747   0.00000  Uiso   1.00
C1439  C     0.62113   0.94291   0.99664   0.00000  Uiso   1.00
H1440  H     0.60086   0.92315   0.98077   0.00000  Uiso   1.00
H1441  H     0.60717   0.93679   0.53466   0.00000  Uiso   1.00
C1442  C     0.61146   0.98862   0.99009   0.00000  Uiso   1.00
H1443  H     0.62803   0.67545   0.50916   0.00000  Uiso   1.00
H1444  H     0.57150   0.99515   0.50444   0.00000  Uiso   1.00
H1445  H     0.62678   0.99608   0.95243   0.00000  Uiso   1.00
O1446  O     0.66110   0.80891   0.50783   0.00000  Uiso   1.00
C1447  C     0.33412   0.76528   0.50576   0.00000  Uiso   1.00
H1448  H     0.64489   0.75062   0.98836   0.00000  Uiso   1.00
H1449  H     0.65735   0.75263   0.54138   0.00000  Uiso   1.00
C1450  C     0.38796   0.75477   0.97711   0.00000  Uiso   1.00
H1451  H     0.39868   0.76785   0.94174   0.00000  Uiso   1.00
H1452  H     0.41062   0.76927   0.99438   0.00000  Uiso   1.00
C1453  C     0.39810   0.70791   0.97206   0.00000  Uiso   1.00
H1454  H     0.38640   0.69377   0.50696   0.00000  Uiso   1.00
H1455  H     0.43784   0.70170   0.95299   0.00000  Uiso   1.00
H1456  H     0.37851   0.69329   0.95184   0.00000  Uiso   1.00
C1457  C     0.65327   0.79312   0.67381   0.00000  Uiso   1.00
H1458  H     0.34802   0.79651   0.63915   0.00000  Uiso   1.00
O1459  O     0.62054   0.76891   0.67896   0.00000  Uiso   1.00
C1460  C     0.34691   0.87421   0.82570   0.00000  Uiso   1.00
H1461  H     0.65243   0.87100   0.86051   0.00000  Uiso   1.00
O1462  O     0.37941   0.89879   0.82000   0.00000  Uiso   1.00
O1463  O     0.79512   0.89442   0.75000   0.00000  Uiso   1.00
O1464  O     0.87154   0.77225   0.75000   0.00000  Uiso   1.00
O1465  O     0.87157   0.89441   0.75000   0.00000  Uiso   1.00
O1466  O     0.79510   0.77226   0.75000   0.00000  Uiso   1.00
C1467  C     0.83303   0.91331   0.75031   0.00000  Uiso   1.00
C1468  C     0.83360   0.75335   0.74977   0.00000  Uiso   1.00
O1469  O     0.77328   0.83334   0.81613   0.00000  Uiso   1.00
O1470  O     0.89339   0.83333   0.68388   0.00000  Uiso   1.00
O1471  O     0.84972   0.83333   0.81612   0.00000  Uiso   1.00
O1472  O     0.81695   0.83334   0.68388   0.00000  Uiso   1.00
C1473  C     0.80275   0.83400   0.83807   0.00000  Uiso   1.00
C1474  C     0.86396   0.83346   0.66197   0.00000  Uiso   1.00
Zn1475 Zn    0.78229   0.83334   0.75000   0.00000  Uiso   1.00
Zn1476 Zn    0.88438   0.83333   0.75000   0.00000  Uiso   1.00
C1477  C     0.78454   0.84116   0.88859   0.00000  Uiso   1.00
C1478  C     0.88320   0.83461   0.61108   0.00000  Uiso   1.00
C1479  C     0.72854   0.87552   0.95973   0.00000  Uiso   1.00
C1480  C     0.94640   0.81964   0.53484   0.00000  Uiso   1.00
C1481  C     0.73948   0.86075   0.91393   0.00000  Uiso   1.00
C1482  C     0.93114   0.82231   0.58342   0.00000  Uiso   1.00
C1483  C     0.81745   0.83421   0.90973   0.00000  Uiso   1.00
C1484  C     0.85139   0.84691   0.59026   0.00000  Uiso   1.00
C1485  C     0.80934   0.85094   0.95388   0.00000  Uiso   1.00
C1486  C     0.86580   0.84622   0.54183   0.00000  Uiso   1.00
C1487  C     0.76329   0.87012   0.98007   0.00000  Uiso   1.00
C1488  C     0.91382   0.83159   0.51383   0.00000  Uiso   1.00
C1489  C     0.84553   0.84764   0.97296   0.00000  Uiso   1.00
C1490  C     0.83248   0.85708   0.52094   0.00000  Uiso   1.00
C1491  C     0.78646   0.87668   0.54633   0.00000  Uiso   1.00
C1492  C     0.89453   0.83581   0.94538   0.00000  Uiso   1.00
C1493  C     0.75284   0.88346   0.52600   0.00000  Uiso   1.00
C1494  C     0.92816   0.82851   0.96548   0.00000  Uiso   1.00
H1495  H     0.71827   0.89875   0.54676   0.00000  Uiso   1.00
H1496  H     0.96506   0.81898   0.94299   0.00000  Uiso   1.00
H1497  H     0.81446   0.85524   0.61285   0.00000  Uiso   1.00
H1498  H     0.84983   0.81562   0.89062   0.00000  Uiso   1.00
H1499  H     0.95640   0.81372   0.59930   0.00000  Uiso   1.00
H1500  H     0.71304   0.86500   0.89833   0.00000  Uiso   1.00
H1501  H     0.77582   0.88847   0.58170   0.00000  Uiso   1.00
H1502  H     0.90826   0.83287   0.90781   0.00000  Uiso   1.00
C1503  C     0.86791   0.97845   0.76188   0.00000  Uiso   1.00
C1504  C     0.79858   0.68821   0.73845   0.00000  Uiso   1.00
H1505  H     0.89473   0.96202   0.77131   0.00000  Uiso   1.00
H1506  H     0.77176   0.70464   0.72902   0.00000  Uiso   1.00
C1507  C     0.86844   0.68776   0.76131   0.00000  Uiso   1.00
C1508  C     0.79806   0.97891   0.73900   0.00000  Uiso   1.00
H1509  H     0.89550   0.70386   0.77040   0.00000  Uiso   1.00
H1510  H     0.77100   0.96281   0.72991   0.00000  Uiso   1.00
C1511  C     0.83375   0.70917   0.74965   0.00000  Uiso   1.00
C1512  C     0.83279   0.95750   0.75060   0.00000  Uiso   1.00
C1513  C     0.99157   0.81457   0.71399   0.00000  Uiso   1.00
C1514  C     0.67512   0.85221   0.78592   0.00000  Uiso   1.00
C1515  C     0.70582   0.81502   0.71418   0.00000  Uiso   1.00
C1516  C     0.96084   0.85163   0.78583   0.00000  Uiso   1.00
H1517  H     0.73601   0.80002   0.68584   0.00000  Uiso   1.00
H1518  H     0.93066   0.86666   0.81415   0.00000  Uiso   1.00
N1519  N     0.71426   0.83334   0.75001   0.00000  Uiso   1.00
N1520  N     0.95241   0.83332   0.74999   0.00000  Uiso   1.00
O1521  O     0.68189   0.89030   0.98644   0.00000  Uiso   1.00
C1522  C     0.67551   0.93129   0.97408   0.00000  Uiso   1.00
H1523  H     0.68774   0.93441   0.93553   0.00000  Uiso   1.00
H1524  H     0.69636   0.95289   0.98747   0.00000  Uiso   1.00
C1525  C     0.95446   0.94291   0.99664   0.00000  Uiso   1.00
H1526  H     0.93419   0.92315   0.98077   0.00000  Uiso   1.00
H1527  H     0.94050   0.93679   0.53466   0.00000  Uiso   1.00
C1528  C     0.94479   0.98862   0.99009   0.00000  Uiso   1.00
H1529  H     0.96136   0.67545   0.50916   0.00000  Uiso   1.00
H1530  H     0.90483   0.99515   0.50444   0.00000  Uiso   1.00
H1531  H     0.96011   0.99608   0.95243   0.00000  Uiso   1.00
O1532  O     0.99443   0.80891   0.50783   0.00000  Uiso   1.00
C1533  C     0.66745   0.76528   0.50576   0.00000  Uiso   1.00
H1534  H     0.97823   0.75062   0.98836   0.00000  Uiso   1.00
H1535  H     0.99068   0.75263   0.54138   0.00000  Uiso   1.00
C1536  C     0.72129   0.75477   0.97711   0.00000  Uiso   1.00
H1537  H     0.73201   0.76785   0.94174   0.00000  Uiso   1.00
H1538  H     0.74395   0.76927   0.99438   0.00000  Uiso   1.00
C1539  C     0.73144   0.70791   0.97206   0.00000  Uiso   1.00
H1540  H     0.71973   0.69377   0.50696   0.00000  Uiso   1.00
H1541  H     0.77118   0.70170   0.95299   0.00000  Uiso   1.00
H1542  H     0.71185   0.69329   0.95184   0.00000  Uiso   1.00
C1543  C     0.98660   0.79312   0.67381   0.00000  Uiso   1.00
H1544  H     0.68135   0.79651   0.63915   0.00000  Uiso   1.00
O1545  O     0.95387   0.76891   0.67896   0.00000  Uiso   1.00
C1546  C     0.68024   0.87421   0.82570   0.00000  Uiso   1.00
H1547  H     0.98576   0.87100   0.86051   0.00000  Uiso   1.00
O1548  O     0.71274   0.89879   0.82000   0.00000  Uiso   1.00
loop_
_geom_bond_atom_site_label_1
_geom_bond_atom_site_label_2
_geom_bond_distance
_geom_bond_site_symmetry_2
_ccdc_geom_bond_type
O1     C5      1.290   .     A
O1     Zn13    2.003   .     S
O2     C6      1.290   .     A
O2     Zn14    2.003   .     S
O3     Zn14    1.993   .     S
O3     C5      1.285   .     A
O4     Zn13    1.993   .     S
O4     C6      1.285   .     A
C5     C50     1.419   .     S
C6     C49     1.419   .     S
O7     C11     1.301   .     A
O7     Zn13    1.966   .     S
O8     Zn14    1.966   .     S
O8     C12     1.299   .     A
O9     Zn14    1.908   .     S
O9     C11     1.295   .     A
O10    C12     1.296   .     A
O10    Zn13    1.908   .     S
C11    C15     1.460   .     S
C12    C16     1.459   .     S
Zn13   N57     2.021   .     S
Zn14   N58     2.021   .     S
C15    C19     1.397   .     A
C15    C21     1.390   .     A
C16    C20     1.396   .     A
C16    C22     1.393   .     A
C17    O59     1.383   .     S
C17    C25     1.414   .     A
C17    C19     1.402   .     A
C18    C26     1.413   .     A
C18    O70     1.382   .     S
C18    C20     1.398   .     A
C19    H38     1.079   .     S
C20    H37     1.081   .     S
C21    H36     1.079   .     S
C21    C23     1.393   .     A
C22    H35     1.076   .     S
C22    C24     1.395   .     A
C23    C27     1.418   .     A
C23    C25     1.418   .     A
C24    C26     1.421   .     A
C24    C28     1.421   .     A
C25    C805    1.395   .     S
C26    C806    1.394   1_554 S
C27    C30     1.416   .     A
C27    C802    1.412   .     S
C28    C29     1.418   .     A
C28    C801    1.412   1_554 S
C29    H39     1.078   .     S
C29    C31     1.390   .     A
C30    H40     1.079   .     S
C30    C32     1.387   .     A
C31    H33     1.084   .     S
C31    C799    1.395   1_554 S
C32    H34     1.084   .     S
C32    C800    1.394   .     S
C41    H43     1.084   .     S
C41    C50     1.399   .     A
C41    C303    1.370   .     S
C42    H44     1.084   .     S
C42    C49     1.399   .     A
C42    C562    1.370   1_545 S
C45    H47     1.084   .     S
C45    C49     1.395   .     A
C45    C557    1.370   1_545 S
C46    H48     1.084   .     S
C46    C50     1.395   .     A
C46    C300    1.370   .     S
C51    C81     1.472   .     S
C51    N58     1.384   .     A
C51    C139    1.416   .     S
C52    C84     1.471   .     S
C52    N57     1.384   .     A
C52    C226    1.416   1_455 S
C53    H55     1.083   .     S
C53    N57     1.357   .     A
C53    C223    1.416   1_455 S
C54    H56     1.083   .     S
C54    N58     1.357   .     A
C54    C138    1.416   .     S
O59    C60     1.409   .     S
C60    H62     1.113   .     S
C60    H61     1.115   .     S
C60    C235    1.530   1_455 S
C63    C66     1.525   .     S
C63    H64     1.112   .     S
C63    C146    1.530   .     S
C63    H839    1.112   .     S
H65    C837    1.112   1_554 S
C66    H69     1.111   .     S
C66    H1099   1.110   .     S
C66    H842    1.110   .     S
H67    C1356   1.110   1_544 S
H68    C840    1.110   1_554 S
O70    C157    1.408   .     S
C71    O242    1.408   1_455 S
C71    H1018   1.114   1_454 S
C71    H245    1.115   1_455 S
C71    C848    1.529   1_554 S
H72    C931    1.114   .     S
H73    C157    1.115   .     S
C74    H76     1.112   .     S
C74    C77     1.524   .     S
C74    H75     1.111   .     S
C74    C845    1.529   .     S
C77    H79     1.110   .     S
C77    H80     1.110   .     S
C77    H852    1.111   .     S
H78    C851    1.111   1_554 S
C81    O83     1.217   .     D
C81    H168    1.086   .     S
H82    C253    1.086   1_455 S
C84    O86     1.217   .     D
C84    H257    1.085   1_455 S
H85    C170    1.085   .     S
O87    C91     1.290   .     A
O87    Zn99    2.003   .     S
O88    C92     1.290   .     A
O88    Zn100   2.003   .     S
O89    Zn100   1.993   .     S
O89    C91     1.285   .     A
O90    Zn99    1.993   .     S
O90    C92     1.285   .     A
C91    C136    1.419   .     S
C92    C135    1.419   .     S
O93    C97     1.301   .     A
O93    Zn99    1.966   .     S
O94    Zn100   1.966   .     S
O94    C98     1.299   .     A
O95    Zn100   1.908   .     S
O95    C97     1.295   .     A
O96    C98     1.296   .     A
O96    Zn99    1.908   .     S
C97    C101    1.460   .     S
C98    C102    1.459   .     S
Zn99   N143    2.021   .     S
Zn100  N144    2.021   .     S
C101   C105    1.397   .     A
C101   C107    1.390   .     A
C102   C106    1.396   .     A
C102   C108    1.393   .     A
C103   O145    1.383   .     S
C103   C111    1.414   .     A
C103   C105    1.402   .     A
C104   C112    1.413   .     A
C104   O156    1.382   .     S
C104   C106    1.398   .     A
C105   H124    1.079   .     S
C106   H123    1.081   .     S
C107   H122    1.079   .     S
C107   C109    1.393   .     A
C108   H121    1.076   .     S
C108   C110    1.395   .     A
C109   C113    1.418   .     A
C109   C111    1.418   .     A
C110   C112    1.421   .     A
C110   C114    1.421   .     A
C111   C891    1.395   .     S
C112   C892    1.394   1_554 S
C113   C116    1.416   .     A
C113   C888    1.412   .     S
C114   C115    1.418   .     A
C114   C887    1.412   1_554 S
C115   H125    1.078   .     S
C115   C117    1.390   .     A
C116   H126    1.079   .     S
C116   C118    1.387   .     A
C117   H119    1.084   .     S
C117   C885    1.395   1_554 S
C118   H120    1.084   .     S
C118   C886    1.394   .     S
C127   H129    1.084   .     S
C127   C136    1.399   .     A
C127   C389    1.370   .     S
C128   H130    1.084   .     S
C128   C135    1.399   .     A
C128   C648    1.370   1_545 S
C131   H133    1.084   .     S
C131   C135    1.395   .     A
C131   C643    1.370   1_545 S
C132   H134    1.084   .     S
C132   C136    1.395   .     A
C132   C386    1.370   .     S
C137   C167    1.472   .     S
C137   N144    1.384   .     A
C137   C225    1.416   .     S
C138   C170    1.471   .     S
C138   N143    1.384   .     A
C139   H141    1.083   .     S
C139   N143    1.357   .     A
C140   H142    1.083   .     S
C140   N144    1.357   .     A
C140   C224    1.416   .     S
O145   C146    1.409   .     S
C146   H148    1.113   .     S
C146   H147    1.115   .     S
C149   C152    1.525   .     S
C149   H150    1.112   .     S
C149   C232    1.530   .     S
C149   H925    1.112   .     S
H151   C923    1.112   1_554 S
C152   H155    1.111   .     S
C152   H1185   1.110   .     S
C152   H928    1.110   .     S
H153   C1442   1.110   1_544 S
H154   C926    1.110   1_554 S
O156   C243    1.408   .     S
C157   H846    1.114   1_554 S
C157   C934    1.529   1_554 S
H158   C1017   1.114   .     S
H159   C243    1.115   .     S
C160   H162    1.112   .     S
C160   C163    1.524   .     S
C160   H161    1.111   .     S
C160   C931    1.529   .     S
C163   H165    1.110   .     S
C163   H166    1.110   .     S
C163   H938    1.111   .     S
H164   C937    1.111   1_554 S
C167   O169    1.217   .     D
C167   H254    1.086   .     S
C170   O172    1.217   .     D
H171   C256    1.085   .     S
O173   C177    1.290   .     A
O173   Zn185   2.003   .     S
O174   C178    1.290   .     A
O174   Zn186   2.003   .     S
O175   Zn186   1.993   .     S
O175   C177    1.285   .     A
O176   Zn185   1.993   .     S
O176   C178    1.285   .     A
C177   C222    1.419   .     S
C178   C221    1.419   .     S
O179   C183    1.301   .     A
O179   Zn185   1.966   .     S
O180   Zn186   1.966   .     S
O180   C184    1.299   .     A
O181   Zn186   1.908   .     S
O181   C183    1.295   .     A
O182   C184    1.296   .     A
O182   Zn185   1.908   .     S
C183   C187    1.460   .     S
C184   C188    1.459   .     S
Zn185  N229    2.021   .     S
Zn186  N230    2.021   .     S
C187   C191    1.397   .     A
C187   C193    1.390   .     A
C188   C192    1.396   .     A
C188   C194    1.393   .     A
C189   O231    1.383   .     S
C189   C197    1.414   .     A
C189   C191    1.402   .     A
C190   C198    1.413   .     A
C190   O242    1.382   .     S
C190   C192    1.398   .     A
C191   H210    1.079   .     S
C192   H209    1.081   .     S
C193   H208    1.079   .     S
C193   C195    1.393   .     A
C194   H207    1.076   .     S
C194   C196    1.395   .     A
C195   C199    1.418   .     A
C195   C197    1.418   .     A
C196   C198    1.421   .     A
C196   C200    1.421   .     A
C197   C977    1.395   .     S
C198   C978    1.394   1_554 S
C199   C202    1.416   .     A
C199   C974    1.412   .     S
C200   C201    1.418   .     A
C200   C973    1.412   1_554 S
C201   H211    1.078   .     S
C201   C203    1.390   .     A
C202   H212    1.079   .     S
C202   C204    1.387   .     A
C203   H205    1.084   .     S
C203   C971    1.395   1_554 S
C204   H206    1.084   .     S
C204   C972    1.394   .     S
C213   H215    1.084   .     S
C213   C222    1.399   .     A
C213   C475    1.370   .     S
C214   H216    1.084   .     S
C214   C221    1.399   .     A
C214   C734    1.370   1_545 S
C217   H219    1.084   .     S
C217   C221    1.395   .     A
C217   C729    1.370   1_545 S
C218   H220    1.084   .     S
C218   C222    1.395   .     A
C218   C472    1.370   .     S
C223   C253    1.472   .     S
C223   N230    1.384   .     A
C223   C53     1.416   1_655 S
C224   C256    1.471   .     S
C224   N229    1.384   .     A
C225   H227    1.083   .     S
C225   N229    1.357   .     A
C226   H228    1.083   .     S
C226   N230    1.357   .     A
C226   C52     1.416   1_655 S
O231   C232    1.409   .     S
C232   H234    1.113   .     S
C232   H233    1.115   .     S
C235   C238    1.525   .     S
C235   H236    1.112   .     S
C235   C60     1.530   1_655 S
C235   H1011   1.112   .     S
H237   C1009   1.112   1_554 S
C238   H241    1.111   .     S
C238   H1271   1.110   .     S
C238   H1014   1.110   .     S
H239   C1528   1.110   1_544 S
H240   C1012   1.110   1_554 S
O242   C71     1.408   1_655 S
C243   H932    1.114   1_554 S
C243   C1020   1.529   1_554 S
H244   C845    1.114   1_655 S
H245   C71     1.115   1_655 S
C246   H248    1.112   .     S
C246   C249    1.524   .     S
C246   H247    1.111   .     S
C246   C1017   1.529   .     S
C249   H251    1.110   .     S
C249   H252    1.110   .     S
C249   H1024   1.111   .     S
H250   C1023   1.111   1_554 S
C253   O255    1.217   .     D
C253   H82     1.086   1_655 S
C256   O258    1.217   .     D
H257   C84     1.085   1_655 S
O259   C263    1.290   .     A
O259   Zn271   2.003   .     S
O260   C264    1.290   .     A
O260   Zn272   2.003   .     S
O261   Zn272   1.993   .     S
O261   C263    1.285   .     A
O262   Zn271   1.993   .     S
O262   C264    1.285   .     A
C263   C308    1.419   .     S
C264   C307    1.419   .     S
O265   C269    1.301   .     A
O265   Zn271   1.966   .     S
O266   Zn272   1.966   .     S
O266   C270    1.299   .     A
O267   Zn272   1.908   .     S
O267   C269    1.295   .     A
O268   C270    1.296   .     A
O268   Zn271   1.908   .     S
C269   C273    1.460   .     S
C270   C274    1.459   .     S
Zn271  N315    2.021   .     S
Zn272  N316    2.021   .     S
C273   C277    1.397   .     A
C273   C279    1.390   .     A
C274   C278    1.396   .     A
C274   C280    1.393   .     A
C275   O317    1.383   .     S
C275   C283    1.414   .     A
C275   C277    1.402   .     A
C276   C284    1.413   .     A
C276   O328    1.382   .     S
C276   C278    1.398   .     A
C277   H296    1.079   .     S
C278   H295    1.081   .     S
C279   H294    1.079   .     S
C279   C281    1.393   .     A
C280   H293    1.076   .     S
C280   C282    1.395   .     A
C281   C285    1.418   .     A
C281   C283    1.418   .     A
C282   C284    1.421   .     A
C282   C286    1.421   .     A
C283   C1063   1.395   .     S
C284   C1064   1.394   1_554 S
C285   C288    1.416   .     A
C285   C1060   1.412   .     S
C286   C287    1.418   .     A
C286   C1059   1.412   1_554 S
C287   H297    1.078   .     S
C287   C289    1.390   .     A
C288   H298    1.079   .     S
C288   C290    1.387   .     A
C289   H291    1.084   .     S
C289   C1057   1.395   1_554 S
C290   H292    1.084   .     S
C290   C1058   1.394   .     S
C299   H301    1.084   .     S
C299   C308    1.399   .     A
C299   C561    1.370   .     S
C300   H302    1.084   .     S
C300   C307    1.399   .     A
C303   H305    1.084   .     S
C303   C307    1.395   .     A
C304   H306    1.084   .     S
C304   C308    1.395   .     A
C304   C558    1.370   .     S
C309   C339    1.472   .     S
C309   N316    1.384   .     A
C309   C397    1.416   .     S
C310   C342    1.471   .     S
C310   N315    1.384   .     A
C310   C484    1.416   1_455 S
C311   H313    1.083   .     S
C311   N315    1.357   .     A
C311   C481    1.416   1_455 S
C312   H314    1.083   .     S
C312   N316    1.357   .     A
C312   C396    1.416   .     S
O317   C318    1.409   .     S
C318   H320    1.113   .     S
C318   H319    1.115   .     S
C318   C493    1.530   1_455 S
C321   C324    1.525   .     S
C321   H322    1.112   .     S
C321   C404    1.530   .     S
C321   H1097   1.112   .     S
H323   C1095   1.112   1_554 S
C324   H327    1.111   .     S
C324   H1357   1.110   .     S
C324   H1100   1.110   .     S
H325   C840    1.110   1_554 S
H326   C1098   1.110   1_554 S
O328   C415    1.408   .     S
C329   O500    1.408   1_455 S
C329   H1276   1.114   1_454 S
C329   H503    1.115   1_455 S
C329   C1106   1.529   1_554 S
H330   C1189   1.114   .     S
H331   C415    1.115   .     S
C332   H334    1.112   .     S
C332   C335    1.524   .     S
C332   H333    1.111   .     S
C332   C1103   1.529   .     S
C335   H337    1.110   .     S
C335   H338    1.110   .     S
C335   H1110   1.111   .     S
H336   C1109   1.111   1_554 S
C339   O341    1.217   .     D
C339   H426    1.086   .     S
H340   C511    1.086   1_455 S
C342   O344    1.217   .     D
C342   H515    1.085   1_455 S
H343   C428    1.085   .     S
O345   C349    1.290   .     A
O345   Zn357   2.003   .     S
O346   C350    1.290   .     A
O346   Zn358   2.003   .     S
O347   Zn358   1.993   .     S
O347   C349    1.285   .     A
O348   Zn357   1.993   .     S
O348   C350    1.285   .     A
C349   C394    1.419   .     S
C350   C393    1.419   .     S
O351   C355    1.301   .     A
O351   Zn357   1.966   .     S
O352   Zn358   1.966   .     S
O352   C356    1.299   .     A
O353   Zn358   1.908   .     S
O353   C355    1.295   .     A
O354   C356    1.296   .     A
O354   Zn357   1.908   .     S
C355   C359    1.460   .     S
C356   C360    1.459   .     S
Zn357  N401    2.021   .     S
Zn358  N402    2.021   .     S
C359   C363    1.397   .     A
C359   C365    1.390   .     A
C360   C364    1.396   .     A
C360   C366    1.393   .     A
C361   O403    1.383   .     S
C361   C369    1.414   .     A
C361   C363    1.402   .     A
C362   C370    1.413   .     A
C362   O414    1.382   .     S
C362   C364    1.398   .     A
C363   H382    1.079   .     S
C364   H381    1.081   .     S
C365   H380    1.079   .     S
C365   C367    1.393   .     A
C366   H379    1.076   .     S
C366   C368    1.395   .     A
C367   C371    1.418   .     A
C367   C369    1.418   .     A
C368   C370    1.421   .     A
C368   C372    1.421   .     A
C369   C1149   1.395   .     S
C370   C1150   1.394   1_554 S
C371   C374    1.416   .     A
C371   C1146   1.412   .     S
C372   C373    1.418   .     A
C372   C1145   1.412   1_554 S
C373   H383    1.078   .     S
C373   C375    1.390   .     A
C374   H384    1.079   .     S
C374   C376    1.387   .     A
C375   H377    1.084   .     S
C375   C1143   1.395   1_554 S
C376   H378    1.084   .     S
C376   C1144   1.394   .     S
C385   H387    1.084   .     S
C385   C394    1.399   .     A
C385   C647    1.370   .     S
C386   H388    1.084   .     S
C386   C393    1.399   .     A
C389   H391    1.084   .     S
C389   C393    1.395   .     A
C390   H392    1.084   .     S
C390   C394    1.395   .     A
C390   C644    1.370   .     S
C395   C425    1.472   .     S
C395   N402    1.384   .     A
C395   C483    1.416   .     S
C396   C428    1.471   .     S
C396   N401    1.384   .     A
C397   H399    1.083   .     S
C397   N401    1.357   .     A
C398   H400    1.083   .     S
C398   N402    1.357   .     A
C398   C482    1.416   .     S
O403   C404    1.409   .     S
C404   H406    1.113   .     S
C404   H405    1.115   .     S
C407   C410    1.525   .     S
C407   H408    1.112   .     S
C407   C490    1.530   .     S
C407   H1183   1.112   .     S
H409   C1181   1.112   1_554 S
C410   H413    1.111   .     S
C410   H1443   1.110   .     S
C410   H1186   1.110   .     S
H411   C926    1.110   1_554 S
H412   C1184   1.110   1_554 S
O414   C501    1.408   .     S
C415   H1104   1.114   1_554 S
C415   C1192   1.529   1_554 S
H416   C1275   1.114   .     S
H417   C501    1.115   .     S
C418   H420    1.112   .     S
C418   C421    1.524   .     S
C418   H419    1.111   .     S
C418   C1189   1.529   .     S
C421   H423    1.110   .     S
C421   H424    1.110   .     S
C421   H1196   1.111   .     S
H422   C1195   1.111   1_554 S
C425   O427    1.217   .     D
C425   H512    1.086   .     S
C428   O430    1.217   .     D
H429   C514    1.085   .     S
O431   C435    1.290   .     A
O431   Zn443   2.003   .     S
O432   C436    1.290   .     A
O432   Zn444   2.003   .     S
O433   Zn444   1.993   .     S
O433   C435    1.285   .     A
O434   Zn443   1.993   .     S
O434   C436    1.285   .     A
C435   C480    1.419   .     S
C436   C479    1.419   .     S
O437   C441    1.301   .     A
O437   Zn443   1.966   .     S
O438   Zn444   1.966   .     S
O438   C442    1.299   .     A
O439   Zn444   1.908   .     S
O439   C441    1.295   .     A
O440   C442    1.296   .     A
O440   Zn443   1.908   .     S
C441   C445    1.460   .     S
C442   C446    1.459   .     S
Zn443  N487    2.021   .     S
Zn444  N488    2.021   .     S
C445   C449    1.397   .     A
C445   C451    1.390   .     A
C446   C450    1.396   .     A
C446   C452    1.393   .     A
C447   O489    1.383   .     S
C447   C455    1.414   .     A
C447   C449    1.402   .     A
C448   C456    1.413   .     A
C448   O500    1.382   .     S
C448   C450    1.398   .     A
C449   H468    1.079   .     S
C450   H467    1.081   .     S
C451   H466    1.079   .     S
C451   C453    1.393   .     A
C452   H465    1.076   .     S
C452   C454    1.395   .     A
C453   C457    1.418   .     A
C453   C455    1.418   .     A
C454   C456    1.421   .     A
C454   C458    1.421   .     A
C455   C1235   1.395   .     S
C456   C1236   1.394   1_554 S
C457   C460    1.416   .     A
C457   C1232   1.412   .     S
C458   C459    1.418   .     A
C458   C1231   1.412   1_554 S
C459   H469    1.078   .     S
C459   C461    1.390   .     A
C460   H470    1.079   .     S
C460   C462    1.387   .     A
C461   H463    1.084   .     S
C461   C1229   1.395   1_554 S
C462   H464    1.084   .     S
C462   C1230   1.394   .     S
C471   H473    1.084   .     S
C471   C480    1.399   .     A
C471   C733    1.370   .     S
C472   H474    1.084   .     S
C472   C479    1.399   .     A
C475   H477    1.084   .     S
C475   C479    1.395   .     A
C476   H478    1.084   .     S
C476   C480    1.395   .     A
C476   C730    1.370   .     S
C481   C511    1.472   .     S
C481   N488    1.384   .     A
C481   C311    1.416   1_655 S
C482   C514    1.471   .     S
C482   N487    1.384   .     A
C483   H485    1.083   .     S
C483   N487    1.357   .     A
C484   H486    1.083   .     S
C484   N488    1.357   .     A
C484   C310    1.416   1_655 S
O489   C490    1.409   .     S
C490   H492    1.113   .     S
C490   H491    1.115   .     S
C493   C496    1.525   .     S
C493   H494    1.112   .     S
C493   C318    1.530   1_655 S
C493   H1269   1.112   .     S
H495   C1267   1.112   1_554 S
C496   H499    1.111   .     S
C496   H1529   1.110   .     S
C496   H1272   1.110   .     S
H497   C1012   1.110   1_554 S
H498   C1270   1.110   1_554 S
O500   C329    1.408   1_655 S
C501   H1190   1.114   1_554 S
C501   C1278   1.529   1_554 S
H502   C1103   1.114   1_655 S
H503   C329    1.115   1_655 S
C504   H506    1.112   .     S
C504   C507    1.524   .     S
C504   H505    1.111   .     S
C504   C1275   1.529   .     S
C507   H509    1.110   .     S
C507   H510    1.110   .     S
C507   H1282   1.111   .     S
H508   C1281   1.111   1_554 S
C511   O513    1.217   .     D
C511   H340    1.086   1_655 S
C514   O516    1.217   .     D
H515   C342    1.085   1_655 S
O517   C521    1.290   .     A
O517   Zn529   2.003   .     S
O518   C522    1.290   .     A
O518   Zn530   2.003   .     S
O519   Zn530   1.993   .     S
O519   C521    1.285   .     A
O520   Zn529   1.993   .     S
O520   C522    1.285   .     A
C521   C566    1.419   .     S
C522   C565    1.419   .     S
O523   C527    1.301   .     A
O523   Zn529   1.966   .     S
O524   Zn530   1.966   .     S
O524   C528    1.299   .     A
O525   Zn530   1.908   .     S
O525   C527    1.295   .     A
O526   C528    1.296   .     A
O526   Zn529   1.908   .     S
C527   C531    1.460   .     S
C528   C532    1.459   .     S
Zn529  N573    2.021   .     S
Zn530  N574    2.021   .     S
C531   C535    1.397   .     A
C531   C537    1.390   .     A
C532   C536    1.396   .     A
C532   C538    1.393   .     A
C533   O575    1.383   .     S
C533   C541    1.414   .     A
C533   C535    1.402   .     A
C534   C542    1.413   .     A
C534   O586    1.382   .     S
C534   C536    1.398   .     A
C535   H554    1.079   .     S
C536   H553    1.081   .     S
C537   H552    1.079   .     S
C537   C539    1.393   .     A
C538   H551    1.076   .     S
C538   C540    1.395   .     A
C539   C543    1.418   .     A
C539   C541    1.418   .     A
C540   C542    1.421   .     A
C540   C544    1.421   .     A
C541   C1321   1.395   .     S
C542   C1322   1.394   1_554 S
C543   C546    1.416   .     A
C543   C1318   1.412   .     S
C544   C545    1.418   .     A
C544   C1317   1.412   1_554 S
C545   H555    1.078   .     S
C545   C547    1.390   .     A
C546   H556    1.079   .     S
C546   C548    1.387   .     A
C547   H549    1.084   .     S
C547   C1315   1.395   1_554 S
C548   H550    1.084   .     S
C548   C1316   1.394   .     S
C557   H559    1.084   .     S
C557   C566    1.399   .     A
C557   C45     1.370   1_565 S
C558   H560    1.084   .     S
C558   C565    1.399   .     A
C561   H563    1.084   .     S
C561   C565    1.395   .     A
C562   H564    1.084   .     S
C562   C566    1.395   .     A
C562   C42     1.370   1_565 S
C567   C597    1.472   .     S
C567   N574    1.384   .     A
C567   C655    1.416   .     S
C568   C600    1.471   .     S
C568   N573    1.384   .     A
C568   C742    1.416   1_455 S
C569   H571    1.083   .     S
C569   N573    1.357   .     A
C569   C739    1.416   1_455 S
C570   H572    1.083   .     S
C570   N574    1.357   .     A
C570   C654    1.416   .     S
O575   C576    1.409   .     S
C576   H578    1.113   .     S
C576   H577    1.115   .     S
C576   C751    1.530   1_455 S
C579   C582    1.525   .     S
C579   H580    1.112   .     S
C579   C662    1.530   .     S
C579   H1355   1.112   .     S
H581   C1353   1.112   1_554 S
C582   H585    1.111   .     S
C582   H841    1.110   1_565 S
C582   H1358   1.110   .     S
H583   C1098   1.110   1_554 S
H584   C1356   1.110   1_554 S
O586   C673    1.408   .     S
C587   O758    1.408   1_455 S
C587   H1534   1.114   1_454 S
C587   H761    1.115   1_455 S
C587   C1364   1.529   1_554 S
H588   C1447   1.114   .     S
H589   C673    1.115   .     S
C590   H592    1.112   .     S
C590   C593    1.524   .     S
C590   H591    1.111   .     S
C590   C1361   1.529   .     S
C593   H595    1.110   .     S
C593   H596    1.110   .     S
C593   H1368   1.111   .     S
H594   C1367   1.111   1_554 S
C597   O599    1.217   .     D
C597   H684    1.086   .     S
H598   C769    1.086   1_455 S
C600   O602    1.217   .     D
C600   H773    1.085   1_455 S
H601   C686    1.085   .     S
O603   C607    1.290   .     A
O603   Zn615   2.003   .     S
O604   C608    1.290   .     A
O604   Zn616   2.003   .     S
O605   Zn616   1.993   .     S
O605   C607    1.285   .     A
O606   Zn615   1.993   .     S
O606   C608    1.285   .     A
C607   C652    1.419   .     S
C608   C651    1.419   .     S
O609   C613    1.301   .     A
O609   Zn615   1.966   .     S
O610   Zn616   1.966   .     S
O610   C614    1.299   .     A
O611   Zn616   1.908   .     S
O611   C613    1.295   .     A
O612   C614    1.296   .     A
O612   Zn615   1.908   .     S
C613   C617    1.460   .     S
C614   C618    1.459   .     S
Zn615  N659    2.021   .     S
Zn616  N660    2.021   .     S
C617   C621    1.397   .     A
C617   C623    1.390   .     A
C618   C622    1.396   .     A
C618   C624    1.393   .     A
C619   O661    1.383   .     S
C619   C627    1.414   .     A
C619   C621    1.402   .     A
C620   C628    1.413   .     A
C620   O672    1.382   .     S
C620   C622    1.398   .     A
C621   H640    1.079   .     S
C622   H639    1.081   .     S
C623   H638    1.079   .     S
C623   C625    1.393   .     A
C624   H637    1.076   .     S
C624   C626    1.395   .     A
C625   C629    1.418   .     A
C625   C627    1.418   .     A
C626   C628    1.421   .     A
C626   C630    1.421   .     A
C627   C1407   1.395   .     S
C628   C1408   1.394   1_554 S
C629   C632    1.416   .     A
C629   C1404   1.412   .     S
C630   C631    1.418   .     A
C630   C1403   1.412   1_554 S
C631   H641    1.078   .     S
C631   C633    1.390   .     A
C632   H642    1.079   .     S
C632   C634    1.387   .     A
C633   H635    1.084   .     S
C633   C1401   1.395   1_554 S
C634   H636    1.084   .     S
C634   C1402   1.394   .     S
C643   H645    1.084   .     S
C643   C652    1.399   .     A
C643   C131    1.370   1_565 S
C644   H646    1.084   .     S
C644   C651    1.399   .     A
C647   H649    1.084   .     S
C647   C651    1.395   .     A
C648   H650    1.084   .     S
C648   C652    1.395   .     A
C648   C128    1.370   1_565 S
C653   C683    1.472   .     S
C653   N660    1.384   .     A
C653   C741    1.416   .     S
C654   C686    1.471   .     S
C654   N659    1.384   .     A
C655   H657    1.083   .     S
C655   N659    1.357   .     A
C656   H658    1.083   .     S
C656   N660    1.357   .     A
C656   C740    1.416   .     S
O661   C662    1.409   .     S
C662   H664    1.113   .     S
C662   H663    1.115   .     S
C665   C668    1.525   .     S
C665   H666    1.112   .     S
C665   C748    1.530   .     S
C665   H1441   1.112   .     S
H667   C1439   1.112   1_554 S
C668   H671    1.111   .     S
C668   H927    1.110   1_565 S
C668   H1444   1.110   .     S
H669   C1184   1.110   1_554 S
H670   C1442   1.110   1_554 S
O672   C759    1.408   .     S
C673   H1362   1.114   1_554 S
C673   C1450   1.529   1_554 S
H674   C1533   1.114   .     S
H675   C759    1.115   .     S
C676   H678    1.112   .     S
C676   C679    1.524   .     S
C676   H677    1.111   .     S
C676   C1447   1.529   .     S
C679   H681    1.110   .     S
C679   H682    1.110   .     S
C679   H1454   1.111   .     S
H680   C1453   1.111   1_554 S
C683   O685    1.217   .     D
C683   H770    1.086   .     S
C686   O688    1.217   .     D
H687   C772    1.085   .     S
O689   C693    1.290   .     A
O689   Zn701   2.003   .     S
O690   C694    1.290   .     A
O690   Zn702   2.003   .     S
O691   Zn702   1.993   .     S
O691   C693    1.285   .     A
O692   Zn701   1.993   .     S
O692   C694    1.285   .     A
C693   C738    1.419   .     S
C694   C737    1.419   .     S
O695   C699    1.301   .     A
O695   Zn701   1.966   .     S
O696   Zn702   1.966   .     S
O696   C700    1.299   .     A
O697   Zn702   1.908   .     S
O697   C699    1.295   .     A
O698   C700    1.296   .     A
O698   Zn701   1.908   .     S
C699   C703    1.460   .     S
C700   C704    1.459   .     S
Zn701  N745    2.021   .     S
Zn702  N746    2.021   .     S
C703   C707    1.397   .     A
C703   C709    1.390   .     A
C704   C708    1.396   .     A
C704   C710    1.393   .     A
C705   O747    1.383   .     S
C705   C713    1.414   .     A
C705   C707    1.402   .     A
C706   C714    1.413   .     A
C706   O758    1.382   .     S
C706   C708    1.398   .     A
C707   H726    1.079   .     S
C708   H725    1.081   .     S
C709   H724    1.079   .     S
C709   C711    1.393   .     A
C710   H723    1.076   .     S
C710   C712    1.395   .     A
C711   C715    1.418   .     A
C711   C713    1.418   .     A
C712   C714    1.421   .     A
C712   C716    1.421   .     A
C713   C1493   1.395   .     S
C714   C1494   1.394   1_554 S
C715   C718    1.416   .     A
C715   C1490   1.412   .     S
C716   C717    1.418   .     A
C716   C1489   1.412   1_554 S
C717   H727    1.078   .     S
C717   C719    1.390   .     A
C718   H728    1.079   .     S
C718   C720    1.387   .     A
C719   H721    1.084   .     S
C719   C1487   1.395   1_554 S
C720   H722    1.084   .     S
C720   C1488   1.394   .     S
C729   H731    1.084   .     S
C729   C738    1.399   .     A
C729   C217    1.370   1_565 S
C730   H732    1.084   .     S
C730   C737    1.399   .     A
C733   H735    1.084   .     S
C733   C737    1.395   .     A
C734   H736    1.084   .     S
C734   C738    1.395   .     A
C734   C214    1.370   1_565 S
C739   C769    1.472   .     S
C739   N746    1.384   .     A
C739   C569    1.416   1_655 S
C740   C772    1.471   .     S
C740   N745    1.384   .     A
C741   H743    1.083   .     S
C741   N745    1.357   .     A
C742   H744    1.083   .     S
C742   N746    1.357   .     A
C742   C568    1.416   1_655 S
O747   C748    1.409   .     S
C748   H750    1.113   .     S
C748   H749    1.115   .     S
C751   C754    1.525   .     S
C751   H752    1.112   .     S
C751   C576    1.530   1_655 S
C751   H1527   1.112   .     S
H753   C1525   1.112   1_554 S
C754   H757    1.111   .     S
C754   H1013   1.110   1_565 S
C754   H1530   1.110   .     S
H755   C1270   1.110   1_554 S
H756   C1528   1.110   1_554 S
O758   C587    1.408   1_655 S
C759   H1448   1.114   1_554 S
C759   C1536   1.529   1_554 S
H760   C1361   1.114   1_655 S
H761   C587    1.115   1_655 S
C762   H764    1.112   .     S
C762   C765    1.524   .     S
C762   H763    1.111   .     S
C762   C1533   1.529   .     S
C765   H767    1.110   .     S
C765   H768    1.110   .     S
C765   H1540   1.111   .     S
H766   C1539   1.111   1_554 S
C769   O771    1.217   .     D
C769   H598    1.086   1_655 S
C772   O774    1.217   .     D
H773   C600    1.085   1_655 S
O775   C779    1.290   .     A
O775   Zn787   2.003   .     S
O776   C780    1.290   .     A
O776   Zn788   2.003   .     S
O777   Zn788   1.993   .     S
O777   C779    1.285   .     A
O778   Zn787   1.993   .     S
O778   C780    1.285   .     A
C779   C824    1.419   .     S
C780   C823    1.419   .     S
O781   C785    1.301   .     A
O781   Zn787   1.966   .     S
O782   Zn788   1.966   .     S
O782   C786    1.299   .     A
O783   Zn788   1.908   .     S
O783   C785    1.295   .     A
O784   C786    1.296   .     A
O784   Zn787   1.908   .     S
C785   C789    1.460   .     S
C786   C790    1.459   .     S
Zn787  N831    2.021   .     S
Zn788  N832    2.021   .     S
C789   C793    1.397   .     A
C789   C795    1.390   .     A
C790   C794    1.396   .     A
C790   C796    1.393   .     A
C791   O833    1.383   .     S
C791   C799    1.414   .     A
C791   C793    1.402   .     A
C792   C800    1.413   .     A
C792   O844    1.382   .     S
C792   C794    1.398   .     A
C793   H812    1.079   .     S
C794   H811    1.081   .     S
C795   H810    1.079   .     S
C795   C797    1.393   .     A
C796   H809    1.076   .     S
C796   C798    1.395   .     A
C797   C801    1.418   .     A
C797   C799    1.418   .     A
C798   C800    1.421   .     A
C798   C802    1.421   .     A
C799   C31     1.395   1_556 S
C801   C804    1.416   .     A
C801   C28     1.412   1_556 S
C802   C803    1.418   .     A
C803   H813    1.078   .     S
C803   C805    1.390   .     A
C804   H814    1.079   .     S
C804   C806    1.387   .     A
C805   H807    1.084   .     S
C806   H808    1.084   .     S
C806   C26     1.394   1_556 S
C815   H817    1.084   .     S
C815   C824    1.399   .     A
C815   C1077   1.370   .     S
C816   H818    1.084   .     S
C816   C823    1.399   .     A
C816   C1336   1.370   1_545 S
C819   H821    1.084   .     S
C819   C823    1.395   .     A
C819   C1331   1.370   1_545 S
C820   H822    1.084   .     S
C820   C824    1.395   .     A
C820   C1074   1.370   .     S
C825   C855    1.472   .     S
C825   N832    1.384   .     A
C825   C913    1.416   .     S
C826   C858    1.471   .     S
C826   N831    1.384   .     A
C826   C1000   1.416   1_455 S
C827   H829    1.083   .     S
C827   N831    1.357   .     A
C827   C997    1.416   1_455 S
C828   H830    1.083   .     S
C828   N832    1.357   .     A
C828   C912    1.416   .     S
O833   C834    1.409   .     S
C834   H836    1.113   .     S
C834   H835    1.115   .     S
C834   C1009   1.530   1_455 S
C837   C840    1.525   .     S
C837   H838    1.112   .     S
C837   C920    1.530   .     S
C837   H65     1.112   1_556 S
C840   H843    1.111   .     S
C840   H325    1.110   1_556 S
C840   H68     1.110   1_556 S
H841   C582    1.110   1_545 S
O844   C931    1.408   .     S
C845   O1016   1.408   1_455 S
C845   H244    1.114   1_455 S
C845   H1019   1.115   1_455 S
H846   C157    1.114   1_556 S
H847   C931    1.115   .     S
C848   H850    1.112   .     S
C848   C851    1.524   .     S
C848   H849    1.111   .     S
C848   C71     1.529   1_556 S
C851   H853    1.110   .     S
C851   H854    1.110   .     S
C851   H78     1.111   1_556 S
C855   O857    1.217   .     D
C855   H942    1.086   .     S
H856   C1027   1.086   1_455 S
C858   O860    1.217   .     D
C858   H1031   1.085   1_455 S
H859   C944    1.085   .     S
O861   C865    1.290   .     A
O861   Zn873   2.003   .     S
O862   C866    1.290   .     A
O862   Zn874   2.003   .     S
O863   Zn874   1.993   .     S
O863   C865    1.285   .     A
O864   Zn873   1.993   .     S
O864   C866    1.285   .     A
C865   C910    1.419   .     S
C866   C909    1.419   .     S
O867   C871    1.301   .     A
O867   Zn873   1.966   .     S
O868   Zn874   1.966   .     S
O868   C872    1.299   .     A
O869   Zn874   1.908   .     S
O869   C871    1.295   .     A
O870   C872    1.296   .     A
O870   Zn873   1.908   .     S
C871   C875    1.460   .     S
C872   C876    1.459   .     S
Zn873  N917    2.021   .     S
Zn874  N918    2.021   .     S
C875   C879    1.397   .     A
C875   C881    1.390   .     A
C876   C880    1.396   .     A
C876   C882    1.393   .     A
C877   O919    1.383   .     S
C877   C885    1.414   .     A
C877   C879    1.402   .     A
C878   C886    1.413   .     A
C878   O930    1.382   .     S
C878   C880    1.398   .     A
C879   H898    1.079   .     S
C880   H897    1.081   .     S
C881   H896    1.079   .     S
C881   C883    1.393   .     A
C882   H895    1.076   .     S
C882   C884    1.395   .     A
C883   C887    1.418   .     A
C883   C885    1.418   .     A
C884   C886    1.421   .     A
C884   C888    1.421   .     A
C885   C117    1.395   1_556 S
C887   C890    1.416   .     A
C887   C114    1.412   1_556 S
C888   C889    1.418   .     A
C889   H899    1.078   .     S
C889   C891    1.390   .     A
C890   H900    1.079   .     S
C890   C892    1.387   .     A
C891   H893    1.084   .     S
C892   H894    1.084   .     S
C892   C112    1.394   1_556 S
C901   H903    1.084   .     S
C901   C910    1.399   .     A
C901   C1163   1.370   .     S
C902   H904    1.084   .     S
C902   C909    1.399   .     A
C902   C1422   1.370   1_545 S
C905   H907    1.084   .     S
C905   C909    1.395   .     A
C905   C1417   1.370   1_545 S
C906   H908    1.084   .     S
C906   C910    1.395   .     A
C906   C1160   1.370   .     S
C911   C941    1.472   .     S
C911   N918    1.384   .     A
C911   C999    1.416   .     S
C912   C944    1.471   .     S
C912   N917    1.384   .     A
C913   H915    1.083   .     S
C913   N917    1.357   .     A
C914   H916    1.083   .     S
C914   N918    1.357   .     A
C914   C998    1.416   .     S
O919   C920    1.409   .     S
C920   H922    1.113   .     S
C920   H921    1.115   .     S
C923   C926    1.525   .     S
C923   H924    1.112   .     S
C923   C1006   1.530   .     S
C923   H151    1.112   1_556 S
C926   H929    1.111   .     S
C926   H411    1.110   1_556 S
C926   H154    1.110   1_556 S
H927   C668    1.110   1_545 S
O930   C1017   1.408   .     S
H932   C243    1.114   1_556 S
H933   C1017   1.115   .     S
C934   H936    1.112   .     S
C934   C937    1.524   .     S
C934   H935    1.111   .     S
C934   C157    1.529   1_556 S
C937   H939    1.110   .     S
C937   H940    1.110   .     S
C937   H164    1.111   1_556 S
C941   O943    1.217   .     D
C941   H1028   1.086   .     S
C944   O946    1.217   .     D
H945   C1030   1.085   .     S
O947   C951    1.290   .     A
O947   Zn959   2.003   .     S
O948   C952    1.290   .     A
O948   Zn960   2.003   .     S
O949   Zn960   1.993   .     S
O949   C951    1.285   .     A
O950   Zn959   1.993   .     S
O950   C952    1.285   .     A
C951   C996    1.419   .     S
C952   C995    1.419   .     S
O953   C957    1.301   .     A
O953   Zn959   1.966   .     S
O954   Zn960   1.966   .     S
O954   C958    1.299   .     A
O955   Zn960   1.908   .     S
O955   C957    1.295   .     A
O956   C958    1.296   .     A
O956   Zn959   1.908   .     S
C957   C961    1.460   .     S
C958   C962    1.459   .     S
Zn959  N1003   2.021   .     S
Zn960  N1004   2.021   .     S
C961   C965    1.397   .     A
C961   C967    1.390   .     A
C962   C966    1.396   .     A
C962   C968    1.393   .     A
C963   O1005   1.383   .     S
C963   C971    1.414   .     A
C963   C965    1.402   .     A
C964   C972    1.413   .     A
C964   O1016   1.382   .     S
C964   C966    1.398   .     A
C965   H984    1.079   .     S
C966   H983    1.081   .     S
C967   H982    1.079   .     S
C967   C969    1.393   .     A
C968   H981    1.076   .     S
C968   C970    1.395   .     A
C969   C973    1.418   .     A
C969   C971    1.418   .     A
C970   C972    1.421   .     A
C970   C974    1.421   .     A
C971   C203    1.395   1_556 S
C973   C976    1.416   .     A
C973   C200    1.412   1_556 S
C974   C975    1.418   .     A
C975   H985    1.078   .     S
C975   C977    1.390   .     A
C976   H986    1.079   .     S
C976   C978    1.387   .     A
C977   H979    1.084   .     S
C978   H980    1.084   .     S
C978   C198    1.394   1_556 S
C987   H989    1.084   .     S
C987   C996    1.399   .     A
C987   C1249   1.370   .     S
C988   H990    1.084   .     S
C988   C995    1.399   .     A
C988   C1508   1.370   1_545 S
C991   H993    1.084   .     S
C991   C995    1.395   .     A
C991   C1503   1.370   1_545 S
C992   H994    1.084   .     S
C992   C996    1.395   .     A
C992   C1246   1.370   .     S
C997   C1027   1.472   .     S
C997   N1004   1.384   .     A
C997   C827    1.416   1_655 S
C998   C1030   1.471   .     S
C998   N1003   1.384   .     A
C999   H1001   1.083   .     S
C999   N1003   1.357   .     A
C1000  H1002   1.083   .     S
C1000  N1004   1.357   .     A
C1000  C826    1.416   1_655 S
O1005  C1006   1.409   .     S
C1006  H1008   1.113   .     S
C1006  H1007   1.115   .     S
C1009  C1012   1.525   .     S
C1009  H1010   1.112   .     S
C1009  C834    1.530   1_655 S
C1009  H237    1.112   1_556 S
C1012  H1015   1.111   .     S
C1012  H497    1.110   1_556 S
C1012  H240    1.110   1_556 S
H1013  C754    1.110   1_545 S
O1016  C845    1.408   1_655 S
H1018  C71     1.114   1_656 S
H1019  C845    1.115   1_655 S
C1020  H1022   1.112   .     S
C1020  C1023   1.524   .     S
C1020  H1021   1.111   .     S
C1020  C243    1.529   1_556 S
C1023  H1025   1.110   .     S
C1023  H1026   1.110   .     S
C1023  H250    1.111   1_556 S
C1027  O1029   1.217   .     D
C1027  H856    1.086   1_655 S
C1030  O1032   1.217   .     D
H1031  C858    1.085   1_655 S
O1033  C1037   1.290   .     A
O1033  Zn1045  2.003   .     S
O1034  C1038   1.290   .     A
O1034  Zn1046  2.003   .     S
O1035  Zn1046  1.993   .     S
O1035  C1037   1.285   .     A
O1036  Zn1045  1.993   .     S
O1036  C1038   1.285   .     A
C1037  C1082   1.419   .     S
C1038  C1081   1.419   .     S
O1039  C1043   1.301   .     A
O1039  Zn1045  1.966   .     S
O1040  Zn1046  1.966   .     S
O1040  C1044   1.299   .     A
O1041  Zn1046  1.908   .     S
O1041  C1043   1.295   .     A
O1042  C1044   1.296   .     A
O1042  Zn1045  1.908   .     S
C1043  C1047   1.460   .     S
C1044  C1048   1.459   .     S
Zn1045 N1089   2.021   .     S
Zn1046 N1090   2.021   .     S
C1047  C1051   1.397   .     A
C1047  C1053   1.390   .     A
C1048  C1052   1.396   .     A
C1048  C1054   1.393   .     A
C1049  O1091   1.383   .     S
C1049  C1057   1.414   .     A
C1049  C1051   1.402   .     A
C1050  C1058   1.413   .     A
C1050  O1102   1.382   .     S
C1050  C1052   1.398   .     A
C1051  H1070   1.079   .     S
C1052  H1069   1.081   .     S
C1053  H1068   1.079   .     S
C1053  C1055   1.393   .     A
C1054  H1067   1.076   .     S
C1054  C1056   1.395   .     A
C1055  C1059   1.418   .     A
C1055  C1057   1.418   .     A
C1056  C1058   1.421   .     A
C1056  C1060   1.421   .     A
C1057  C289    1.395   1_556 S
C1059  C1062   1.416   .     A
C1059  C286    1.412   1_556 S
C1060  C1061   1.418   .     A
C1061  H1071   1.078   .     S
C1061  C1063   1.390   .     A
C1062  H1072   1.079   .     S
C1062  C1064   1.387   .     A
C1063  H1065   1.084   .     S
C1064  H1066   1.084   .     S
C1064  C284    1.394   1_556 S
C1073  H1075   1.084   .     S
C1073  C1082   1.399   .     A
C1073  C1335   1.370   .     S
C1074  H1076   1.084   .     S
C1074  C1081   1.399   .     A
C1077  H1079   1.084   .     S
C1077  C1081   1.395   .     A
C1078  H1080   1.084   .     S
C1078  C1082   1.395   .     A
C1078  C1332   1.370   .     S
C1083  C1113   1.472   .     S
C1083  N1090   1.384   .     A
C1083  C1171   1.416   .     S
C1084  C1116   1.471   .     S
C1084  N1089   1.384   .     A
C1084  C1258   1.416   1_455 S
C1085  H1087   1.083   .     S
C1085  N1089   1.357   .     A
C1085  C1255   1.416   1_455 S
C1086  H1088   1.083   .     S
C1086  N1090   1.357   .     A
C1086  C1170   1.416   .     S
O1091  C1092   1.409   .     S
C1092  H1094   1.113   .     S
C1092  H1093   1.115   .     S
C1092  C1267   1.530   1_455 S
C1095  C1098   1.525   .     S
C1095  H1096   1.112   .     S
C1095  C1178   1.530   .     S
C1095  H323    1.112   1_556 S
C1098  H1101   1.111   .     S
C1098  H583    1.110   1_556 S
C1098  H326    1.110   1_556 S
O1102  C1189   1.408   .     S
C1103  O1274   1.408   1_455 S
C1103  H502    1.114   1_455 S
C1103  H1277   1.115   1_455 S
H1104  C415    1.114   1_556 S
H1105  C1189   1.115   .     S
C1106  H1108   1.112   .     S
C1106  C1109   1.524   .     S
C1106  H1107   1.111   .     S
C1106  C329    1.529   1_556 S
C1109  H1111   1.110   .     S
C1109  H1112   1.110   .     S
C1109  H336    1.111   1_556 S
C1113  O1115   1.217   .     D
C1113  H1200   1.086   .     S
H1114  C1285   1.086   1_455 S
C1116  O1118   1.217   .     D
C1116  H1289   1.085   1_455 S
H1117  C1202   1.085   .     S
O1119  C1123   1.290   .     A
O1119  Zn1131  2.003   .     S
O1120  C1124   1.290   .     A
O1120  Zn1132  2.003   .     S
O1121  Zn1132  1.993   .     S
O1121  C1123   1.285   .     A
O1122  Zn1131  1.993   .     S
O1122  C1124   1.285   .     A
C1123  C1168   1.419   .     S
C1124  C1167   1.419   .     S
O1125  C1129   1.301   .     A
O1125  Zn1131  1.966   .     S
O1126  Zn1132  1.966   .     S
O1126  C1130   1.299   .     A
O1127  Zn1132  1.908   .     S
O1127  C1129   1.295   .     A
O1128  C1130   1.296   .     A
O1128  Zn1131  1.908   .     S
C1129  C1133   1.460   .     S
C1130  C1134   1.459   .     S
Zn1131 N1175   2.021   .     S
Zn1132 N1176   2.021   .     S
C1133  C1137   1.397   .     A
C1133  C1139   1.390   .     A
C1134  C1138   1.396   .     A
C1134  C1140   1.393   .     A
C1135  O1177   1.383   .     S
C1135  C1143   1.414   .     A
C1135  C1137   1.402   .     A
C1136  C1144   1.413   .     A
C1136  O1188   1.382   .     S
C1136  C1138   1.398   .     A
C1137  H1156   1.079   .     S
C1138  H1155   1.081   .     S
C1139  H1154   1.079   .     S
C1139  C1141   1.393   .     A
C1140  H1153   1.076   .     S
C1140  C1142   1.395   .     A
C1141  C1145   1.418   .     A
C1141  C1143   1.418   .     A
C1142  C1144   1.421   .     A
C1142  C1146   1.421   .     A
C1143  C375    1.395   1_556 S
C1145  C1148   1.416   .     A
C1145  C372    1.412   1_556 S
C1146  C1147   1.418   .     A
C1147  H1157   1.078   .     S
C1147  C1149   1.390   .     A
C1148  H1158   1.079   .     S
C1148  C1150   1.387   .     A
C1149  H1151   1.084   .     S
C1150  H1152   1.084   .     S
C1150  C370    1.394   1_556 S
C1159  H1161   1.084   .     S
C1159  C1168   1.399   .     A
C1159  C1421   1.370   .     S
C1160  H1162   1.084   .     S
C1160  C1167   1.399   .     A
C1163  H1165   1.084   .     S
C1163  C1167   1.395   .     A
C1164  H1166   1.084   .     S
C1164  C1168   1.395   .     A
C1164  C1418   1.370   .     S
C1169  C1199   1.472   .     S
C1169  N1176   1.384   .     A
C1169  C1257   1.416   .     S
C1170  C1202   1.471   .     S
C1170  N1175   1.384   .     A
C1171  H1173   1.083   .     S
C1171  N1175   1.357   .     A
C1172  H1174   1.083   .     S
C1172  N1176   1.357   .     A
C1172  C1256   1.416   .     S
O1177  C1178   1.409   .     S
C1178  H1180   1.113   .     S
C1178  H1179   1.115   .     S
C1181  C1184   1.525   .     S
C1181  H1182   1.112   .     S
C1181  C1264   1.530   .     S
C1181  H409    1.112   1_556 S
C1184  H1187   1.111   .     S
C1184  H669    1.110   1_556 S
C1184  H412    1.110   1_556 S
O1188  C1275   1.408   .     S
H1190  C501    1.114   1_556 S
H1191  C1275   1.115   .     S
C1192  H1194   1.112   .     S
C1192  C1195   1.524   .     S
C1192  H1193   1.111   .     S
C1192  C415    1.529   1_556 S
C1195  H1197   1.110   .     S
C1195  H1198   1.110   .     S
C1195  H422    1.111   1_556 S
C1199  O1201   1.217   .     D
C1199  H1286   1.086   .     S
C1202  O1204   1.217   .     D
H1203  C1288   1.085   .     S
O1205  C1209   1.290   .     A
O1205  Zn1217  2.003   .     S
O1206  C1210   1.290   .     A
O1206  Zn1218  2.003   .     S
O1207  Zn1218  1.993   .     S
O1207  C1209   1.285   .     A
O1208  Zn1217  1.993   .     S
O1208  C1210   1.285   .     A
C1209  C1254   1.419   .     S
C1210  C1253   1.419   .     S
O1211  C1215   1.301   .     A
O1211  Zn1217  1.966   .     S
O1212  Zn1218  1.966   .     S
O1212  C1216   1.299   .     A
O1213  Zn1218  1.908   .     S
O1213  C1215   1.295   .     A
O1214  C1216   1.296   .     A
O1214  Zn1217  1.908   .     S
C1215  C1219   1.460   .     S
C1216  C1220   1.459   .     S
Zn1217 N1261   2.021   .     S
Zn1218 N1262   2.021   .     S
C1219  C1223   1.397   .     A
C1219  C1225   1.390   .     A
C1220  C1224   1.396   .     A
C1220  C1226   1.393   .     A
C1221  O1263   1.383   .     S
C1221  C1229   1.414   .     A
C1221  C1223   1.402   .     A
C1222  C1230   1.413   .     A
C1222  O1274   1.382   .     S
C1222  C1224   1.398   .     A
C1223  H1242   1.079   .     S
C1224  H1241   1.081   .     S
C1225  H1240   1.079   .     S
C1225  C1227   1.393   .     A
C1226  H1239   1.076   .     S
C1226  C1228   1.395   .     A
C1227  C1231   1.418   .     A
C1227  C1229   1.418   .     A
C1228  C1230   1.421   .     A
C1228  C1232   1.421   .     A
C1229  C461    1.395   1_556 S
C1231  C1234   1.416   .     A
C1231  C458    1.412   1_556 S
C1232  C1233   1.418   .     A
C1233  H1243   1.078   .     S
C1233  C1235   1.390   .     A
C1234  H1244   1.079   .     S
C1234  C1236   1.387   .     A
C1235  H1237   1.084   .     S
C1236  H1238   1.084   .     S
C1236  C456    1.394   1_556 S
C1245  H1247   1.084   .     S
C1245  C1254   1.399   .     A
C1245  C1507   1.370   .     S
C1246  H1248   1.084   .     S
C1246  C1253   1.399   .     A
C1249  H1251   1.084   .     S
C1249  C1253   1.395   .     A
C1250  H1252   1.084   .     S
C1250  C1254   1.395   .     A
C1250  C1504   1.370   .     S
C1255  C1285   1.472   .     S
C1255  N1262   1.384   .     A
C1255  C1085   1.416   1_655 S
C1256  C1288   1.471   .     S
C1256  N1261   1.384   .     A
C1257  H1259   1.083   .     S
C1257  N1261   1.357   .     A
C1258  H1260   1.083   .     S
C1258  N1262   1.357   .     A
C1258  C1084   1.416   1_655 S
O1263  C1264   1.409   .     S
C1264  H1266   1.113   .     S
C1264  H1265   1.115   .     S
C1267  C1270   1.525   .     S
C1267  H1268   1.112   .     S
C1267  C1092   1.530   1_655 S
C1267  H495    1.112   1_556 S
C1270  H1273   1.111   .     S
C1270  H755    1.110   1_556 S
C1270  H498    1.110   1_556 S
O1274  C1103   1.408   1_655 S
H1276  C329    1.114   1_656 S
H1277  C1103   1.115   1_655 S
C1278  H1280   1.112   .     S
C1278  C1281   1.524   .     S
C1278  H1279   1.111   .     S
C1278  C501    1.529   1_556 S
C1281  H1283   1.110   .     S
C1281  H1284   1.110   .     S
C1281  H508    1.111   1_556 S
C1285  O1287   1.217   .     D
C1285  H1114   1.086   1_655 S
C1288  O1290   1.217   .     D
H1289  C1116   1.085   1_655 S
O1291  C1295   1.290   .     A
O1291  Zn1303  2.003   .     S
O1292  C1296   1.290   .     A
O1292  Zn1304  2.003   .     S
O1293  Zn1304  1.993   .     S
O1293  C1295   1.285   .     A
O1294  Zn1303  1.993   .     S
O1294  C1296   1.285   .     A
C1295  C1340   1.419   .     S
C1296  C1339   1.419   .     S
O1297  C1301   1.301   .     A
O1297  Zn1303  1.966   .     S
O1298  Zn1304  1.966   .     S
O1298  C1302   1.299   .     A
O1299  Zn1304  1.908   .     S
O1299  C1301   1.295   .     A
O1300  C1302   1.296   .     A
O1300  Zn1303  1.908   .     S
C1301  C1305   1.460   .     S
C1302  C1306   1.459   .     S
Zn1303 N1347   2.021   .     S
Zn1304 N1348   2.021   .     S
C1305  C1309   1.397   .     A
C1305  C1311   1.390   .     A
C1306  C1310   1.396   .     A
C1306  C1312   1.393   .     A
C1307  O1349   1.383   .     S
C1307  C1315   1.414   .     A
C1307  C1309   1.402   .     A
C1308  C1316   1.413   .     A
C1308  O1360   1.382   .     S
C1308  C1310   1.398   .     A
C1309  H1328   1.079   .     S
C1310  H1327   1.081   .     S
C1311  H1326   1.079   .     S
C1311  C1313   1.393   .     A
C1312  H1325   1.076   .     S
C1312  C1314   1.395   .     A
C1313  C1317   1.418   .     A
C1313  C1315   1.418   .     A
C1314  C1316   1.421   .     A
C1314  C1318   1.421   .     A
C1315  C547    1.395   1_556 S
C1317  C1320   1.416   .     A
C1317  C544    1.412   1_556 S
C1318  C1319   1.418   .     A
C1319  H1329   1.078   .     S
C1319  C1321   1.390   .     A
C1320  H1330   1.079   .     S
C1320  C1322   1.387   .     A
C1321  H1323   1.084   .     S
C1322  H1324   1.084   .     S
C1322  C542    1.394   1_556 S
C1331  H1333   1.084   .     S
C1331  C1340   1.399   .     A
C1331  C819    1.370   1_565 S
C1332  H1334   1.084   .     S
C1332  C1339   1.399   .     A
C1335  H1337   1.084   .     S
C1335  C1339   1.395   .     A
C1336  H1338   1.084   .     S
C1336  C1340   1.395   .     A
C1336  C816    1.370   1_565 S
C1341  C1371   1.472   .     S
C1341  N1348   1.384   .     A
C1341  C1429   1.416   .     S
C1342  C1374   1.471   .     S
C1342  N1347   1.384   .     A
C1342  C1516   1.416   1_455 S
C1343  H1345   1.083   .     S
C1343  N1347   1.357   .     A
C1343  C1513   1.416   1_455 S
C1344  H1346   1.083   .     S
C1344  N1348   1.357   .     A
C1344  C1428   1.416   .     S
O1349  C1350   1.409   .     S
C1350  H1352   1.113   .     S
C1350  H1351   1.115   .     S
C1350  C1525   1.530   1_455 S
C1353  C1356   1.525   .     S
C1353  H1354   1.112   .     S
C1353  C1436   1.530   .     S
C1353  H581    1.112   1_556 S
C1356  H1359   1.111   .     S
C1356  H67     1.110   1_566 S
C1356  H584    1.110   1_556 S
O1360  C1447   1.408   .     S
C1361  O1532   1.408   1_455 S
C1361  H760    1.114   1_455 S
C1361  H1535   1.115   1_455 S
H1362  C673    1.114   1_556 S
H1363  C1447   1.115   .     S
C1364  H1366   1.112   .     S
C1364  C1367   1.524   .     S
C1364  H1365   1.111   .     S
C1364  C587    1.529   1_556 S
C1367  H1369   1.110   .     S
C1367  H1370   1.110   .     S
C1367  H594    1.111   1_556 S
C1371  O1373   1.217   .     D
C1371  H1458   1.086   .     S
H1372  C1543   1.086   1_455 S
C1374  O1376   1.217   .     D
C1374  H1547   1.085   1_455 S
H1375  C1460   1.085   .     S
O1377  C1381   1.290   .     A
O1377  Zn1389  2.003   .     S
O1378  C1382   1.290   .     A
O1378  Zn1390  2.003   .     S
O1379  Zn1390  1.993   .     S
O1379  C1381   1.285   .     A
O1380  Zn1389  1.993   .     S
O1380  C1382   1.285   .     A
C1381  C1426   1.419   .     S
C1382  C1425   1.419   .     S
O1383  C1387   1.301   .     A
O1383  Zn1389  1.966   .     S
O1384  Zn1390  1.966   .     S
O1384  C1388   1.299   .     A
O1385  Zn1390  1.908   .     S
O1385  C1387   1.295   .     A
O1386  C1388   1.296   .     A
O1386  Zn1389  1.908   .     S
C1387  C1391   1.460   .     S
C1388  C1392   1.459   .     S
Zn1389 N1433   2.021   .     S
Zn1390 N1434   2.021   .     S
C1391  C1395   1.397   .     A
C1391  C1397   1.390   .     A
C1392  C1396   1.396   .     A
C1392  C1398   1.393   .     A
C1393  O1435   1.383   .     S
C1393  C1401   1.414   .     A
C1393  C1395   1.402   .     A
C1394  C1402   1.413   .     A
C1394  O1446   1.382   .     S
C1394  C1396   1.398   .     A
C1395  H1414   1.079   .     S
C1396  H1413   1.081   .     S
C1397  H1412   1.079   .     S
C1397  C1399   1.393   .     A
C1398  H1411   1.076   .     S
C1398  C1400   1.395   .     A
C1399  C1403   1.418   .     A
C1399  C1401   1.418   .     A
C1400  C1402   1.421   .     A
C1400  C1404   1.421   .     A
C1401  C633    1.395   1_556 S
C1403  C1406   1.416   .     A
C1403  C630    1.412   1_556 S
C1404  C1405   1.418   .     A
C1405  H1415   1.078   .     S
C1405  C1407   1.390   .     A
C1406  H1416   1.079   .     S
C1406  C1408   1.387   .     A
C1407  H1409   1.084   .     S
C1408  H1410   1.084   .     S
C1408  C628    1.394   1_556 S
C1417  H1419   1.084   .     S
C1417  C1426   1.399   .     A
C1417  C905    1.370   1_565 S
C1418  H1420   1.084   .     S
C1418  C1425   1.399   .     A
C1421  H1423   1.084   .     S
C1421  C1425   1.395   .     A
C1422  H1424   1.084   .     S
C1422  C1426   1.395   .     A
C1422  C902    1.370   1_565 S
C1427  C1457   1.472   .     S
C1427  N1434   1.384   .     A
C1427  C1515   1.416   .     S
C1428  C1460   1.471   .     S
C1428  N1433   1.384   .     A
C1429  H1431   1.083   .     S
C1429  N1433   1.357   .     A
C1430  H1432   1.083   .     S
C1430  N1434   1.357   .     A
C1430  C1514   1.416   .     S
O1435  C1436   1.409   .     S
C1436  H1438   1.113   .     S
C1436  H1437   1.115   .     S
C1439  C1442   1.525   .     S
C1439  H1440   1.112   .     S
C1439  C1522   1.530   .     S
C1439  H667    1.112   1_556 S
C1442  H1445   1.111   .     S
C1442  H153    1.110   1_566 S
C1442  H670    1.110   1_556 S
O1446  C1533   1.408   .     S
H1448  C759    1.114   1_556 S
H1449  C1533   1.115   .     S
C1450  H1452   1.112   .     S
C1450  C1453   1.524   .     S
C1450  H1451   1.111   .     S
C1450  C673    1.529   1_556 S
C1453  H1455   1.110   .     S
C1453  H1456   1.110   .     S
C1453  H680    1.111   1_556 S
C1457  O1459   1.217   .     D
C1457  H1544   1.086   .     S
C1460  O1462   1.217   .     D
H1461  C1546   1.085   .     S
O1463  C1467   1.290   .     A
O1463  Zn1475  2.003   .     S
O1464  C1468   1.290   .     A
O1464  Zn1476  2.003   .     S
O1465  Zn1476  1.993   .     S
O1465  C1467   1.285   .     A
O1466  Zn1475  1.993   .     S
O1466  C1468   1.285   .     A
C1467  C1512   1.419   .     S
C1468  C1511   1.419   .     S
O1469  C1473   1.301   .     A
O1469  Zn1475  1.966   .     S
O1470  Zn1476  1.966   .     S
O1470  C1474   1.299   .     A
O1471  Zn1476  1.908   .     S
O1471  C1473   1.295   .     A
O1472  C1474   1.296   .     A
O1472  Zn1475  1.908   .     S
C1473  C1477   1.460   .     S
C1474  C1478   1.459   .     S
Zn1475 N1519   2.021   .     S
Zn1476 N1520   2.021   .     S
C1477  C1481   1.397   .     A
C1477  C1483   1.390   .     A
C1478  C1482   1.396   .     A
C1478  C1484   1.393   .     A
C1479  O1521   1.383   .     S
C1479  C1487   1.414   .     A
C1479  C1481   1.402   .     A
C1480  C1488   1.413   .     A
C1480  O1532   1.382   .     S
C1480  C1482   1.398   .     A
C1481  H1500   1.079   .     S
C1482  H1499   1.081   .     S
C1483  H1498   1.079   .     S
C1483  C1485   1.393   .     A
C1484  H1497   1.076   .     S
C1484  C1486   1.395   .     A
C1485  C1489   1.418   .     A
C1485  C1487   1.418   .     A
C1486  C1488   1.421   .     A
C1486  C1490   1.421   .     A
C1487  C719    1.395   1_556 S
C1489  C1492   1.416   .     A
C1489  C716    1.412   1_556 S
C1490  C1491   1.418   .     A
C1491  H1501   1.078   .     S
C1491  C1493   1.390   .     A
C1492  H1502   1.079   .     S
C1492  C1494   1.387   .     A
C1493  H1495   1.084   .     S
C1494  H1496   1.084   .     S
C1494  C714    1.394   1_556 S
C1503  H1505   1.084   .     S
C1503  C1512   1.399   .     A
C1503  C991    1.370   1_565 S
C1504  H1506   1.084   .     S
C1504  C1511   1.399   .     A
C1507  H1509   1.084   .     S
C1507  C1511   1.395   .     A
C1508  H1510   1.084   .     S
C1508  C1512   1.395   .     A
C1508  C988    1.370   1_565 S
C1513  C1543   1.472   .     S
C1513  N1520   1.384   .     A
C1513  C1343   1.416   1_655 S
C1514  C1546   1.471   .     S
C1514  N1519   1.384   .     A
C1515  H1517   1.083   .     S
C1515  N1519   1.357   .     A
C1516  H1518   1.083   .     S
C1516  N1520   1.357   .     A
C1516  C1342   1.416   1_655 S
O1521  C1522   1.409   .     S
C1522  H1524   1.113   .     S
C1522  H1523   1.115   .     S
C1525  C1528   1.525   .     S
C1525  H1526   1.112   .     S
C1525  C1350   1.530   1_655 S
C1525  H753    1.112   1_556 S
C1528  H1531   1.111   .     S
C1528  H239    1.110   1_566 S
C1528  H756    1.110   1_556 S
O1532  C1361   1.408   1_655 S
H1534  C587    1.114   1_656 S
H1535  C1361   1.115   1_655 S
C1536  H1538   1.112   .     S
C1536  C1539   1.524   .     S
C1536  H1537   1.111   .     S
C1536  C759    1.529   1_556 S
C1539  H1541   1.110   .     S
C1539  H1542   1.110   .     S
C1539  H766    1.111   1_556 S
C1543  O1545   1.217   .     D
C1543  H1372   1.086   1_655 S
C1546  O1548   1.217   .     D
H1547  C1374   1.085   1_655 S
