data_str_m3_o1_o2_pcu_sym.75
_audit_creation_date              2020-01-03
_audit_creation_method            'Materials Studio'
_symmetry_space_group_name_H-M    'P1'
_symmetry_Int_Tables_number       1
_symmetry_cell_setting            triclinic
loop_
_symmetry_equiv_pos_as_xyz
  x,y,z
_cell_length_a                    32.8774
_cell_length_b                    29.9626
_cell_length_c                    29.9639
_cell_angle_alpha                 90.0040
_cell_angle_beta                  95.0505
_cell_angle_gamma                 89.9968
loop_
_atom_site_label
_atom_site_type_symbol
_atom_site_fract_x
_atom_site_fract_y
_atom_site_fract_z
_atom_site_U_iso_or_equiv
_atom_site_adp_type
_atom_site_occupancy
Br1    Br    0.21971   0.05391   0.33083   0.00000  Uiso   1.00
Br2    Br    0.11790   0.28055   0.16485   0.00000  Uiso   1.00
Br3    Br    0.11364   0.05390   0.16916   0.00000  Uiso   1.00
Br4    Br    0.21541   0.28056   0.33517   0.00000  Uiso   1.00
Br5    Br    0.20639   0.26033   0.11934   0.00000  Uiso   1.00
Br6    Br    0.12848   0.07060   0.37646   0.00000  Uiso   1.00
Br7    Br    0.12698   0.26033   0.38072   0.00000  Uiso   1.00
Br8    Br    0.20488   0.07058   0.12358   0.00000  Uiso   1.00
C9     C     0.08640   0.16744   0.24679   0.00000  Uiso   1.00
C10    C     0.31228   0.21301   0.25293   0.00000  Uiso   1.00
C11    C     0.31506   0.13209   0.25973   0.00000  Uiso   1.00
C12    C     0.02105   0.21301   0.24709   0.00000  Uiso   1.00
C13    C     0.18172   0.20401   0.04719   0.00000  Uiso   1.00
C14    C     0.15467   0.12388   0.45125   0.00000  Uiso   1.00
C15    C     0.15176   0.20402   0.45284   0.00000  Uiso   1.00
C16    C     0.17878   0.12388   0.04876   0.00000  Uiso   1.00
C17    C     0.18629   0.20528   0.09347   0.00000  Uiso   1.00
C18    C     0.14866   0.12475   0.40493   0.00000  Uiso   1.00
C19    C     0.14713   0.20529   0.40656   0.00000  Uiso   1.00
C20    C     0.24694   0.16744   0.25321   0.00000  Uiso   1.00
C21    C     0.18474   0.12475   0.09509   0.00000  Uiso   1.00
C22    C     0.18134   0.16570   0.11779   0.00000  Uiso   1.00
C23    C     0.15205   0.16571   0.38223   0.00000  Uiso   1.00
C24    C     0.17273   0.16374   0.02442   0.00000  Uiso   1.00
C25    C     0.16075   0.16375   0.47559   0.00000  Uiso   1.00
C26    C     0.29184   0.17112   0.25683   0.00000  Uiso   1.00
C27    C     0.04149   0.17112   0.24316   0.00000  Uiso   1.00
C28    C     0.02620   0.09582   0.20732   0.00000  Uiso   1.00
C29    C     0.32392   0.09130   0.17071   0.00000  Uiso   1.00
C30    C     0.33304   0.05635   0.13588   0.00000  Uiso   1.00
C31    C     0.17192   0.16656   0.16482   0.00000  Uiso   1.00
C32    C     0.29161   0.25802   0.25929   0.00000  Uiso   1.00
C33    C     0.27285   0.27807   0.21470   0.00000  Uiso   1.00
C34    C     0.27367   0.32876   0.21518   0.00000  Uiso   1.00
C35    C     0.30716   0.09584   0.29270   0.00000  Uiso   1.00
C36    C     0.00943   0.09138   0.32933   0.00000  Uiso   1.00
C37    C     0.00032   0.05646   0.36418   0.00000  Uiso   1.00
C38    C     0.04172   0.25803   0.24079   0.00000  Uiso   1.00
C39    C     0.06044   0.27804   0.28540   0.00000  Uiso   1.00
C40    C     0.05971   0.32874   0.28494   0.00000  Uiso   1.00
C41    C     0.16142   0.16656   0.33518   0.00000  Uiso   1.00
C42    C     0.18749   0.02381   0.28381   0.00000  Uiso   1.00
C43    C     0.14648   0.30968   0.21560   0.00000  Uiso   1.00
C44    C     0.14585   0.02381   0.21618   0.00000  Uiso   1.00
C45    C     0.18686   0.30968   0.28440   0.00000  Uiso   1.00
C46    C     0.01827   0.13210   0.24026   0.00000  Uiso   1.00
H47    H     0.18618   0.23485   0.02969   0.00000  Uiso   1.00
H48    H     0.05304   0.10527   0.18990   0.00000  Uiso   1.00
H49    H     0.03185   0.06376   0.22502   0.00000  Uiso   1.00
H50    H     0.25711   0.00831   0.24308   0.00000  Uiso   1.00
H51    H     0.30562   0.00745   0.21917   0.00000  Uiso   1.00
H52    H     0.25874   0.00831   0.18312   0.00000  Uiso   1.00
H53    H     0.28938   0.26618   0.18615   0.00000  Uiso   1.00
H54    H     0.24059   0.26798   0.20829   0.00000  Uiso   1.00
H55    H     0.26966   0.25517   0.28412   0.00000  Uiso   1.00
H56    H     0.31253   0.28207   0.27731   0.00000  Uiso   1.00
H57    H     0.30750   0.06736   0.38257   0.00000  Uiso   1.00
H58    H     0.15330   0.09179   0.46723   0.00000  Uiso   1.00
H59    H     0.32627   0.02378   0.34795   0.00000  Uiso   1.00
H60    H     0.02745   0.05225   0.38862   0.00000  Uiso   1.00
H61    H     0.03783   0.08186   0.31426   0.00000  Uiso   1.00
H62    H     0.01494   0.12404   0.34644   0.00000  Uiso   1.00
H63    H     0.28030   0.10527   0.31008   0.00000  Uiso   1.00
H64    H     0.30156   0.06376   0.27501   0.00000  Uiso   1.00
H65    H     0.07641   0.00827   0.25716   0.00000  Uiso   1.00
H66    H     0.02779   0.00750   0.28081   0.00000  Uiso   1.00
H67    H     0.07453   0.00824   0.31707   0.00000  Uiso   1.00
H68    H     0.04384   0.26618   0.31392   0.00000  Uiso   1.00
H69    H     0.14731   0.23486   0.47035   0.00000  Uiso   1.00
H70    H     0.09267   0.26787   0.29187   0.00000  Uiso   1.00
H71    H     0.06369   0.25523   0.21597   0.00000  Uiso   1.00
H72    H     0.02079   0.28209   0.22278   0.00000  Uiso   1.00
H73    H     0.18017   0.09178   0.03278   0.00000  Uiso   1.00
H74    H     0.02582   0.06727   0.11744   0.00000  Uiso   1.00
H75    H     0.00715   0.02370   0.15214   0.00000  Uiso   1.00
H76    H     0.30589   0.05208   0.11148   0.00000  Uiso   1.00
H77    H     0.29553   0.08178   0.18579   0.00000  Uiso   1.00
H78    H     0.31838   0.12395   0.15356   0.00000  Uiso   1.00
N79    N     0.16667   0.28573   0.25000   0.00000  Uiso   1.00
N80    N     0.16667   0.04760   0.25000   0.00000  Uiso   1.00
O81    O     0.10559   0.20487   0.24999   0.00000  Uiso   1.00
O82    O     0.22774   0.12846   0.25000   0.00000  Uiso   1.00
O83    O     0.22774   0.20487   0.25000   0.00000  Uiso   1.00
O84    O     0.10559   0.12846   0.24999   0.00000  Uiso   1.00
O85    O     0.16666   0.20489   0.18453   0.00000  Uiso   1.00
O86    O     0.16667   0.12845   0.31547   0.00000  Uiso   1.00
O87    O     0.16667   0.20489   0.31547   0.00000  Uiso   1.00
O88    O     0.16666   0.12845   0.18453   0.00000  Uiso   1.00
Zn89   Zn    0.16667   0.21771   0.25000   0.00000  Uiso   1.00
Zn90   Zn    0.16667   0.11563   0.25000   0.00000  Uiso   1.00
Br91   Br    0.55304   0.05391   0.33083   0.00000  Uiso   1.00
Br92   Br    0.45124   0.28055   0.16485   0.00000  Uiso   1.00
Br93   Br    0.44697   0.05390   0.16916   0.00000  Uiso   1.00
Br94   Br    0.54875   0.28056   0.33517   0.00000  Uiso   1.00
Br95   Br    0.53973   0.26033   0.11934   0.00000  Uiso   1.00
Br96   Br    0.46181   0.07060   0.37646   0.00000  Uiso   1.00
Br97   Br    0.46031   0.26033   0.38072   0.00000  Uiso   1.00
Br98   Br    0.53822   0.07058   0.12358   0.00000  Uiso   1.00
C99    C     0.41973   0.16744   0.24679   0.00000  Uiso   1.00
C100   C     0.64561   0.21301   0.25293   0.00000  Uiso   1.00
C101   C     0.64840   0.13209   0.25973   0.00000  Uiso   1.00
C102   C     0.35438   0.21301   0.24709   0.00000  Uiso   1.00
C103   C     0.51505   0.20401   0.04719   0.00000  Uiso   1.00
C104   C     0.48801   0.12388   0.45125   0.00000  Uiso   1.00
C105   C     0.48509   0.20402   0.45284   0.00000  Uiso   1.00
C106   C     0.51211   0.12388   0.04876   0.00000  Uiso   1.00
C107   C     0.51963   0.20528   0.09347   0.00000  Uiso   1.00
C108   C     0.48200   0.12475   0.40493   0.00000  Uiso   1.00
C109   C     0.48046   0.20529   0.40656   0.00000  Uiso   1.00
C110   C     0.58027   0.16744   0.25321   0.00000  Uiso   1.00
C111   C     0.51807   0.12475   0.09509   0.00000  Uiso   1.00
C112   C     0.51467   0.16570   0.11779   0.00000  Uiso   1.00
C113   C     0.48538   0.16571   0.38223   0.00000  Uiso   1.00
C114   C     0.50606   0.16374   0.02442   0.00000  Uiso   1.00
C115   C     0.49409   0.16375   0.47559   0.00000  Uiso   1.00
C116   C     0.62518   0.17112   0.25683   0.00000  Uiso   1.00
C117   C     0.37482   0.17112   0.24316   0.00000  Uiso   1.00
C118   C     0.35953   0.09582   0.20732   0.00000  Uiso   1.00
C119   C     0.65726   0.09130   0.17071   0.00000  Uiso   1.00
C120   C     0.66637   0.05635   0.13588   0.00000  Uiso   1.00
C121   C     0.50525   0.16656   0.16482   0.00000  Uiso   1.00
C122   C     0.62495   0.25802   0.25929   0.00000  Uiso   1.00
C123   C     0.60618   0.27807   0.21470   0.00000  Uiso   1.00
C124   C     0.60700   0.32876   0.21518   0.00000  Uiso   1.00
C125   C     0.64050   0.09584   0.29270   0.00000  Uiso   1.00
C126   C     0.34276   0.09138   0.32933   0.00000  Uiso   1.00
C127   C     0.33366   0.05646   0.36418   0.00000  Uiso   1.00
C128   C     0.37505   0.25803   0.24079   0.00000  Uiso   1.00
C129   C     0.39378   0.27804   0.28540   0.00000  Uiso   1.00
C130   C     0.39304   0.32874   0.28494   0.00000  Uiso   1.00
C131   C     0.49476   0.16656   0.33518   0.00000  Uiso   1.00
C132   C     0.52083   0.02381   0.28381   0.00000  Uiso   1.00
C133   C     0.47981   0.30968   0.21560   0.00000  Uiso   1.00
C134   C     0.47918   0.02381   0.21618   0.00000  Uiso   1.00
C135   C     0.52019   0.30968   0.28440   0.00000  Uiso   1.00
C136   C     0.35161   0.13210   0.24026   0.00000  Uiso   1.00
H137   H     0.51952   0.23485   0.02969   0.00000  Uiso   1.00
H138   H     0.38637   0.10527   0.18990   0.00000  Uiso   1.00
H139   H     0.36519   0.06376   0.22502   0.00000  Uiso   1.00
H140   H     0.59045   0.00831   0.24308   0.00000  Uiso   1.00
H141   H     0.63896   0.00745   0.21917   0.00000  Uiso   1.00
H142   H     0.59207   0.00831   0.18312   0.00000  Uiso   1.00
H143   H     0.62272   0.26618   0.18615   0.00000  Uiso   1.00
H144   H     0.57393   0.26798   0.20829   0.00000  Uiso   1.00
H145   H     0.60299   0.25517   0.28412   0.00000  Uiso   1.00
H146   H     0.64587   0.28207   0.27731   0.00000  Uiso   1.00
H147   H     0.64084   0.06736   0.38257   0.00000  Uiso   1.00
H148   H     0.48663   0.09179   0.46723   0.00000  Uiso   1.00
H149   H     0.65960   0.02378   0.34795   0.00000  Uiso   1.00
H150   H     0.36079   0.05225   0.38862   0.00000  Uiso   1.00
H151   H     0.37116   0.08186   0.31426   0.00000  Uiso   1.00
H152   H     0.34827   0.12404   0.34644   0.00000  Uiso   1.00
H153   H     0.61364   0.10527   0.31008   0.00000  Uiso   1.00
H154   H     0.63489   0.06376   0.27501   0.00000  Uiso   1.00
H155   H     0.40974   0.00827   0.25716   0.00000  Uiso   1.00
H156   H     0.36112   0.00750   0.28081   0.00000  Uiso   1.00
H157   H     0.40786   0.00824   0.31707   0.00000  Uiso   1.00
H158   H     0.37717   0.26618   0.31392   0.00000  Uiso   1.00
H159   H     0.48065   0.23486   0.47035   0.00000  Uiso   1.00
H160   H     0.42600   0.26787   0.29187   0.00000  Uiso   1.00
H161   H     0.39702   0.25523   0.21597   0.00000  Uiso   1.00
H162   H     0.35412   0.28209   0.22278   0.00000  Uiso   1.00
H163   H     0.51350   0.09178   0.03278   0.00000  Uiso   1.00
H164   H     0.35915   0.06727   0.11744   0.00000  Uiso   1.00
H165   H     0.34049   0.02370   0.15214   0.00000  Uiso   1.00
H166   H     0.63922   0.05208   0.11148   0.00000  Uiso   1.00
H167   H     0.62886   0.08178   0.18579   0.00000  Uiso   1.00
H168   H     0.65171   0.12395   0.15356   0.00000  Uiso   1.00
N169   N     0.50000   0.28573   0.25000   0.00000  Uiso   1.00
N170   N     0.50000   0.04760   0.25000   0.00000  Uiso   1.00
O171   O     0.43892   0.20487   0.24999   0.00000  Uiso   1.00
O172   O     0.56108   0.12846   0.25000   0.00000  Uiso   1.00
O173   O     0.56108   0.20487   0.25000   0.00000  Uiso   1.00
O174   O     0.43892   0.12846   0.24999   0.00000  Uiso   1.00
O175   O     0.50000   0.20489   0.18453   0.00000  Uiso   1.00
O176   O     0.50000   0.12845   0.31547   0.00000  Uiso   1.00
O177   O     0.50000   0.20489   0.31547   0.00000  Uiso   1.00
O178   O     0.50000   0.12845   0.18453   0.00000  Uiso   1.00
Zn179  Zn    0.50000   0.21771   0.25000   0.00000  Uiso   1.00
Zn180  Zn    0.50000   0.11563   0.25000   0.00000  Uiso   1.00
Br181  Br    0.88637   0.05391   0.33083   0.00000  Uiso   1.00
Br182  Br    0.78457   0.28055   0.16485   0.00000  Uiso   1.00
Br183  Br    0.78031   0.05390   0.16916   0.00000  Uiso   1.00
Br184  Br    0.88208   0.28056   0.33517   0.00000  Uiso   1.00
Br185  Br    0.87306   0.26033   0.11934   0.00000  Uiso   1.00
Br186  Br    0.79515   0.07060   0.37646   0.00000  Uiso   1.00
Br187  Br    0.79364   0.26033   0.38072   0.00000  Uiso   1.00
Br188  Br    0.87155   0.07058   0.12358   0.00000  Uiso   1.00
C189   C     0.75306   0.16744   0.24679   0.00000  Uiso   1.00
C190   C     0.97895   0.21301   0.25293   0.00000  Uiso   1.00
C191   C     0.98173   0.13209   0.25973   0.00000  Uiso   1.00
C192   C     0.68772   0.21301   0.24709   0.00000  Uiso   1.00
C193   C     0.84838   0.20401   0.04719   0.00000  Uiso   1.00
C194   C     0.82134   0.12388   0.45125   0.00000  Uiso   1.00
C195   C     0.81843   0.20402   0.45284   0.00000  Uiso   1.00
C196   C     0.84545   0.12388   0.04876   0.00000  Uiso   1.00
C197   C     0.85296   0.20528   0.09347   0.00000  Uiso   1.00
C198   C     0.81533   0.12475   0.40493   0.00000  Uiso   1.00
C199   C     0.81379   0.20529   0.40656   0.00000  Uiso   1.00
C200   C     0.91361   0.16744   0.25321   0.00000  Uiso   1.00
C201   C     0.85141   0.12475   0.09509   0.00000  Uiso   1.00
C202   C     0.84800   0.16570   0.11779   0.00000  Uiso   1.00
C203   C     0.81871   0.16571   0.38223   0.00000  Uiso   1.00
C204   C     0.83939   0.16374   0.02442   0.00000  Uiso   1.00
C205   C     0.82742   0.16375   0.47559   0.00000  Uiso   1.00
C206   C     0.95851   0.17112   0.25683   0.00000  Uiso   1.00
C207   C     0.70816   0.17112   0.24316   0.00000  Uiso   1.00
C208   C     0.69286   0.09582   0.20732   0.00000  Uiso   1.00
C209   C     0.99059   0.09130   0.17071   0.00000  Uiso   1.00
C210   C     0.99971   0.05635   0.13588   0.00000  Uiso   1.00
C211   C     0.83859   0.16656   0.16482   0.00000  Uiso   1.00
C212   C     0.95828   0.25802   0.25929   0.00000  Uiso   1.00
C213   C     0.93952   0.27807   0.21470   0.00000  Uiso   1.00
C214   C     0.94033   0.32876   0.21518   0.00000  Uiso   1.00
C215   C     0.97383   0.09584   0.29270   0.00000  Uiso   1.00
C216   C     0.67609   0.09138   0.32933   0.00000  Uiso   1.00
C217   C     0.66699   0.05646   0.36418   0.00000  Uiso   1.00
C218   C     0.70838   0.25803   0.24079   0.00000  Uiso   1.00
C219   C     0.72711   0.27804   0.28540   0.00000  Uiso   1.00
C220   C     0.72637   0.32874   0.28494   0.00000  Uiso   1.00
C221   C     0.82809   0.16656   0.33518   0.00000  Uiso   1.00
C222   C     0.85416   0.02381   0.28381   0.00000  Uiso   1.00
C223   C     0.81314   0.30968   0.21560   0.00000  Uiso   1.00
C224   C     0.81251   0.02381   0.21618   0.00000  Uiso   1.00
C225   C     0.85352   0.30968   0.28440   0.00000  Uiso   1.00
C226   C     0.68494   0.13210   0.24026   0.00000  Uiso   1.00
H227   H     0.85285   0.23485   0.02969   0.00000  Uiso   1.00
H228   H     0.71970   0.10527   0.18990   0.00000  Uiso   1.00
H229   H     0.69852   0.06376   0.22502   0.00000  Uiso   1.00
H230   H     0.92378   0.00831   0.24308   0.00000  Uiso   1.00
H231   H     0.97229   0.00745   0.21917   0.00000  Uiso   1.00
H232   H     0.92540   0.00831   0.18312   0.00000  Uiso   1.00
H233   H     0.95605   0.26618   0.18615   0.00000  Uiso   1.00
H234   H     0.90726   0.26798   0.20829   0.00000  Uiso   1.00
H235   H     0.93632   0.25517   0.28412   0.00000  Uiso   1.00
H236   H     0.97920   0.28207   0.27731   0.00000  Uiso   1.00
H237   H     0.97417   0.06736   0.38257   0.00000  Uiso   1.00
H238   H     0.81996   0.09179   0.46723   0.00000  Uiso   1.00
H239   H     0.99294   0.02378   0.34795   0.00000  Uiso   1.00
H240   H     0.69412   0.05225   0.38862   0.00000  Uiso   1.00
H241   H     0.70450   0.08186   0.31426   0.00000  Uiso   1.00
H242   H     0.68160   0.12404   0.34644   0.00000  Uiso   1.00
H243   H     0.94697   0.10527   0.31008   0.00000  Uiso   1.00
H244   H     0.96822   0.06376   0.27501   0.00000  Uiso   1.00
H245   H     0.74307   0.00827   0.25716   0.00000  Uiso   1.00
H246   H     0.69445   0.00750   0.28081   0.00000  Uiso   1.00
H247   H     0.74119   0.00824   0.31707   0.00000  Uiso   1.00
H248   H     0.71051   0.26618   0.31392   0.00000  Uiso   1.00
H249   H     0.81398   0.23486   0.47035   0.00000  Uiso   1.00
H250   H     0.75934   0.26787   0.29187   0.00000  Uiso   1.00
H251   H     0.73035   0.25523   0.21597   0.00000  Uiso   1.00
H252   H     0.68746   0.28209   0.22278   0.00000  Uiso   1.00
H253   H     0.84683   0.09178   0.03278   0.00000  Uiso   1.00
H254   H     0.69249   0.06727   0.11744   0.00000  Uiso   1.00
H255   H     0.67382   0.02370   0.15214   0.00000  Uiso   1.00
H256   H     0.97255   0.05208   0.11148   0.00000  Uiso   1.00
H257   H     0.96219   0.08178   0.18579   0.00000  Uiso   1.00
H258   H     0.98505   0.12395   0.15356   0.00000  Uiso   1.00
N259   N     0.83333   0.28573   0.25000   0.00000  Uiso   1.00
N260   N     0.83333   0.04760   0.25000   0.00000  Uiso   1.00
O261   O     0.77226   0.20487   0.24999   0.00000  Uiso   1.00
O262   O     0.89441   0.12846   0.25000   0.00000  Uiso   1.00
O263   O     0.89441   0.20487   0.25000   0.00000  Uiso   1.00
O264   O     0.77226   0.12846   0.24999   0.00000  Uiso   1.00
O265   O     0.83333   0.20489   0.18453   0.00000  Uiso   1.00
O266   O     0.83334   0.12845   0.31547   0.00000  Uiso   1.00
O267   O     0.83334   0.20489   0.31547   0.00000  Uiso   1.00
O268   O     0.83333   0.12845   0.18453   0.00000  Uiso   1.00
Zn269  Zn    0.83333   0.21771   0.25000   0.00000  Uiso   1.00
Zn270  Zn    0.83333   0.11563   0.25000   0.00000  Uiso   1.00
Br271  Br    0.21971   0.38724   0.33083   0.00000  Uiso   1.00
Br272  Br    0.11790   0.61388   0.16485   0.00000  Uiso   1.00
Br273  Br    0.11364   0.38723   0.16916   0.00000  Uiso   1.00
Br274  Br    0.21541   0.61389   0.33517   0.00000  Uiso   1.00
Br275  Br    0.20639   0.59366   0.11934   0.00000  Uiso   1.00
Br276  Br    0.12848   0.40393   0.37646   0.00000  Uiso   1.00
Br277  Br    0.12698   0.59366   0.38072   0.00000  Uiso   1.00
Br278  Br    0.20488   0.40392   0.12358   0.00000  Uiso   1.00
C279   C     0.08640   0.50077   0.24679   0.00000  Uiso   1.00
C280   C     0.31228   0.54634   0.25293   0.00000  Uiso   1.00
C281   C     0.31506   0.46543   0.25973   0.00000  Uiso   1.00
C282   C     0.02105   0.54635   0.24709   0.00000  Uiso   1.00
C283   C     0.18172   0.53734   0.04719   0.00000  Uiso   1.00
C284   C     0.15467   0.45721   0.45125   0.00000  Uiso   1.00
C285   C     0.15176   0.53735   0.45284   0.00000  Uiso   1.00
C286   C     0.17878   0.45721   0.04876   0.00000  Uiso   1.00
C287   C     0.18629   0.53861   0.09347   0.00000  Uiso   1.00
C288   C     0.14866   0.45809   0.40493   0.00000  Uiso   1.00
C289   C     0.14713   0.53862   0.40656   0.00000  Uiso   1.00
C290   C     0.24694   0.50077   0.25321   0.00000  Uiso   1.00
C291   C     0.18474   0.45808   0.09509   0.00000  Uiso   1.00
C292   C     0.18134   0.49903   0.11779   0.00000  Uiso   1.00
C293   C     0.15205   0.49904   0.38223   0.00000  Uiso   1.00
C294   C     0.17273   0.49708   0.02442   0.00000  Uiso   1.00
C295   C     0.16075   0.49708   0.47559   0.00000  Uiso   1.00
C296   C     0.29184   0.50445   0.25683   0.00000  Uiso   1.00
C297   C     0.04149   0.50445   0.24316   0.00000  Uiso   1.00
C298   C     0.02620   0.42915   0.20732   0.00000  Uiso   1.00
C299   C     0.32392   0.42463   0.17071   0.00000  Uiso   1.00
C300   C     0.33304   0.38969   0.13588   0.00000  Uiso   1.00
C301   C     0.17192   0.49989   0.16482   0.00000  Uiso   1.00
C302   C     0.29161   0.59135   0.25929   0.00000  Uiso   1.00
C303   C     0.27285   0.61140   0.21470   0.00000  Uiso   1.00
C304   C     0.27367   0.66210   0.21518   0.00000  Uiso   1.00
C305   C     0.30716   0.42917   0.29270   0.00000  Uiso   1.00
C306   C     0.00943   0.42471   0.32933   0.00000  Uiso   1.00
C307   C     0.00032   0.38979   0.36418   0.00000  Uiso   1.00
C308   C     0.04172   0.59136   0.24079   0.00000  Uiso   1.00
C309   C     0.06044   0.61137   0.28540   0.00000  Uiso   1.00
C310   C     0.05971   0.66207   0.28494   0.00000  Uiso   1.00
C311   C     0.16142   0.49989   0.33518   0.00000  Uiso   1.00
C312   C     0.18749   0.35714   0.28381   0.00000  Uiso   1.00
C313   C     0.14648   0.64301   0.21560   0.00000  Uiso   1.00
C314   C     0.14585   0.35714   0.21618   0.00000  Uiso   1.00
C315   C     0.18686   0.64301   0.28440   0.00000  Uiso   1.00
C316   C     0.01827   0.46543   0.24026   0.00000  Uiso   1.00
H317   H     0.18618   0.56818   0.02969   0.00000  Uiso   1.00
H318   H     0.05304   0.43860   0.18990   0.00000  Uiso   1.00
H319   H     0.03185   0.39709   0.22502   0.00000  Uiso   1.00
H320   H     0.25711   0.34165   0.24308   0.00000  Uiso   1.00
H321   H     0.30562   0.34079   0.21917   0.00000  Uiso   1.00
H322   H     0.25874   0.34164   0.18312   0.00000  Uiso   1.00
H323   H     0.28938   0.59951   0.18615   0.00000  Uiso   1.00
H324   H     0.24059   0.60132   0.20829   0.00000  Uiso   1.00
H325   H     0.26966   0.58851   0.28412   0.00000  Uiso   1.00
H326   H     0.31253   0.61541   0.27731   0.00000  Uiso   1.00
H327   H     0.30750   0.40069   0.38257   0.00000  Uiso   1.00
H328   H     0.15330   0.42512   0.46723   0.00000  Uiso   1.00
H329   H     0.32627   0.35712   0.34795   0.00000  Uiso   1.00
H330   H     0.02745   0.38559   0.38862   0.00000  Uiso   1.00
H331   H     0.03783   0.41519   0.31426   0.00000  Uiso   1.00
H332   H     0.01494   0.45738   0.34644   0.00000  Uiso   1.00
H333   H     0.28030   0.43860   0.31008   0.00000  Uiso   1.00
H334   H     0.30156   0.39709   0.27501   0.00000  Uiso   1.00
H335   H     0.07641   0.34160   0.25716   0.00000  Uiso   1.00
H336   H     0.02779   0.34083   0.28081   0.00000  Uiso   1.00
H337   H     0.07453   0.34158   0.31707   0.00000  Uiso   1.00
H338   H     0.04384   0.59952   0.31392   0.00000  Uiso   1.00
H339   H     0.14731   0.56819   0.47035   0.00000  Uiso   1.00
H340   H     0.09267   0.60120   0.29187   0.00000  Uiso   1.00
H341   H     0.06369   0.58856   0.21597   0.00000  Uiso   1.00
H342   H     0.02079   0.61542   0.22278   0.00000  Uiso   1.00
H343   H     0.18017   0.42512   0.03278   0.00000  Uiso   1.00
H344   H     0.02582   0.40061   0.11744   0.00000  Uiso   1.00
H345   H     0.00715   0.35704   0.15214   0.00000  Uiso   1.00
H346   H     0.30589   0.38541   0.11148   0.00000  Uiso   1.00
H347   H     0.29553   0.41511   0.18579   0.00000  Uiso   1.00
H348   H     0.31838   0.45728   0.15356   0.00000  Uiso   1.00
N349   N     0.16667   0.61907   0.25000   0.00000  Uiso   1.00
N350   N     0.16667   0.38093   0.25000   0.00000  Uiso   1.00
O351   O     0.10559   0.53821   0.24999   0.00000  Uiso   1.00
O352   O     0.22774   0.46179   0.25000   0.00000  Uiso   1.00
O353   O     0.22774   0.53821   0.25000   0.00000  Uiso   1.00
O354   O     0.10559   0.46179   0.24999   0.00000  Uiso   1.00
O355   O     0.16666   0.53822   0.18453   0.00000  Uiso   1.00
O356   O     0.16667   0.46178   0.31547   0.00000  Uiso   1.00
O357   O     0.16667   0.53822   0.31547   0.00000  Uiso   1.00
O358   O     0.16666   0.46178   0.18453   0.00000  Uiso   1.00
Zn359  Zn    0.16667   0.55104   0.25000   0.00000  Uiso   1.00
Zn360  Zn    0.16667   0.44896   0.25000   0.00000  Uiso   1.00
Br361  Br    0.55304   0.38724   0.33083   0.00000  Uiso   1.00
Br362  Br    0.45124   0.61388   0.16485   0.00000  Uiso   1.00
Br363  Br    0.44697   0.38723   0.16916   0.00000  Uiso   1.00
Br364  Br    0.54875   0.61389   0.33517   0.00000  Uiso   1.00
Br365  Br    0.53973   0.59366   0.11934   0.00000  Uiso   1.00
Br366  Br    0.46181   0.40393   0.37646   0.00000  Uiso   1.00
Br367  Br    0.46031   0.59366   0.38072   0.00000  Uiso   1.00
Br368  Br    0.53822   0.40392   0.12358   0.00000  Uiso   1.00
C369   C     0.41973   0.50077   0.24679   0.00000  Uiso   1.00
C370   C     0.64561   0.54634   0.25293   0.00000  Uiso   1.00
C371   C     0.64840   0.46543   0.25973   0.00000  Uiso   1.00
C372   C     0.35438   0.54635   0.24709   0.00000  Uiso   1.00
C373   C     0.51505   0.53734   0.04719   0.00000  Uiso   1.00
C374   C     0.48801   0.45721   0.45125   0.00000  Uiso   1.00
C375   C     0.48509   0.53735   0.45284   0.00000  Uiso   1.00
C376   C     0.51211   0.45721   0.04876   0.00000  Uiso   1.00
C377   C     0.51963   0.53861   0.09347   0.00000  Uiso   1.00
C378   C     0.48200   0.45809   0.40493   0.00000  Uiso   1.00
C379   C     0.48046   0.53862   0.40656   0.00000  Uiso   1.00
C380   C     0.58027   0.50077   0.25321   0.00000  Uiso   1.00
C381   C     0.51807   0.45808   0.09509   0.00000  Uiso   1.00
C382   C     0.51467   0.49903   0.11779   0.00000  Uiso   1.00
C383   C     0.48538   0.49904   0.38223   0.00000  Uiso   1.00
C384   C     0.50606   0.49708   0.02442   0.00000  Uiso   1.00
C385   C     0.49409   0.49708   0.47559   0.00000  Uiso   1.00
C386   C     0.62518   0.50445   0.25683   0.00000  Uiso   1.00
C387   C     0.37482   0.50445   0.24316   0.00000  Uiso   1.00
C388   C     0.35953   0.42915   0.20732   0.00000  Uiso   1.00
C389   C     0.65726   0.42463   0.17071   0.00000  Uiso   1.00
C390   C     0.66637   0.38969   0.13588   0.00000  Uiso   1.00
C391   C     0.50525   0.49989   0.16482   0.00000  Uiso   1.00
C392   C     0.62495   0.59135   0.25929   0.00000  Uiso   1.00
C393   C     0.60618   0.61140   0.21470   0.00000  Uiso   1.00
C394   C     0.60700   0.66210   0.21518   0.00000  Uiso   1.00
C395   C     0.64050   0.42917   0.29270   0.00000  Uiso   1.00
C396   C     0.34276   0.42471   0.32933   0.00000  Uiso   1.00
C397   C     0.33366   0.38979   0.36418   0.00000  Uiso   1.00
C398   C     0.37505   0.59136   0.24079   0.00000  Uiso   1.00
C399   C     0.39378   0.61137   0.28540   0.00000  Uiso   1.00
C400   C     0.39304   0.66207   0.28494   0.00000  Uiso   1.00
C401   C     0.49476   0.49989   0.33518   0.00000  Uiso   1.00
C402   C     0.52083   0.35714   0.28381   0.00000  Uiso   1.00
C403   C     0.47981   0.64301   0.21560   0.00000  Uiso   1.00
C404   C     0.47918   0.35714   0.21618   0.00000  Uiso   1.00
C405   C     0.52019   0.64301   0.28440   0.00000  Uiso   1.00
C406   C     0.35161   0.46543   0.24026   0.00000  Uiso   1.00
H407   H     0.51952   0.56818   0.02969   0.00000  Uiso   1.00
H408   H     0.38637   0.43860   0.18990   0.00000  Uiso   1.00
H409   H     0.36519   0.39709   0.22502   0.00000  Uiso   1.00
H410   H     0.59045   0.34165   0.24308   0.00000  Uiso   1.00
H411   H     0.63896   0.34079   0.21917   0.00000  Uiso   1.00
H412   H     0.59207   0.34164   0.18312   0.00000  Uiso   1.00
H413   H     0.62272   0.59951   0.18615   0.00000  Uiso   1.00
H414   H     0.57393   0.60132   0.20829   0.00000  Uiso   1.00
H415   H     0.60299   0.58851   0.28412   0.00000  Uiso   1.00
H416   H     0.64587   0.61541   0.27731   0.00000  Uiso   1.00
H417   H     0.64084   0.40069   0.38257   0.00000  Uiso   1.00
H418   H     0.48663   0.42512   0.46723   0.00000  Uiso   1.00
H419   H     0.65960   0.35712   0.34795   0.00000  Uiso   1.00
H420   H     0.36079   0.38559   0.38862   0.00000  Uiso   1.00
H421   H     0.37116   0.41519   0.31426   0.00000  Uiso   1.00
H422   H     0.34827   0.45738   0.34644   0.00000  Uiso   1.00
H423   H     0.61364   0.43860   0.31008   0.00000  Uiso   1.00
H424   H     0.63489   0.39709   0.27501   0.00000  Uiso   1.00
H425   H     0.40974   0.34160   0.25716   0.00000  Uiso   1.00
H426   H     0.36112   0.34083   0.28081   0.00000  Uiso   1.00
H427   H     0.40786   0.34158   0.31707   0.00000  Uiso   1.00
H428   H     0.37717   0.59952   0.31392   0.00000  Uiso   1.00
H429   H     0.48065   0.56819   0.47035   0.00000  Uiso   1.00
H430   H     0.42600   0.60120   0.29187   0.00000  Uiso   1.00
H431   H     0.39702   0.58856   0.21597   0.00000  Uiso   1.00
H432   H     0.35412   0.61542   0.22278   0.00000  Uiso   1.00
H433   H     0.51350   0.42512   0.03278   0.00000  Uiso   1.00
H434   H     0.35915   0.40061   0.11744   0.00000  Uiso   1.00
H435   H     0.34049   0.35704   0.15214   0.00000  Uiso   1.00
H436   H     0.63922   0.38541   0.11148   0.00000  Uiso   1.00
H437   H     0.62886   0.41511   0.18579   0.00000  Uiso   1.00
H438   H     0.65171   0.45728   0.15356   0.00000  Uiso   1.00
N439   N     0.50000   0.61907   0.25000   0.00000  Uiso   1.00
N440   N     0.50000   0.38093   0.25000   0.00000  Uiso   1.00
O441   O     0.43892   0.53821   0.24999   0.00000  Uiso   1.00
O442   O     0.56108   0.46179   0.25000   0.00000  Uiso   1.00
O443   O     0.56108   0.53821   0.25000   0.00000  Uiso   1.00
O444   O     0.43892   0.46179   0.24999   0.00000  Uiso   1.00
O445   O     0.50000   0.53822   0.18453   0.00000  Uiso   1.00
O446   O     0.50000   0.46178   0.31547   0.00000  Uiso   1.00
O447   O     0.50000   0.53822   0.31547   0.00000  Uiso   1.00
O448   O     0.50000   0.46178   0.18453   0.00000  Uiso   1.00
Zn449  Zn    0.50000   0.55104   0.25000   0.00000  Uiso   1.00
Zn450  Zn    0.50000   0.44896   0.25000   0.00000  Uiso   1.00
Br451  Br    0.88637   0.38724   0.33083   0.00000  Uiso   1.00
Br452  Br    0.78457   0.61388   0.16485   0.00000  Uiso   1.00
Br453  Br    0.78031   0.38723   0.16916   0.00000  Uiso   1.00
Br454  Br    0.88208   0.61389   0.33517   0.00000  Uiso   1.00
Br455  Br    0.87306   0.59366   0.11934   0.00000  Uiso   1.00
Br456  Br    0.79515   0.40393   0.37646   0.00000  Uiso   1.00
Br457  Br    0.79364   0.59366   0.38072   0.00000  Uiso   1.00
Br458  Br    0.87155   0.40392   0.12358   0.00000  Uiso   1.00
C459   C     0.75306   0.50077   0.24679   0.00000  Uiso   1.00
C460   C     0.97895   0.54634   0.25293   0.00000  Uiso   1.00
C461   C     0.98173   0.46543   0.25973   0.00000  Uiso   1.00
C462   C     0.68772   0.54635   0.24709   0.00000  Uiso   1.00
C463   C     0.84838   0.53734   0.04719   0.00000  Uiso   1.00
C464   C     0.82134   0.45721   0.45125   0.00000  Uiso   1.00
C465   C     0.81843   0.53735   0.45284   0.00000  Uiso   1.00
C466   C     0.84545   0.45721   0.04876   0.00000  Uiso   1.00
C467   C     0.85296   0.53861   0.09347   0.00000  Uiso   1.00
C468   C     0.81533   0.45809   0.40493   0.00000  Uiso   1.00
C469   C     0.81379   0.53862   0.40656   0.00000  Uiso   1.00
C470   C     0.91361   0.50077   0.25321   0.00000  Uiso   1.00
C471   C     0.85141   0.45808   0.09509   0.00000  Uiso   1.00
C472   C     0.84800   0.49903   0.11779   0.00000  Uiso   1.00
C473   C     0.81871   0.49904   0.38223   0.00000  Uiso   1.00
C474   C     0.83939   0.49708   0.02442   0.00000  Uiso   1.00
C475   C     0.82742   0.49708   0.47559   0.00000  Uiso   1.00
C476   C     0.95851   0.50445   0.25683   0.00000  Uiso   1.00
C477   C     0.70816   0.50445   0.24316   0.00000  Uiso   1.00
C478   C     0.69286   0.42915   0.20732   0.00000  Uiso   1.00
C479   C     0.99059   0.42463   0.17071   0.00000  Uiso   1.00
C480   C     0.99971   0.38969   0.13588   0.00000  Uiso   1.00
C481   C     0.83859   0.49989   0.16482   0.00000  Uiso   1.00
C482   C     0.95828   0.59135   0.25929   0.00000  Uiso   1.00
C483   C     0.93952   0.61140   0.21470   0.00000  Uiso   1.00
C484   C     0.94033   0.66210   0.21518   0.00000  Uiso   1.00
C485   C     0.97383   0.42917   0.29270   0.00000  Uiso   1.00
C486   C     0.67609   0.42471   0.32933   0.00000  Uiso   1.00
C487   C     0.66699   0.38979   0.36418   0.00000  Uiso   1.00
C488   C     0.70838   0.59136   0.24079   0.00000  Uiso   1.00
C489   C     0.72711   0.61137   0.28540   0.00000  Uiso   1.00
C490   C     0.72637   0.66207   0.28494   0.00000  Uiso   1.00
C491   C     0.82809   0.49989   0.33518   0.00000  Uiso   1.00
C492   C     0.85416   0.35714   0.28381   0.00000  Uiso   1.00
C493   C     0.81314   0.64301   0.21560   0.00000  Uiso   1.00
C494   C     0.81251   0.35714   0.21618   0.00000  Uiso   1.00
C495   C     0.85352   0.64301   0.28440   0.00000  Uiso   1.00
C496   C     0.68494   0.46543   0.24026   0.00000  Uiso   1.00
H497   H     0.85285   0.56818   0.02969   0.00000  Uiso   1.00
H498   H     0.71970   0.43860   0.18990   0.00000  Uiso   1.00
H499   H     0.69852   0.39709   0.22502   0.00000  Uiso   1.00
H500   H     0.92378   0.34165   0.24308   0.00000  Uiso   1.00
H501   H     0.97229   0.34079   0.21917   0.00000  Uiso   1.00
H502   H     0.92540   0.34164   0.18312   0.00000  Uiso   1.00
H503   H     0.95605   0.59951   0.18615   0.00000  Uiso   1.00
H504   H     0.90726   0.60132   0.20829   0.00000  Uiso   1.00
H505   H     0.93632   0.58851   0.28412   0.00000  Uiso   1.00
H506   H     0.97920   0.61541   0.27731   0.00000  Uiso   1.00
H507   H     0.97417   0.40069   0.38257   0.00000  Uiso   1.00
H508   H     0.81996   0.42512   0.46723   0.00000  Uiso   1.00
H509   H     0.99294   0.35712   0.34795   0.00000  Uiso   1.00
H510   H     0.69412   0.38559   0.38862   0.00000  Uiso   1.00
H511   H     0.70450   0.41519   0.31426   0.00000  Uiso   1.00
H512   H     0.68160   0.45738   0.34644   0.00000  Uiso   1.00
H513   H     0.94697   0.43860   0.31008   0.00000  Uiso   1.00
H514   H     0.96822   0.39709   0.27501   0.00000  Uiso   1.00
H515   H     0.74307   0.34160   0.25716   0.00000  Uiso   1.00
H516   H     0.69445   0.34083   0.28081   0.00000  Uiso   1.00
H517   H     0.74119   0.34158   0.31707   0.00000  Uiso   1.00
H518   H     0.71051   0.59952   0.31392   0.00000  Uiso   1.00
H519   H     0.81398   0.56819   0.47035   0.00000  Uiso   1.00
H520   H     0.75934   0.60120   0.29187   0.00000  Uiso   1.00
H521   H     0.73035   0.58856   0.21597   0.00000  Uiso   1.00
H522   H     0.68746   0.61542   0.22278   0.00000  Uiso   1.00
H523   H     0.84683   0.42512   0.03278   0.00000  Uiso   1.00
H524   H     0.69249   0.40061   0.11744   0.00000  Uiso   1.00
H525   H     0.67382   0.35704   0.15214   0.00000  Uiso   1.00
H526   H     0.97255   0.38541   0.11148   0.00000  Uiso   1.00
H527   H     0.96219   0.41511   0.18579   0.00000  Uiso   1.00
H528   H     0.98505   0.45728   0.15356   0.00000  Uiso   1.00
N529   N     0.83333   0.61907   0.25000   0.00000  Uiso   1.00
N530   N     0.83333   0.38093   0.25000   0.00000  Uiso   1.00
O531   O     0.77226   0.53821   0.24999   0.00000  Uiso   1.00
O532   O     0.89441   0.46179   0.25000   0.00000  Uiso   1.00
O533   O     0.89441   0.53821   0.25000   0.00000  Uiso   1.00
O534   O     0.77226   0.46179   0.24999   0.00000  Uiso   1.00
O535   O     0.83333   0.53822   0.18453   0.00000  Uiso   1.00
O536   O     0.83334   0.46178   0.31547   0.00000  Uiso   1.00
O537   O     0.83334   0.53822   0.31547   0.00000  Uiso   1.00
O538   O     0.83333   0.46178   0.18453   0.00000  Uiso   1.00
Zn539  Zn    0.83333   0.55104   0.25000   0.00000  Uiso   1.00
Zn540  Zn    0.83333   0.44896   0.25000   0.00000  Uiso   1.00
Br541  Br    0.21971   0.72057   0.33083   0.00000  Uiso   1.00
Br542  Br    0.11790   0.94721   0.16485   0.00000  Uiso   1.00
Br543  Br    0.11364   0.72057   0.16916   0.00000  Uiso   1.00
Br544  Br    0.21541   0.94722   0.33517   0.00000  Uiso   1.00
Br545  Br    0.20639   0.92699   0.11934   0.00000  Uiso   1.00
Br546  Br    0.12848   0.73727   0.37646   0.00000  Uiso   1.00
Br547  Br    0.12698   0.92699   0.38072   0.00000  Uiso   1.00
Br548  Br    0.20488   0.73725   0.12358   0.00000  Uiso   1.00
C549   C     0.08640   0.83411   0.24679   0.00000  Uiso   1.00
C550   C     0.31228   0.87968   0.25293   0.00000  Uiso   1.00
C551   C     0.31506   0.79876   0.25973   0.00000  Uiso   1.00
C552   C     0.02105   0.87968   0.24709   0.00000  Uiso   1.00
C553   C     0.18172   0.87068   0.04719   0.00000  Uiso   1.00
C554   C     0.15467   0.79055   0.45125   0.00000  Uiso   1.00
C555   C     0.15176   0.87068   0.45284   0.00000  Uiso   1.00
C556   C     0.17878   0.79054   0.04876   0.00000  Uiso   1.00
C557   C     0.18629   0.87195   0.09347   0.00000  Uiso   1.00
C558   C     0.14866   0.79142   0.40493   0.00000  Uiso   1.00
C559   C     0.14713   0.87195   0.40656   0.00000  Uiso   1.00
C560   C     0.24694   0.83410   0.25321   0.00000  Uiso   1.00
C561   C     0.18474   0.79141   0.09509   0.00000  Uiso   1.00
C562   C     0.18134   0.83237   0.11779   0.00000  Uiso   1.00
C563   C     0.15205   0.83237   0.38223   0.00000  Uiso   1.00
C564   C     0.17273   0.83041   0.02442   0.00000  Uiso   1.00
C565   C     0.16075   0.83041   0.47559   0.00000  Uiso   1.00
C566   C     0.29184   0.83778   0.25683   0.00000  Uiso   1.00
C567   C     0.04149   0.83779   0.24316   0.00000  Uiso   1.00
C568   C     0.02620   0.76249   0.20732   0.00000  Uiso   1.00
C569   C     0.32392   0.75797   0.17071   0.00000  Uiso   1.00
C570   C     0.33304   0.72302   0.13588   0.00000  Uiso   1.00
C571   C     0.17192   0.83322   0.16482   0.00000  Uiso   1.00
C572   C     0.29161   0.92468   0.25929   0.00000  Uiso   1.00
C573   C     0.27285   0.94473   0.21470   0.00000  Uiso   1.00
C574   C     0.27367   0.99543   0.21518   0.00000  Uiso   1.00
C575   C     0.30716   0.76250   0.29270   0.00000  Uiso   1.00
C576   C     0.00943   0.75805   0.32933   0.00000  Uiso   1.00
C577   C     0.00032   0.72313   0.36418   0.00000  Uiso   1.00
C578   C     0.04172   0.92469   0.24079   0.00000  Uiso   1.00
C579   C     0.06044   0.94470   0.28540   0.00000  Uiso   1.00
C580   C     0.05971   0.99540   0.28494   0.00000  Uiso   1.00
C581   C     0.16142   0.83323   0.33518   0.00000  Uiso   1.00
C582   C     0.18749   0.69047   0.28381   0.00000  Uiso   1.00
C583   C     0.14648   0.97634   0.21560   0.00000  Uiso   1.00
C584   C     0.14585   0.69047   0.21618   0.00000  Uiso   1.00
C585   C     0.18686   0.97635   0.28440   0.00000  Uiso   1.00
C586   C     0.01827   0.79876   0.24026   0.00000  Uiso   1.00
H587   H     0.18618   0.90151   0.02969   0.00000  Uiso   1.00
H588   H     0.05304   0.77193   0.18990   0.00000  Uiso   1.00
H589   H     0.03185   0.73042   0.22502   0.00000  Uiso   1.00
H590   H     0.25711   0.67498   0.24308   0.00000  Uiso   1.00
H591   H     0.30562   0.67412   0.21917   0.00000  Uiso   1.00
H592   H     0.25874   0.67497   0.18312   0.00000  Uiso   1.00
H593   H     0.28938   0.93285   0.18615   0.00000  Uiso   1.00
H594   H     0.24059   0.93465   0.20829   0.00000  Uiso   1.00
H595   H     0.26966   0.92184   0.28412   0.00000  Uiso   1.00
H596   H     0.31253   0.94874   0.27731   0.00000  Uiso   1.00
H597   H     0.30750   0.73403   0.38257   0.00000  Uiso   1.00
H598   H     0.15330   0.75845   0.46723   0.00000  Uiso   1.00
H599   H     0.32627   0.69045   0.34795   0.00000  Uiso   1.00
H600   H     0.02745   0.71892   0.38862   0.00000  Uiso   1.00
H601   H     0.03783   0.74852   0.31426   0.00000  Uiso   1.00
H602   H     0.01494   0.79071   0.34644   0.00000  Uiso   1.00
H603   H     0.28030   0.77193   0.31008   0.00000  Uiso   1.00
H604   H     0.30156   0.73042   0.27501   0.00000  Uiso   1.00
H605   H     0.07641   0.67493   0.25716   0.00000  Uiso   1.00
H606   H     0.02779   0.67417   0.28081   0.00000  Uiso   1.00
H607   H     0.07453   0.67491   0.31707   0.00000  Uiso   1.00
H608   H     0.04384   0.93285   0.31392   0.00000  Uiso   1.00
H609   H     0.14731   0.90152   0.47035   0.00000  Uiso   1.00
H610   H     0.09267   0.93453   0.29187   0.00000  Uiso   1.00
H611   H     0.06369   0.92189   0.21597   0.00000  Uiso   1.00
H612   H     0.02079   0.94876   0.22278   0.00000  Uiso   1.00
H613   H     0.18017   0.75845   0.03278   0.00000  Uiso   1.00
H614   H     0.02582   0.73394   0.11744   0.00000  Uiso   1.00
H615   H     0.00715   0.69037   0.15214   0.00000  Uiso   1.00
H616   H     0.30589   0.71875   0.11148   0.00000  Uiso   1.00
H617   H     0.29553   0.74845   0.18579   0.00000  Uiso   1.00
H618   H     0.31838   0.79061   0.15356   0.00000  Uiso   1.00
N619   N     0.16667   0.95240   0.25000   0.00000  Uiso   1.00
N620   N     0.16667   0.71427   0.25000   0.00000  Uiso   1.00
O621   O     0.10559   0.87154   0.24999   0.00000  Uiso   1.00
O622   O     0.22774   0.79513   0.25000   0.00000  Uiso   1.00
O623   O     0.22774   0.87154   0.25000   0.00000  Uiso   1.00
O624   O     0.10559   0.79513   0.24999   0.00000  Uiso   1.00
O625   O     0.16666   0.87155   0.18453   0.00000  Uiso   1.00
O626   O     0.16667   0.79511   0.31547   0.00000  Uiso   1.00
O627   O     0.16667   0.87155   0.31547   0.00000  Uiso   1.00
O628   O     0.16666   0.79511   0.18453   0.00000  Uiso   1.00
Zn629  Zn    0.16667   0.88437   0.25000   0.00000  Uiso   1.00
Zn630  Zn    0.16667   0.78229   0.25000   0.00000  Uiso   1.00
Br631  Br    0.55304   0.72057   0.33083   0.00000  Uiso   1.00
Br632  Br    0.45124   0.94721   0.16485   0.00000  Uiso   1.00
Br633  Br    0.44697   0.72057   0.16916   0.00000  Uiso   1.00
Br634  Br    0.54875   0.94722   0.33517   0.00000  Uiso   1.00
Br635  Br    0.53973   0.92699   0.11934   0.00000  Uiso   1.00
Br636  Br    0.46181   0.73727   0.37646   0.00000  Uiso   1.00
Br637  Br    0.46031   0.92699   0.38072   0.00000  Uiso   1.00
Br638  Br    0.53822   0.73725   0.12358   0.00000  Uiso   1.00
C639   C     0.41973   0.83411   0.24679   0.00000  Uiso   1.00
C640   C     0.64561   0.87968   0.25293   0.00000  Uiso   1.00
C641   C     0.64840   0.79876   0.25973   0.00000  Uiso   1.00
C642   C     0.35438   0.87968   0.24709   0.00000  Uiso   1.00
C643   C     0.51505   0.87068   0.04719   0.00000  Uiso   1.00
C644   C     0.48801   0.79055   0.45125   0.00000  Uiso   1.00
C645   C     0.48509   0.87068   0.45284   0.00000  Uiso   1.00
C646   C     0.51211   0.79054   0.04876   0.00000  Uiso   1.00
C647   C     0.51963   0.87195   0.09347   0.00000  Uiso   1.00
C648   C     0.48200   0.79142   0.40493   0.00000  Uiso   1.00
C649   C     0.48046   0.87195   0.40656   0.00000  Uiso   1.00
C650   C     0.58027   0.83410   0.25321   0.00000  Uiso   1.00
C651   C     0.51807   0.79141   0.09509   0.00000  Uiso   1.00
C652   C     0.51467   0.83237   0.11779   0.00000  Uiso   1.00
C653   C     0.48538   0.83237   0.38223   0.00000  Uiso   1.00
C654   C     0.50606   0.83041   0.02442   0.00000  Uiso   1.00
C655   C     0.49409   0.83041   0.47559   0.00000  Uiso   1.00
C656   C     0.62518   0.83778   0.25683   0.00000  Uiso   1.00
C657   C     0.37482   0.83779   0.24316   0.00000  Uiso   1.00
C658   C     0.35953   0.76249   0.20732   0.00000  Uiso   1.00
C659   C     0.65726   0.75797   0.17071   0.00000  Uiso   1.00
C660   C     0.66637   0.72302   0.13588   0.00000  Uiso   1.00
C661   C     0.50525   0.83322   0.16482   0.00000  Uiso   1.00
C662   C     0.62495   0.92468   0.25929   0.00000  Uiso   1.00
C663   C     0.60618   0.94473   0.21470   0.00000  Uiso   1.00
C664   C     0.60700   0.99543   0.21518   0.00000  Uiso   1.00
C665   C     0.64050   0.76250   0.29270   0.00000  Uiso   1.00
C666   C     0.34276   0.75805   0.32933   0.00000  Uiso   1.00
C667   C     0.33366   0.72313   0.36418   0.00000  Uiso   1.00
C668   C     0.37505   0.92469   0.24079   0.00000  Uiso   1.00
C669   C     0.39378   0.94470   0.28540   0.00000  Uiso   1.00
C670   C     0.39304   0.99540   0.28494   0.00000  Uiso   1.00
C671   C     0.49476   0.83323   0.33518   0.00000  Uiso   1.00
C672   C     0.52083   0.69047   0.28381   0.00000  Uiso   1.00
C673   C     0.47981   0.97634   0.21560   0.00000  Uiso   1.00
C674   C     0.47918   0.69047   0.21618   0.00000  Uiso   1.00
C675   C     0.52019   0.97635   0.28440   0.00000  Uiso   1.00
C676   C     0.35161   0.79876   0.24026   0.00000  Uiso   1.00
H677   H     0.51952   0.90151   0.02969   0.00000  Uiso   1.00
H678   H     0.38637   0.77193   0.18990   0.00000  Uiso   1.00
H679   H     0.36519   0.73042   0.22502   0.00000  Uiso   1.00
H680   H     0.59045   0.67498   0.24308   0.00000  Uiso   1.00
H681   H     0.63896   0.67412   0.21917   0.00000  Uiso   1.00
H682   H     0.59207   0.67497   0.18312   0.00000  Uiso   1.00
H683   H     0.62272   0.93285   0.18615   0.00000  Uiso   1.00
H684   H     0.57393   0.93465   0.20829   0.00000  Uiso   1.00
H685   H     0.60299   0.92184   0.28412   0.00000  Uiso   1.00
H686   H     0.64587   0.94874   0.27731   0.00000  Uiso   1.00
H687   H     0.64084   0.73403   0.38257   0.00000  Uiso   1.00
H688   H     0.48663   0.75845   0.46723   0.00000  Uiso   1.00
H689   H     0.65960   0.69045   0.34795   0.00000  Uiso   1.00
H690   H     0.36079   0.71892   0.38862   0.00000  Uiso   1.00
H691   H     0.37116   0.74852   0.31426   0.00000  Uiso   1.00
H692   H     0.34827   0.79071   0.34644   0.00000  Uiso   1.00
H693   H     0.61364   0.77193   0.31008   0.00000  Uiso   1.00
H694   H     0.63489   0.73042   0.27501   0.00000  Uiso   1.00
H695   H     0.40974   0.67493   0.25716   0.00000  Uiso   1.00
H696   H     0.36112   0.67417   0.28081   0.00000  Uiso   1.00
H697   H     0.40786   0.67491   0.31707   0.00000  Uiso   1.00
H698   H     0.37717   0.93285   0.31392   0.00000  Uiso   1.00
H699   H     0.48065   0.90152   0.47035   0.00000  Uiso   1.00
H700   H     0.42600   0.93453   0.29187   0.00000  Uiso   1.00
H701   H     0.39702   0.92189   0.21597   0.00000  Uiso   1.00
H702   H     0.35412   0.94876   0.22278   0.00000  Uiso   1.00
H703   H     0.51350   0.75845   0.03278   0.00000  Uiso   1.00
H704   H     0.35915   0.73394   0.11744   0.00000  Uiso   1.00
H705   H     0.34049   0.69037   0.15214   0.00000  Uiso   1.00
H706   H     0.63922   0.71875   0.11148   0.00000  Uiso   1.00
H707   H     0.62886   0.74845   0.18579   0.00000  Uiso   1.00
H708   H     0.65171   0.79061   0.15356   0.00000  Uiso   1.00
N709   N     0.50000   0.95240   0.25000   0.00000  Uiso   1.00
N710   N     0.50000   0.71427   0.25000   0.00000  Uiso   1.00
O711   O     0.43892   0.87154   0.24999   0.00000  Uiso   1.00
O712   O     0.56108   0.79513   0.25000   0.00000  Uiso   1.00
O713   O     0.56108   0.87154   0.25000   0.00000  Uiso   1.00
O714   O     0.43892   0.79513   0.24999   0.00000  Uiso   1.00
O715   O     0.50000   0.87155   0.18453   0.00000  Uiso   1.00
O716   O     0.50000   0.79511   0.31547   0.00000  Uiso   1.00
O717   O     0.50000   0.87155   0.31547   0.00000  Uiso   1.00
O718   O     0.50000   0.79511   0.18453   0.00000  Uiso   1.00
Zn719  Zn    0.50000   0.88437   0.25000   0.00000  Uiso   1.00
Zn720  Zn    0.50000   0.78229   0.25000   0.00000  Uiso   1.00
Br721  Br    0.88637   0.72057   0.33083   0.00000  Uiso   1.00
Br722  Br    0.78457   0.94721   0.16485   0.00000  Uiso   1.00
Br723  Br    0.78031   0.72057   0.16916   0.00000  Uiso   1.00
Br724  Br    0.88208   0.94722   0.33517   0.00000  Uiso   1.00
Br725  Br    0.87306   0.92699   0.11934   0.00000  Uiso   1.00
Br726  Br    0.79515   0.73727   0.37646   0.00000  Uiso   1.00
Br727  Br    0.79364   0.92699   0.38072   0.00000  Uiso   1.00
Br728  Br    0.87155   0.73725   0.12358   0.00000  Uiso   1.00
C729   C     0.75306   0.83411   0.24679   0.00000  Uiso   1.00
C730   C     0.97895   0.87968   0.25293   0.00000  Uiso   1.00
C731   C     0.98173   0.79876   0.25973   0.00000  Uiso   1.00
C732   C     0.68772   0.87968   0.24709   0.00000  Uiso   1.00
C733   C     0.84838   0.87068   0.04719   0.00000  Uiso   1.00
C734   C     0.82134   0.79055   0.45125   0.00000  Uiso   1.00
C735   C     0.81843   0.87068   0.45284   0.00000  Uiso   1.00
C736   C     0.84545   0.79054   0.04876   0.00000  Uiso   1.00
C737   C     0.85296   0.87195   0.09347   0.00000  Uiso   1.00
C738   C     0.81533   0.79142   0.40493   0.00000  Uiso   1.00
C739   C     0.81379   0.87195   0.40656   0.00000  Uiso   1.00
C740   C     0.91361   0.83410   0.25321   0.00000  Uiso   1.00
C741   C     0.85141   0.79141   0.09509   0.00000  Uiso   1.00
C742   C     0.84800   0.83237   0.11779   0.00000  Uiso   1.00
C743   C     0.81871   0.83237   0.38223   0.00000  Uiso   1.00
C744   C     0.83939   0.83041   0.02442   0.00000  Uiso   1.00
C745   C     0.82742   0.83041   0.47559   0.00000  Uiso   1.00
C746   C     0.95851   0.83778   0.25683   0.00000  Uiso   1.00
C747   C     0.70816   0.83779   0.24316   0.00000  Uiso   1.00
C748   C     0.69286   0.76249   0.20732   0.00000  Uiso   1.00
C749   C     0.99059   0.75797   0.17071   0.00000  Uiso   1.00
C750   C     0.99971   0.72302   0.13588   0.00000  Uiso   1.00
C751   C     0.83859   0.83322   0.16482   0.00000  Uiso   1.00
C752   C     0.95828   0.92468   0.25929   0.00000  Uiso   1.00
C753   C     0.93952   0.94473   0.21470   0.00000  Uiso   1.00
C754   C     0.94033   0.99543   0.21518   0.00000  Uiso   1.00
C755   C     0.97383   0.76250   0.29270   0.00000  Uiso   1.00
C756   C     0.67609   0.75805   0.32933   0.00000  Uiso   1.00
C757   C     0.66699   0.72313   0.36418   0.00000  Uiso   1.00
C758   C     0.70838   0.92469   0.24079   0.00000  Uiso   1.00
C759   C     0.72711   0.94470   0.28540   0.00000  Uiso   1.00
C760   C     0.72637   0.99540   0.28494   0.00000  Uiso   1.00
C761   C     0.82809   0.83323   0.33518   0.00000  Uiso   1.00
C762   C     0.85416   0.69047   0.28381   0.00000  Uiso   1.00
C763   C     0.81314   0.97634   0.21560   0.00000  Uiso   1.00
C764   C     0.81251   0.69047   0.21618   0.00000  Uiso   1.00
C765   C     0.85352   0.97635   0.28440   0.00000  Uiso   1.00
C766   C     0.68494   0.79876   0.24026   0.00000  Uiso   1.00
H767   H     0.85285   0.90151   0.02969   0.00000  Uiso   1.00
H768   H     0.71970   0.77193   0.18990   0.00000  Uiso   1.00
H769   H     0.69852   0.73042   0.22502   0.00000  Uiso   1.00
H770   H     0.92378   0.67498   0.24308   0.00000  Uiso   1.00
H771   H     0.97229   0.67412   0.21917   0.00000  Uiso   1.00
H772   H     0.92540   0.67497   0.18312   0.00000  Uiso   1.00
H773   H     0.95605   0.93285   0.18615   0.00000  Uiso   1.00
H774   H     0.90726   0.93465   0.20829   0.00000  Uiso   1.00
H775   H     0.93632   0.92184   0.28412   0.00000  Uiso   1.00
H776   H     0.97920   0.94874   0.27731   0.00000  Uiso   1.00
H777   H     0.97417   0.73403   0.38257   0.00000  Uiso   1.00
H778   H     0.81996   0.75845   0.46723   0.00000  Uiso   1.00
H779   H     0.99294   0.69045   0.34795   0.00000  Uiso   1.00
H780   H     0.69412   0.71892   0.38862   0.00000  Uiso   1.00
H781   H     0.70450   0.74852   0.31426   0.00000  Uiso   1.00
H782   H     0.68160   0.79071   0.34644   0.00000  Uiso   1.00
H783   H     0.94697   0.77193   0.31008   0.00000  Uiso   1.00
H784   H     0.96822   0.73042   0.27501   0.00000  Uiso   1.00
H785   H     0.74307   0.67493   0.25716   0.00000  Uiso   1.00
H786   H     0.69445   0.67417   0.28081   0.00000  Uiso   1.00
H787   H     0.74119   0.67491   0.31707   0.00000  Uiso   1.00
H788   H     0.71051   0.93285   0.31392   0.00000  Uiso   1.00
H789   H     0.81398   0.90152   0.47035   0.00000  Uiso   1.00
H790   H     0.75934   0.93453   0.29187   0.00000  Uiso   1.00
H791   H     0.73035   0.92189   0.21597   0.00000  Uiso   1.00
H792   H     0.68746   0.94876   0.22278   0.00000  Uiso   1.00
H793   H     0.84683   0.75845   0.03278   0.00000  Uiso   1.00
H794   H     0.69249   0.73394   0.11744   0.00000  Uiso   1.00
H795   H     0.67382   0.69037   0.15214   0.00000  Uiso   1.00
H796   H     0.97255   0.71875   0.11148   0.00000  Uiso   1.00
H797   H     0.96219   0.74845   0.18579   0.00000  Uiso   1.00
H798   H     0.98505   0.79061   0.15356   0.00000  Uiso   1.00
N799   N     0.83333   0.95240   0.25000   0.00000  Uiso   1.00
N800   N     0.83333   0.71427   0.25000   0.00000  Uiso   1.00
O801   O     0.77226   0.87154   0.24999   0.00000  Uiso   1.00
O802   O     0.89441   0.79513   0.25000   0.00000  Uiso   1.00
O803   O     0.89441   0.87154   0.25000   0.00000  Uiso   1.00
O804   O     0.77226   0.79513   0.24999   0.00000  Uiso   1.00
O805   O     0.83333   0.87155   0.18453   0.00000  Uiso   1.00
O806   O     0.83334   0.79511   0.31547   0.00000  Uiso   1.00
O807   O     0.83334   0.87155   0.31547   0.00000  Uiso   1.00
O808   O     0.83333   0.79511   0.18453   0.00000  Uiso   1.00
Zn809  Zn    0.83333   0.88437   0.25000   0.00000  Uiso   1.00
Zn810  Zn    0.83333   0.78229   0.25000   0.00000  Uiso   1.00
Br811  Br    0.21971   0.05391   0.83083   0.00000  Uiso   1.00
Br812  Br    0.11790   0.28055   0.66485   0.00000  Uiso   1.00
Br813  Br    0.11364   0.05390   0.66916   0.00000  Uiso   1.00
Br814  Br    0.21541   0.28056   0.83517   0.00000  Uiso   1.00
Br815  Br    0.20639   0.26033   0.61934   0.00000  Uiso   1.00
Br816  Br    0.12848   0.07060   0.87646   0.00000  Uiso   1.00
Br817  Br    0.12698   0.26033   0.88072   0.00000  Uiso   1.00
Br818  Br    0.20488   0.07058   0.62358   0.00000  Uiso   1.00
C819   C     0.08640   0.16744   0.74679   0.00000  Uiso   1.00
C820   C     0.31228   0.21301   0.75293   0.00000  Uiso   1.00
C821   C     0.31506   0.13209   0.75973   0.00000  Uiso   1.00
C822   C     0.02105   0.21301   0.74709   0.00000  Uiso   1.00
C823   C     0.18172   0.20401   0.54719   0.00000  Uiso   1.00
C824   C     0.15467   0.12388   0.95125   0.00000  Uiso   1.00
C825   C     0.15176   0.20402   0.95284   0.00000  Uiso   1.00
C826   C     0.17878   0.12388   0.54876   0.00000  Uiso   1.00
C827   C     0.18629   0.20528   0.59347   0.00000  Uiso   1.00
C828   C     0.14866   0.12475   0.90493   0.00000  Uiso   1.00
C829   C     0.14713   0.20529   0.90656   0.00000  Uiso   1.00
C830   C     0.24694   0.16744   0.75321   0.00000  Uiso   1.00
C831   C     0.18474   0.12475   0.59509   0.00000  Uiso   1.00
C832   C     0.18134   0.16570   0.61779   0.00000  Uiso   1.00
C833   C     0.15205   0.16571   0.88223   0.00000  Uiso   1.00
C834   C     0.17273   0.16374   0.52442   0.00000  Uiso   1.00
C835   C     0.16075   0.16375   0.97559   0.00000  Uiso   1.00
C836   C     0.29184   0.17112   0.75683   0.00000  Uiso   1.00
C837   C     0.04149   0.17112   0.74316   0.00000  Uiso   1.00
C838   C     0.02620   0.09582   0.70732   0.00000  Uiso   1.00
C839   C     0.32392   0.09130   0.67071   0.00000  Uiso   1.00
C840   C     0.33304   0.05635   0.63588   0.00000  Uiso   1.00
C841   C     0.17192   0.16656   0.66482   0.00000  Uiso   1.00
C842   C     0.29161   0.25802   0.75929   0.00000  Uiso   1.00
C843   C     0.27285   0.27807   0.71470   0.00000  Uiso   1.00
C844   C     0.27367   0.32876   0.71518   0.00000  Uiso   1.00
C845   C     0.30716   0.09584   0.79270   0.00000  Uiso   1.00
C846   C     0.00943   0.09138   0.82933   0.00000  Uiso   1.00
C847   C     0.00032   0.05646   0.86418   0.00000  Uiso   1.00
C848   C     0.04172   0.25803   0.74079   0.00000  Uiso   1.00
C849   C     0.06044   0.27804   0.78540   0.00000  Uiso   1.00
C850   C     0.05971   0.32874   0.78494   0.00000  Uiso   1.00
C851   C     0.16142   0.16656   0.83518   0.00000  Uiso   1.00
C852   C     0.18749   0.02381   0.78381   0.00000  Uiso   1.00
C853   C     0.14648   0.30968   0.71560   0.00000  Uiso   1.00
C854   C     0.14585   0.02381   0.71618   0.00000  Uiso   1.00
C855   C     0.18686   0.30968   0.78440   0.00000  Uiso   1.00
C856   C     0.01827   0.13210   0.74026   0.00000  Uiso   1.00
H857   H     0.18618   0.23485   0.52969   0.00000  Uiso   1.00
H858   H     0.05304   0.10527   0.68990   0.00000  Uiso   1.00
H859   H     0.03185   0.06376   0.72502   0.00000  Uiso   1.00
H860   H     0.25711   0.00831   0.74308   0.00000  Uiso   1.00
H861   H     0.30562   0.00745   0.71917   0.00000  Uiso   1.00
H862   H     0.25874   0.00831   0.68312   0.00000  Uiso   1.00
H863   H     0.28938   0.26618   0.68615   0.00000  Uiso   1.00
H864   H     0.24059   0.26798   0.70829   0.00000  Uiso   1.00
H865   H     0.26966   0.25517   0.78412   0.00000  Uiso   1.00
H866   H     0.31253   0.28207   0.77731   0.00000  Uiso   1.00
H867   H     0.30750   0.06736   0.88257   0.00000  Uiso   1.00
H868   H     0.15330   0.09179   0.96723   0.00000  Uiso   1.00
H869   H     0.32627   0.02378   0.84795   0.00000  Uiso   1.00
H870   H     0.02745   0.05225   0.88862   0.00000  Uiso   1.00
H871   H     0.03783   0.08186   0.81426   0.00000  Uiso   1.00
H872   H     0.01494   0.12404   0.84644   0.00000  Uiso   1.00
H873   H     0.28030   0.10527   0.81008   0.00000  Uiso   1.00
H874   H     0.30156   0.06376   0.77501   0.00000  Uiso   1.00
H875   H     0.07641   0.00827   0.75716   0.00000  Uiso   1.00
H876   H     0.02779   0.00750   0.78081   0.00000  Uiso   1.00
H877   H     0.07453   0.00824   0.81707   0.00000  Uiso   1.00
H878   H     0.04384   0.26618   0.81392   0.00000  Uiso   1.00
H879   H     0.14731   0.23486   0.97035   0.00000  Uiso   1.00
H880   H     0.09267   0.26787   0.79187   0.00000  Uiso   1.00
H881   H     0.06369   0.25523   0.71597   0.00000  Uiso   1.00
H882   H     0.02079   0.28209   0.72278   0.00000  Uiso   1.00
H883   H     0.18017   0.09178   0.53278   0.00000  Uiso   1.00
H884   H     0.02582   0.06727   0.61744   0.00000  Uiso   1.00
H885   H     0.00715   0.02370   0.65214   0.00000  Uiso   1.00
H886   H     0.30589   0.05208   0.61148   0.00000  Uiso   1.00
H887   H     0.29553   0.08178   0.68579   0.00000  Uiso   1.00
H888   H     0.31838   0.12395   0.65356   0.00000  Uiso   1.00
N889   N     0.16667   0.28573   0.75000   0.00000  Uiso   1.00
N890   N     0.16667   0.04760   0.75000   0.00000  Uiso   1.00
O891   O     0.10559   0.20487   0.74999   0.00000  Uiso   1.00
O892   O     0.22774   0.12846   0.75000   0.00000  Uiso   1.00
O893   O     0.22774   0.20487   0.75000   0.00000  Uiso   1.00
O894   O     0.10559   0.12846   0.74999   0.00000  Uiso   1.00
O895   O     0.16666   0.20489   0.68453   0.00000  Uiso   1.00
O896   O     0.16667   0.12845   0.81547   0.00000  Uiso   1.00
O897   O     0.16667   0.20489   0.81547   0.00000  Uiso   1.00
O898   O     0.16666   0.12845   0.68453   0.00000  Uiso   1.00
Zn899  Zn    0.16667   0.21771   0.75000   0.00000  Uiso   1.00
Zn900  Zn    0.16667   0.11563   0.75000   0.00000  Uiso   1.00
Br901  Br    0.55304   0.05391   0.83083   0.00000  Uiso   1.00
Br902  Br    0.45124   0.28055   0.66485   0.00000  Uiso   1.00
Br903  Br    0.44697   0.05390   0.66916   0.00000  Uiso   1.00
Br904  Br    0.54875   0.28056   0.83517   0.00000  Uiso   1.00
Br905  Br    0.53973   0.26033   0.61934   0.00000  Uiso   1.00
Br906  Br    0.46181   0.07060   0.87646   0.00000  Uiso   1.00
Br907  Br    0.46031   0.26033   0.88072   0.00000  Uiso   1.00
Br908  Br    0.53822   0.07058   0.62358   0.00000  Uiso   1.00
C909   C     0.41973   0.16744   0.74679   0.00000  Uiso   1.00
C910   C     0.64561   0.21301   0.75293   0.00000  Uiso   1.00
C911   C     0.64840   0.13209   0.75973   0.00000  Uiso   1.00
C912   C     0.35438   0.21301   0.74709   0.00000  Uiso   1.00
C913   C     0.51505   0.20401   0.54719   0.00000  Uiso   1.00
C914   C     0.48801   0.12388   0.95125   0.00000  Uiso   1.00
C915   C     0.48509   0.20402   0.95284   0.00000  Uiso   1.00
C916   C     0.51211   0.12388   0.54876   0.00000  Uiso   1.00
C917   C     0.51963   0.20528   0.59347   0.00000  Uiso   1.00
C918   C     0.48200   0.12475   0.90493   0.00000  Uiso   1.00
C919   C     0.48046   0.20529   0.90656   0.00000  Uiso   1.00
C920   C     0.58027   0.16744   0.75321   0.00000  Uiso   1.00
C921   C     0.51807   0.12475   0.59509   0.00000  Uiso   1.00
C922   C     0.51467   0.16570   0.61779   0.00000  Uiso   1.00
C923   C     0.48538   0.16571   0.88223   0.00000  Uiso   1.00
C924   C     0.50606   0.16374   0.52442   0.00000  Uiso   1.00
C925   C     0.49409   0.16375   0.97559   0.00000  Uiso   1.00
C926   C     0.62518   0.17112   0.75683   0.00000  Uiso   1.00
C927   C     0.37482   0.17112   0.74316   0.00000  Uiso   1.00
C928   C     0.35953   0.09582   0.70732   0.00000  Uiso   1.00
C929   C     0.65726   0.09130   0.67071   0.00000  Uiso   1.00
C930   C     0.66637   0.05635   0.63588   0.00000  Uiso   1.00
C931   C     0.50525   0.16656   0.66482   0.00000  Uiso   1.00
C932   C     0.62495   0.25802   0.75929   0.00000  Uiso   1.00
C933   C     0.60618   0.27807   0.71470   0.00000  Uiso   1.00
C934   C     0.60700   0.32876   0.71518   0.00000  Uiso   1.00
C935   C     0.64050   0.09584   0.79270   0.00000  Uiso   1.00
C936   C     0.34276   0.09138   0.82933   0.00000  Uiso   1.00
C937   C     0.33366   0.05646   0.86418   0.00000  Uiso   1.00
C938   C     0.37505   0.25803   0.74079   0.00000  Uiso   1.00
C939   C     0.39378   0.27804   0.78540   0.00000  Uiso   1.00
C940   C     0.39304   0.32874   0.78494   0.00000  Uiso   1.00
C941   C     0.49476   0.16656   0.83518   0.00000  Uiso   1.00
C942   C     0.52083   0.02381   0.78381   0.00000  Uiso   1.00
C943   C     0.47981   0.30968   0.71560   0.00000  Uiso   1.00
C944   C     0.47918   0.02381   0.71618   0.00000  Uiso   1.00
C945   C     0.52019   0.30968   0.78440   0.00000  Uiso   1.00
C946   C     0.35161   0.13210   0.74026   0.00000  Uiso   1.00
H947   H     0.51952   0.23485   0.52969   0.00000  Uiso   1.00
H948   H     0.38637   0.10527   0.68990   0.00000  Uiso   1.00
H949   H     0.36519   0.06376   0.72502   0.00000  Uiso   1.00
H950   H     0.59045   0.00831   0.74308   0.00000  Uiso   1.00
H951   H     0.63896   0.00745   0.71917   0.00000  Uiso   1.00
H952   H     0.59207   0.00831   0.68312   0.00000  Uiso   1.00
H953   H     0.62272   0.26618   0.68615   0.00000  Uiso   1.00
H954   H     0.57393   0.26798   0.70829   0.00000  Uiso   1.00
H955   H     0.60299   0.25517   0.78412   0.00000  Uiso   1.00
H956   H     0.64587   0.28207   0.77731   0.00000  Uiso   1.00
H957   H     0.64084   0.06736   0.88257   0.00000  Uiso   1.00
H958   H     0.48663   0.09179   0.96723   0.00000  Uiso   1.00
H959   H     0.65960   0.02378   0.84795   0.00000  Uiso   1.00
H960   H     0.36079   0.05225   0.88862   0.00000  Uiso   1.00
H961   H     0.37116   0.08186   0.81426   0.00000  Uiso   1.00
H962   H     0.34827   0.12404   0.84644   0.00000  Uiso   1.00
H963   H     0.61364   0.10527   0.81008   0.00000  Uiso   1.00
H964   H     0.63489   0.06376   0.77501   0.00000  Uiso   1.00
H965   H     0.40974   0.00827   0.75716   0.00000  Uiso   1.00
H966   H     0.36112   0.00750   0.78081   0.00000  Uiso   1.00
H967   H     0.40786   0.00824   0.81707   0.00000  Uiso   1.00
H968   H     0.37717   0.26618   0.81392   0.00000  Uiso   1.00
H969   H     0.48065   0.23486   0.97035   0.00000  Uiso   1.00
H970   H     0.42600   0.26787   0.79187   0.00000  Uiso   1.00
H971   H     0.39702   0.25523   0.71597   0.00000  Uiso   1.00
H972   H     0.35412   0.28209   0.72278   0.00000  Uiso   1.00
H973   H     0.51350   0.09178   0.53278   0.00000  Uiso   1.00
H974   H     0.35915   0.06727   0.61744   0.00000  Uiso   1.00
H975   H     0.34049   0.02370   0.65214   0.00000  Uiso   1.00
H976   H     0.63922   0.05208   0.61148   0.00000  Uiso   1.00
H977   H     0.62886   0.08178   0.68579   0.00000  Uiso   1.00
H978   H     0.65171   0.12395   0.65356   0.00000  Uiso   1.00
N979   N     0.50000   0.28573   0.75000   0.00000  Uiso   1.00
N980   N     0.50000   0.04760   0.75000   0.00000  Uiso   1.00
O981   O     0.43892   0.20487   0.74999   0.00000  Uiso   1.00
O982   O     0.56108   0.12846   0.75000   0.00000  Uiso   1.00
O983   O     0.56108   0.20487   0.75000   0.00000  Uiso   1.00
O984   O     0.43892   0.12846   0.74999   0.00000  Uiso   1.00
O985   O     0.50000   0.20489   0.68453   0.00000  Uiso   1.00
O986   O     0.50000   0.12845   0.81547   0.00000  Uiso   1.00
O987   O     0.50000   0.20489   0.81547   0.00000  Uiso   1.00
O988   O     0.50000   0.12845   0.68453   0.00000  Uiso   1.00
Zn989  Zn    0.50000   0.21771   0.75000   0.00000  Uiso   1.00
Zn990  Zn    0.50000   0.11563   0.75000   0.00000  Uiso   1.00
Br991  Br    0.88637   0.05391   0.83083   0.00000  Uiso   1.00
Br992  Br    0.78457   0.28055   0.66485   0.00000  Uiso   1.00
Br993  Br    0.78031   0.05390   0.66916   0.00000  Uiso   1.00
Br994  Br    0.88208   0.28056   0.83517   0.00000  Uiso   1.00
Br995  Br    0.87306   0.26033   0.61934   0.00000  Uiso   1.00
Br996  Br    0.79515   0.07060   0.87646   0.00000  Uiso   1.00
Br997  Br    0.79364   0.26033   0.88072   0.00000  Uiso   1.00
Br998  Br    0.87155   0.07058   0.62358   0.00000  Uiso   1.00
C999   C     0.75306   0.16744   0.74679   0.00000  Uiso   1.00
C1000  C     0.97895   0.21301   0.75293   0.00000  Uiso   1.00
C1001  C     0.98173   0.13209   0.75973   0.00000  Uiso   1.00
C1002  C     0.68772   0.21301   0.74709   0.00000  Uiso   1.00
C1003  C     0.84838   0.20401   0.54719   0.00000  Uiso   1.00
C1004  C     0.82134   0.12388   0.95125   0.00000  Uiso   1.00
C1005  C     0.81843   0.20402   0.95284   0.00000  Uiso   1.00
C1006  C     0.84545   0.12388   0.54876   0.00000  Uiso   1.00
C1007  C     0.85296   0.20528   0.59347   0.00000  Uiso   1.00
C1008  C     0.81533   0.12475   0.90493   0.00000  Uiso   1.00
C1009  C     0.81379   0.20529   0.90656   0.00000  Uiso   1.00
C1010  C     0.91361   0.16744   0.75321   0.00000  Uiso   1.00
C1011  C     0.85141   0.12475   0.59509   0.00000  Uiso   1.00
C1012  C     0.84800   0.16570   0.61779   0.00000  Uiso   1.00
C1013  C     0.81871   0.16571   0.88223   0.00000  Uiso   1.00
C1014  C     0.83939   0.16374   0.52442   0.00000  Uiso   1.00
C1015  C     0.82742   0.16375   0.97559   0.00000  Uiso   1.00
C1016  C     0.95851   0.17112   0.75683   0.00000  Uiso   1.00
C1017  C     0.70816   0.17112   0.74316   0.00000  Uiso   1.00
C1018  C     0.69286   0.09582   0.70732   0.00000  Uiso   1.00
C1019  C     0.99059   0.09130   0.67071   0.00000  Uiso   1.00
C1020  C     0.99971   0.05635   0.63588   0.00000  Uiso   1.00
C1021  C     0.83859   0.16656   0.66482   0.00000  Uiso   1.00
C1022  C     0.95828   0.25802   0.75929   0.00000  Uiso   1.00
C1023  C     0.93952   0.27807   0.71470   0.00000  Uiso   1.00
C1024  C     0.94033   0.32876   0.71518   0.00000  Uiso   1.00
C1025  C     0.97383   0.09584   0.79270   0.00000  Uiso   1.00
C1026  C     0.67609   0.09138   0.82933   0.00000  Uiso   1.00
C1027  C     0.66699   0.05646   0.86418   0.00000  Uiso   1.00
C1028  C     0.70838   0.25803   0.74079   0.00000  Uiso   1.00
C1029  C     0.72711   0.27804   0.78540   0.00000  Uiso   1.00
C1030  C     0.72637   0.32874   0.78494   0.00000  Uiso   1.00
C1031  C     0.82809   0.16656   0.83518   0.00000  Uiso   1.00
C1032  C     0.85416   0.02381   0.78381   0.00000  Uiso   1.00
C1033  C     0.81314   0.30968   0.71560   0.00000  Uiso   1.00
C1034  C     0.81251   0.02381   0.71618   0.00000  Uiso   1.00
C1035  C     0.85352   0.30968   0.78440   0.00000  Uiso   1.00
C1036  C     0.68494   0.13210   0.74026   0.00000  Uiso   1.00
H1037  H     0.85285   0.23485   0.52969   0.00000  Uiso   1.00
H1038  H     0.71970   0.10527   0.68990   0.00000  Uiso   1.00
H1039  H     0.69852   0.06376   0.72502   0.00000  Uiso   1.00
H1040  H     0.92378   0.00831   0.74308   0.00000  Uiso   1.00
H1041  H     0.97229   0.00745   0.71917   0.00000  Uiso   1.00
H1042  H     0.92540   0.00831   0.68312   0.00000  Uiso   1.00
H1043  H     0.95605   0.26618   0.68615   0.00000  Uiso   1.00
H1044  H     0.90726   0.26798   0.70829   0.00000  Uiso   1.00
H1045  H     0.93632   0.25517   0.78412   0.00000  Uiso   1.00
H1046  H     0.97920   0.28207   0.77731   0.00000  Uiso   1.00
H1047  H     0.97417   0.06736   0.88257   0.00000  Uiso   1.00
H1048  H     0.81996   0.09179   0.96723   0.00000  Uiso   1.00
H1049  H     0.99294   0.02378   0.84795   0.00000  Uiso   1.00
H1050  H     0.69412   0.05225   0.88862   0.00000  Uiso   1.00
H1051  H     0.70450   0.08186   0.81426   0.00000  Uiso   1.00
H1052  H     0.68160   0.12404   0.84644   0.00000  Uiso   1.00
H1053  H     0.94697   0.10527   0.81008   0.00000  Uiso   1.00
H1054  H     0.96822   0.06376   0.77501   0.00000  Uiso   1.00
H1055  H     0.74307   0.00827   0.75716   0.00000  Uiso   1.00
H1056  H     0.69445   0.00750   0.78081   0.00000  Uiso   1.00
H1057  H     0.74119   0.00824   0.81707   0.00000  Uiso   1.00
H1058  H     0.71051   0.26618   0.81392   0.00000  Uiso   1.00
H1059  H     0.81398   0.23486   0.97035   0.00000  Uiso   1.00
H1060  H     0.75934   0.26787   0.79187   0.00000  Uiso   1.00
H1061  H     0.73035   0.25523   0.71597   0.00000  Uiso   1.00
H1062  H     0.68746   0.28209   0.72278   0.00000  Uiso   1.00
H1063  H     0.84683   0.09178   0.53278   0.00000  Uiso   1.00
H1064  H     0.69249   0.06727   0.61744   0.00000  Uiso   1.00
H1065  H     0.67382   0.02370   0.65214   0.00000  Uiso   1.00
H1066  H     0.97255   0.05208   0.61148   0.00000  Uiso   1.00
H1067  H     0.96219   0.08178   0.68579   0.00000  Uiso   1.00
H1068  H     0.98505   0.12395   0.65356   0.00000  Uiso   1.00
N1069  N     0.83333   0.28573   0.75000   0.00000  Uiso   1.00
N1070  N     0.83333   0.04760   0.75000   0.00000  Uiso   1.00
O1071  O     0.77226   0.20487   0.74999   0.00000  Uiso   1.00
O1072  O     0.89441   0.12846   0.75000   0.00000  Uiso   1.00
O1073  O     0.89441   0.20487   0.75000   0.00000  Uiso   1.00
O1074  O     0.77226   0.12846   0.74999   0.00000  Uiso   1.00
O1075  O     0.83333   0.20489   0.68453   0.00000  Uiso   1.00
O1076  O     0.83334   0.12845   0.81547   0.00000  Uiso   1.00
O1077  O     0.83334   0.20489   0.81547   0.00000  Uiso   1.00
O1078  O     0.83333   0.12845   0.68453   0.00000  Uiso   1.00
Zn1079 Zn    0.83333   0.21771   0.75000   0.00000  Uiso   1.00
Zn1080 Zn    0.83333   0.11563   0.75000   0.00000  Uiso   1.00
Br1081 Br    0.21971   0.38724   0.83083   0.00000  Uiso   1.00
Br1082 Br    0.11790   0.61388   0.66485   0.00000  Uiso   1.00
Br1083 Br    0.11364   0.38723   0.66916   0.00000  Uiso   1.00
Br1084 Br    0.21541   0.61389   0.83517   0.00000  Uiso   1.00
Br1085 Br    0.20639   0.59366   0.61934   0.00000  Uiso   1.00
Br1086 Br    0.12848   0.40393   0.87646   0.00000  Uiso   1.00
Br1087 Br    0.12698   0.59366   0.88072   0.00000  Uiso   1.00
Br1088 Br    0.20488   0.40392   0.62358   0.00000  Uiso   1.00
C1089  C     0.08640   0.50077   0.74679   0.00000  Uiso   1.00
C1090  C     0.31228   0.54634   0.75293   0.00000  Uiso   1.00
C1091  C     0.31506   0.46543   0.75973   0.00000  Uiso   1.00
C1092  C     0.02105   0.54635   0.74709   0.00000  Uiso   1.00
C1093  C     0.18172   0.53734   0.54719   0.00000  Uiso   1.00
C1094  C     0.15467   0.45721   0.95125   0.00000  Uiso   1.00
C1095  C     0.15176   0.53735   0.95284   0.00000  Uiso   1.00
C1096  C     0.17878   0.45721   0.54876   0.00000  Uiso   1.00
C1097  C     0.18629   0.53861   0.59347   0.00000  Uiso   1.00
C1098  C     0.14866   0.45809   0.90493   0.00000  Uiso   1.00
C1099  C     0.14713   0.53862   0.90656   0.00000  Uiso   1.00
C1100  C     0.24694   0.50077   0.75321   0.00000  Uiso   1.00
C1101  C     0.18474   0.45808   0.59509   0.00000  Uiso   1.00
C1102  C     0.18134   0.49903   0.61779   0.00000  Uiso   1.00
C1103  C     0.15205   0.49904   0.88223   0.00000  Uiso   1.00
C1104  C     0.17273   0.49708   0.52442   0.00000  Uiso   1.00
C1105  C     0.16075   0.49708   0.97559   0.00000  Uiso   1.00
C1106  C     0.29184   0.50445   0.75683   0.00000  Uiso   1.00
C1107  C     0.04149   0.50445   0.74316   0.00000  Uiso   1.00
C1108  C     0.02620   0.42915   0.70732   0.00000  Uiso   1.00
C1109  C     0.32392   0.42463   0.67071   0.00000  Uiso   1.00
C1110  C     0.33304   0.38969   0.63588   0.00000  Uiso   1.00
C1111  C     0.17192   0.49989   0.66482   0.00000  Uiso   1.00
C1112  C     0.29161   0.59135   0.75929   0.00000  Uiso   1.00
C1113  C     0.27285   0.61140   0.71470   0.00000  Uiso   1.00
C1114  C     0.27367   0.66210   0.71518   0.00000  Uiso   1.00
C1115  C     0.30716   0.42917   0.79270   0.00000  Uiso   1.00
C1116  C     0.00943   0.42471   0.82933   0.00000  Uiso   1.00
C1117  C     0.00032   0.38979   0.86418   0.00000  Uiso   1.00
C1118  C     0.04172   0.59136   0.74079   0.00000  Uiso   1.00
C1119  C     0.06044   0.61137   0.78540   0.00000  Uiso   1.00
C1120  C     0.05971   0.66207   0.78494   0.00000  Uiso   1.00
C1121  C     0.16142   0.49989   0.83518   0.00000  Uiso   1.00
C1122  C     0.18749   0.35714   0.78381   0.00000  Uiso   1.00
C1123  C     0.14648   0.64301   0.71560   0.00000  Uiso   1.00
C1124  C     0.14585   0.35714   0.71618   0.00000  Uiso   1.00
C1125  C     0.18686   0.64301   0.78440   0.00000  Uiso   1.00
C1126  C     0.01827   0.46543   0.74026   0.00000  Uiso   1.00
H1127  H     0.18618   0.56818   0.52969   0.00000  Uiso   1.00
H1128  H     0.05304   0.43860   0.68990   0.00000  Uiso   1.00
H1129  H     0.03185   0.39709   0.72502   0.00000  Uiso   1.00
H1130  H     0.25711   0.34165   0.74308   0.00000  Uiso   1.00
H1131  H     0.30562   0.34079   0.71917   0.00000  Uiso   1.00
H1132  H     0.25874   0.34164   0.68312   0.00000  Uiso   1.00
H1133  H     0.28938   0.59951   0.68615   0.00000  Uiso   1.00
H1134  H     0.24059   0.60132   0.70829   0.00000  Uiso   1.00
H1135  H     0.26966   0.58851   0.78412   0.00000  Uiso   1.00
H1136  H     0.31253   0.61541   0.77731   0.00000  Uiso   1.00
H1137  H     0.30750   0.40069   0.88257   0.00000  Uiso   1.00
H1138  H     0.15330   0.42512   0.96723   0.00000  Uiso   1.00
H1139  H     0.32627   0.35712   0.84795   0.00000  Uiso   1.00
H1140  H     0.02745   0.38559   0.88862   0.00000  Uiso   1.00
H1141  H     0.03783   0.41519   0.81426   0.00000  Uiso   1.00
H1142  H     0.01494   0.45738   0.84644   0.00000  Uiso   1.00
H1143  H     0.28030   0.43860   0.81008   0.00000  Uiso   1.00
H1144  H     0.30156   0.39709   0.77501   0.00000  Uiso   1.00
H1145  H     0.07641   0.34160   0.75716   0.00000  Uiso   1.00
H1146  H     0.02779   0.34083   0.78081   0.00000  Uiso   1.00
H1147  H     0.07453   0.34158   0.81707   0.00000  Uiso   1.00
H1148  H     0.04384   0.59952   0.81392   0.00000  Uiso   1.00
H1149  H     0.14731   0.56819   0.97035   0.00000  Uiso   1.00
H1150  H     0.09267   0.60120   0.79187   0.00000  Uiso   1.00
H1151  H     0.06369   0.58856   0.71597   0.00000  Uiso   1.00
H1152  H     0.02079   0.61542   0.72278   0.00000  Uiso   1.00
H1153  H     0.18017   0.42512   0.53278   0.00000  Uiso   1.00
H1154  H     0.02582   0.40061   0.61744   0.00000  Uiso   1.00
H1155  H     0.00715   0.35704   0.65214   0.00000  Uiso   1.00
H1156  H     0.30589   0.38541   0.61148   0.00000  Uiso   1.00
H1157  H     0.29553   0.41511   0.68579   0.00000  Uiso   1.00
H1158  H     0.31838   0.45728   0.65356   0.00000  Uiso   1.00
N1159  N     0.16667   0.61907   0.75000   0.00000  Uiso   1.00
N1160  N     0.16667   0.38093   0.75000   0.00000  Uiso   1.00
O1161  O     0.10559   0.53821   0.74999   0.00000  Uiso   1.00
O1162  O     0.22774   0.46179   0.75000   0.00000  Uiso   1.00
O1163  O     0.22774   0.53821   0.75000   0.00000  Uiso   1.00
O1164  O     0.10559   0.46179   0.74999   0.00000  Uiso   1.00
O1165  O     0.16666   0.53822   0.68453   0.00000  Uiso   1.00
O1166  O     0.16667   0.46178   0.81547   0.00000  Uiso   1.00
O1167  O     0.16667   0.53822   0.81547   0.00000  Uiso   1.00
O1168  O     0.16666   0.46178   0.68453   0.00000  Uiso   1.00
Zn1169 Zn    0.16667   0.55104   0.75000   0.00000  Uiso   1.00
Zn1170 Zn    0.16667   0.44896   0.75000   0.00000  Uiso   1.00
Br1171 Br    0.55304   0.38724   0.83083   0.00000  Uiso   1.00
Br1172 Br    0.45124   0.61388   0.66485   0.00000  Uiso   1.00
Br1173 Br    0.44697   0.38723   0.66916   0.00000  Uiso   1.00
Br1174 Br    0.54875   0.61389   0.83517   0.00000  Uiso   1.00
Br1175 Br    0.53973   0.59366   0.61934   0.00000  Uiso   1.00
Br1176 Br    0.46181   0.40393   0.87646   0.00000  Uiso   1.00
Br1177 Br    0.46031   0.59366   0.88072   0.00000  Uiso   1.00
Br1178 Br    0.53822   0.40392   0.62358   0.00000  Uiso   1.00
C1179  C     0.41973   0.50077   0.74679   0.00000  Uiso   1.00
C1180  C     0.64561   0.54634   0.75293   0.00000  Uiso   1.00
C1181  C     0.64840   0.46543   0.75973   0.00000  Uiso   1.00
C1182  C     0.35438   0.54635   0.74709   0.00000  Uiso   1.00
C1183  C     0.51505   0.53734   0.54719   0.00000  Uiso   1.00
C1184  C     0.48801   0.45721   0.95125   0.00000  Uiso   1.00
C1185  C     0.48509   0.53735   0.95284   0.00000  Uiso   1.00
C1186  C     0.51211   0.45721   0.54876   0.00000  Uiso   1.00
C1187  C     0.51963   0.53861   0.59347   0.00000  Uiso   1.00
C1188  C     0.48200   0.45809   0.90493   0.00000  Uiso   1.00
C1189  C     0.48046   0.53862   0.90656   0.00000  Uiso   1.00
C1190  C     0.58027   0.50077   0.75321   0.00000  Uiso   1.00
C1191  C     0.51807   0.45808   0.59509   0.00000  Uiso   1.00
C1192  C     0.51467   0.49903   0.61779   0.00000  Uiso   1.00
C1193  C     0.48538   0.49904   0.88223   0.00000  Uiso   1.00
C1194  C     0.50606   0.49708   0.52442   0.00000  Uiso   1.00
C1195  C     0.49409   0.49708   0.97559   0.00000  Uiso   1.00
C1196  C     0.62518   0.50445   0.75683   0.00000  Uiso   1.00
C1197  C     0.37482   0.50445   0.74316   0.00000  Uiso   1.00
C1198  C     0.35953   0.42915   0.70732   0.00000  Uiso   1.00
C1199  C     0.65726   0.42463   0.67071   0.00000  Uiso   1.00
C1200  C     0.66637   0.38969   0.63588   0.00000  Uiso   1.00
C1201  C     0.50525   0.49989   0.66482   0.00000  Uiso   1.00
C1202  C     0.62495   0.59135   0.75929   0.00000  Uiso   1.00
C1203  C     0.60618   0.61140   0.71470   0.00000  Uiso   1.00
C1204  C     0.60700   0.66210   0.71518   0.00000  Uiso   1.00
C1205  C     0.64050   0.42917   0.79270   0.00000  Uiso   1.00
C1206  C     0.34276   0.42471   0.82933   0.00000  Uiso   1.00
C1207  C     0.33366   0.38979   0.86418   0.00000  Uiso   1.00
C1208  C     0.37505   0.59136   0.74079   0.00000  Uiso   1.00
C1209  C     0.39378   0.61137   0.78540   0.00000  Uiso   1.00
C1210  C     0.39304   0.66207   0.78494   0.00000  Uiso   1.00
C1211  C     0.49476   0.49989   0.83518   0.00000  Uiso   1.00
C1212  C     0.52083   0.35714   0.78381   0.00000  Uiso   1.00
C1213  C     0.47981   0.64301   0.71560   0.00000  Uiso   1.00
C1214  C     0.47918   0.35714   0.71618   0.00000  Uiso   1.00
C1215  C     0.52019   0.64301   0.78440   0.00000  Uiso   1.00
C1216  C     0.35161   0.46543   0.74026   0.00000  Uiso   1.00
H1217  H     0.51952   0.56818   0.52969   0.00000  Uiso   1.00
H1218  H     0.38637   0.43860   0.68990   0.00000  Uiso   1.00
H1219  H     0.36519   0.39709   0.72502   0.00000  Uiso   1.00
H1220  H     0.59045   0.34165   0.74308   0.00000  Uiso   1.00
H1221  H     0.63896   0.34079   0.71917   0.00000  Uiso   1.00
H1222  H     0.59207   0.34164   0.68312   0.00000  Uiso   1.00
H1223  H     0.62272   0.59951   0.68615   0.00000  Uiso   1.00
H1224  H     0.57393   0.60132   0.70829   0.00000  Uiso   1.00
H1225  H     0.60299   0.58851   0.78412   0.00000  Uiso   1.00
H1226  H     0.64587   0.61541   0.77731   0.00000  Uiso   1.00
H1227  H     0.64084   0.40069   0.88257   0.00000  Uiso   1.00
H1228  H     0.48663   0.42512   0.96723   0.00000  Uiso   1.00
H1229  H     0.65960   0.35712   0.84795   0.00000  Uiso   1.00
H1230  H     0.36079   0.38559   0.88862   0.00000  Uiso   1.00
H1231  H     0.37116   0.41519   0.81426   0.00000  Uiso   1.00
H1232  H     0.34827   0.45738   0.84644   0.00000  Uiso   1.00
H1233  H     0.61364   0.43860   0.81008   0.00000  Uiso   1.00
H1234  H     0.63489   0.39709   0.77501   0.00000  Uiso   1.00
H1235  H     0.40974   0.34160   0.75716   0.00000  Uiso   1.00
H1236  H     0.36112   0.34083   0.78081   0.00000  Uiso   1.00
H1237  H     0.40786   0.34158   0.81707   0.00000  Uiso   1.00
H1238  H     0.37717   0.59952   0.81392   0.00000  Uiso   1.00
H1239  H     0.48065   0.56819   0.97035   0.00000  Uiso   1.00
H1240  H     0.42600   0.60120   0.79187   0.00000  Uiso   1.00
H1241  H     0.39702   0.58856   0.71597   0.00000  Uiso   1.00
H1242  H     0.35412   0.61542   0.72278   0.00000  Uiso   1.00
H1243  H     0.51350   0.42512   0.53278   0.00000  Uiso   1.00
H1244  H     0.35915   0.40061   0.61744   0.00000  Uiso   1.00
H1245  H     0.34049   0.35704   0.65214   0.00000  Uiso   1.00
H1246  H     0.63922   0.38541   0.61148   0.00000  Uiso   1.00
H1247  H     0.62886   0.41511   0.68579   0.00000  Uiso   1.00
H1248  H     0.65171   0.45728   0.65356   0.00000  Uiso   1.00
N1249  N     0.50000   0.61907   0.75000   0.00000  Uiso   1.00
N1250  N     0.50000   0.38093   0.75000   0.00000  Uiso   1.00
O1251  O     0.43892   0.53821   0.74999   0.00000  Uiso   1.00
O1252  O     0.56108   0.46179   0.75000   0.00000  Uiso   1.00
O1253  O     0.56108   0.53821   0.75000   0.00000  Uiso   1.00
O1254  O     0.43892   0.46179   0.74999   0.00000  Uiso   1.00
O1255  O     0.50000   0.53822   0.68453   0.00000  Uiso   1.00
O1256  O     0.50000   0.46178   0.81547   0.00000  Uiso   1.00
O1257  O     0.50000   0.53822   0.81547   0.00000  Uiso   1.00
O1258  O     0.50000   0.46178   0.68453   0.00000  Uiso   1.00
Zn1259 Zn    0.50000   0.55104   0.75000   0.00000  Uiso   1.00
Zn1260 Zn    0.50000   0.44896   0.75000   0.00000  Uiso   1.00
Br1261 Br    0.88637   0.38724   0.83083   0.00000  Uiso   1.00
Br1262 Br    0.78457   0.61388   0.66485   0.00000  Uiso   1.00
Br1263 Br    0.78031   0.38723   0.66916   0.00000  Uiso   1.00
Br1264 Br    0.88208   0.61389   0.83517   0.00000  Uiso   1.00
Br1265 Br    0.87306   0.59366   0.61934   0.00000  Uiso   1.00
Br1266 Br    0.79515   0.40393   0.87646   0.00000  Uiso   1.00
Br1267 Br    0.79364   0.59366   0.88072   0.00000  Uiso   1.00
Br1268 Br    0.87155   0.40392   0.62358   0.00000  Uiso   1.00
C1269  C     0.75306   0.50077   0.74679   0.00000  Uiso   1.00
C1270  C     0.97895   0.54634   0.75293   0.00000  Uiso   1.00
C1271  C     0.98173   0.46543   0.75973   0.00000  Uiso   1.00
C1272  C     0.68772   0.54635   0.74709   0.00000  Uiso   1.00
C1273  C     0.84838   0.53734   0.54719   0.00000  Uiso   1.00
C1274  C     0.82134   0.45721   0.95125   0.00000  Uiso   1.00
C1275  C     0.81843   0.53735   0.95284   0.00000  Uiso   1.00
C1276  C     0.84545   0.45721   0.54876   0.00000  Uiso   1.00
C1277  C     0.85296   0.53861   0.59347   0.00000  Uiso   1.00
C1278  C     0.81533   0.45809   0.90493   0.00000  Uiso   1.00
C1279  C     0.81379   0.53862   0.90656   0.00000  Uiso   1.00
C1280  C     0.91361   0.50077   0.75321   0.00000  Uiso   1.00
C1281  C     0.85141   0.45808   0.59509   0.00000  Uiso   1.00
C1282  C     0.84800   0.49903   0.61779   0.00000  Uiso   1.00
C1283  C     0.81871   0.49904   0.88223   0.00000  Uiso   1.00
C1284  C     0.83939   0.49708   0.52442   0.00000  Uiso   1.00
C1285  C     0.82742   0.49708   0.97559   0.00000  Uiso   1.00
C1286  C     0.95851   0.50445   0.75683   0.00000  Uiso   1.00
C1287  C     0.70816   0.50445   0.74316   0.00000  Uiso   1.00
C1288  C     0.69286   0.42915   0.70732   0.00000  Uiso   1.00
C1289  C     0.99059   0.42463   0.67071   0.00000  Uiso   1.00
C1290  C     0.99971   0.38969   0.63588   0.00000  Uiso   1.00
C1291  C     0.83859   0.49989   0.66482   0.00000  Uiso   1.00
C1292  C     0.95828   0.59135   0.75929   0.00000  Uiso   1.00
C1293  C     0.93952   0.61140   0.71470   0.00000  Uiso   1.00
C1294  C     0.94033   0.66210   0.71518   0.00000  Uiso   1.00
C1295  C     0.97383   0.42917   0.79270   0.00000  Uiso   1.00
C1296  C     0.67609   0.42471   0.82933   0.00000  Uiso   1.00
C1297  C     0.66699   0.38979   0.86418   0.00000  Uiso   1.00
C1298  C     0.70838   0.59136   0.74079   0.00000  Uiso   1.00
C1299  C     0.72711   0.61137   0.78540   0.00000  Uiso   1.00
C1300  C     0.72637   0.66207   0.78494   0.00000  Uiso   1.00
C1301  C     0.82809   0.49989   0.83518   0.00000  Uiso   1.00
C1302  C     0.85416   0.35714   0.78381   0.00000  Uiso   1.00
C1303  C     0.81314   0.64301   0.71560   0.00000  Uiso   1.00
C1304  C     0.81251   0.35714   0.71618   0.00000  Uiso   1.00
C1305  C     0.85352   0.64301   0.78440   0.00000  Uiso   1.00
C1306  C     0.68494   0.46543   0.74026   0.00000  Uiso   1.00
H1307  H     0.85285   0.56818   0.52969   0.00000  Uiso   1.00
H1308  H     0.71970   0.43860   0.68990   0.00000  Uiso   1.00
H1309  H     0.69852   0.39709   0.72502   0.00000  Uiso   1.00
H1310  H     0.92378   0.34165   0.74308   0.00000  Uiso   1.00
H1311  H     0.97229   0.34079   0.71917   0.00000  Uiso   1.00
H1312  H     0.92540   0.34164   0.68312   0.00000  Uiso   1.00
H1313  H     0.95605   0.59951   0.68615   0.00000  Uiso   1.00
H1314  H     0.90726   0.60132   0.70829   0.00000  Uiso   1.00
H1315  H     0.93632   0.58851   0.78412   0.00000  Uiso   1.00
H1316  H     0.97920   0.61541   0.77731   0.00000  Uiso   1.00
H1317  H     0.97417   0.40069   0.88257   0.00000  Uiso   1.00
H1318  H     0.81996   0.42512   0.96723   0.00000  Uiso   1.00
H1319  H     0.99294   0.35712   0.84795   0.00000  Uiso   1.00
H1320  H     0.69412   0.38559   0.88862   0.00000  Uiso   1.00
H1321  H     0.70450   0.41519   0.81426   0.00000  Uiso   1.00
H1322  H     0.68160   0.45738   0.84644   0.00000  Uiso   1.00
H1323  H     0.94697   0.43860   0.81008   0.00000  Uiso   1.00
H1324  H     0.96822   0.39709   0.77501   0.00000  Uiso   1.00
H1325  H     0.74307   0.34160   0.75716   0.00000  Uiso   1.00
H1326  H     0.69445   0.34083   0.78081   0.00000  Uiso   1.00
H1327  H     0.74119   0.34158   0.81707   0.00000  Uiso   1.00
H1328  H     0.71051   0.59952   0.81392   0.00000  Uiso   1.00
H1329  H     0.81398   0.56819   0.97035   0.00000  Uiso   1.00
H1330  H     0.75934   0.60120   0.79187   0.00000  Uiso   1.00
H1331  H     0.73035   0.58856   0.71597   0.00000  Uiso   1.00
H1332  H     0.68746   0.61542   0.72278   0.00000  Uiso   1.00
H1333  H     0.84683   0.42512   0.53278   0.00000  Uiso   1.00
H1334  H     0.69249   0.40061   0.61744   0.00000  Uiso   1.00
H1335  H     0.67382   0.35704   0.65214   0.00000  Uiso   1.00
H1336  H     0.97255   0.38541   0.61148   0.00000  Uiso   1.00
H1337  H     0.96219   0.41511   0.68579   0.00000  Uiso   1.00
H1338  H     0.98505   0.45728   0.65356   0.00000  Uiso   1.00
N1339  N     0.83333   0.61907   0.75000   0.00000  Uiso   1.00
N1340  N     0.83333   0.38093   0.75000   0.00000  Uiso   1.00
O1341  O     0.77226   0.53821   0.74999   0.00000  Uiso   1.00
O1342  O     0.89441   0.46179   0.75000   0.00000  Uiso   1.00
O1343  O     0.89441   0.53821   0.75000   0.00000  Uiso   1.00
O1344  O     0.77226   0.46179   0.74999   0.00000  Uiso   1.00
O1345  O     0.83333   0.53822   0.68453   0.00000  Uiso   1.00
O1346  O     0.83334   0.46178   0.81547   0.00000  Uiso   1.00
O1347  O     0.83334   0.53822   0.81547   0.00000  Uiso   1.00
O1348  O     0.83333   0.46178   0.68453   0.00000  Uiso   1.00
Zn1349 Zn    0.83333   0.55104   0.75000   0.00000  Uiso   1.00
Zn1350 Zn    0.83333   0.44896   0.75000   0.00000  Uiso   1.00
Br1351 Br    0.21971   0.72057   0.83083   0.00000  Uiso   1.00
Br1352 Br    0.11790   0.94721   0.66485   0.00000  Uiso   1.00
Br1353 Br    0.11364   0.72057   0.66916   0.00000  Uiso   1.00
Br1354 Br    0.21541   0.94722   0.83517   0.00000  Uiso   1.00
Br1355 Br    0.20639   0.92699   0.61934   0.00000  Uiso   1.00
Br1356 Br    0.12848   0.73727   0.87646   0.00000  Uiso   1.00
Br1357 Br    0.12698   0.92699   0.88072   0.00000  Uiso   1.00
Br1358 Br    0.20488   0.73725   0.62358   0.00000  Uiso   1.00
C1359  C     0.08640   0.83411   0.74679   0.00000  Uiso   1.00
C1360  C     0.31228   0.87968   0.75293   0.00000  Uiso   1.00
C1361  C     0.31506   0.79876   0.75973   0.00000  Uiso   1.00
C1362  C     0.02105   0.87968   0.74709   0.00000  Uiso   1.00
C1363  C     0.18172   0.87068   0.54719   0.00000  Uiso   1.00
C1364  C     0.15467   0.79055   0.95125   0.00000  Uiso   1.00
C1365  C     0.15176   0.87068   0.95284   0.00000  Uiso   1.00
C1366  C     0.17878   0.79054   0.54876   0.00000  Uiso   1.00
C1367  C     0.18629   0.87195   0.59347   0.00000  Uiso   1.00
C1368  C     0.14866   0.79142   0.90493   0.00000  Uiso   1.00
C1369  C     0.14713   0.87195   0.90656   0.00000  Uiso   1.00
C1370  C     0.24694   0.83410   0.75321   0.00000  Uiso   1.00
C1371  C     0.18474   0.79141   0.59509   0.00000  Uiso   1.00
C1372  C     0.18134   0.83237   0.61779   0.00000  Uiso   1.00
C1373  C     0.15205   0.83237   0.88223   0.00000  Uiso   1.00
C1374  C     0.17273   0.83041   0.52442   0.00000  Uiso   1.00
C1375  C     0.16075   0.83041   0.97559   0.00000  Uiso   1.00
C1376  C     0.29184   0.83778   0.75683   0.00000  Uiso   1.00
C1377  C     0.04149   0.83779   0.74316   0.00000  Uiso   1.00
C1378  C     0.02620   0.76249   0.70732   0.00000  Uiso   1.00
C1379  C     0.32392   0.75797   0.67071   0.00000  Uiso   1.00
C1380  C     0.33304   0.72302   0.63588   0.00000  Uiso   1.00
C1381  C     0.17192   0.83322   0.66482   0.00000  Uiso   1.00
C1382  C     0.29161   0.92468   0.75929   0.00000  Uiso   1.00
C1383  C     0.27285   0.94473   0.71470   0.00000  Uiso   1.00
C1384  C     0.27367   0.99543   0.71518   0.00000  Uiso   1.00
C1385  C     0.30716   0.76250   0.79270   0.00000  Uiso   1.00
C1386  C     0.00943   0.75805   0.82933   0.00000  Uiso   1.00
C1387  C     0.00032   0.72313   0.86418   0.00000  Uiso   1.00
C1388  C     0.04172   0.92469   0.74079   0.00000  Uiso   1.00
C1389  C     0.06044   0.94470   0.78540   0.00000  Uiso   1.00
C1390  C     0.05971   0.99540   0.78494   0.00000  Uiso   1.00
C1391  C     0.16142   0.83323   0.83518   0.00000  Uiso   1.00
C1392  C     0.18749   0.69047   0.78381   0.00000  Uiso   1.00
C1393  C     0.14648   0.97634   0.71560   0.00000  Uiso   1.00
C1394  C     0.14585   0.69047   0.71618   0.00000  Uiso   1.00
C1395  C     0.18686   0.97635   0.78440   0.00000  Uiso   1.00
C1396  C     0.01827   0.79876   0.74026   0.00000  Uiso   1.00
H1397  H     0.18618   0.90151   0.52969   0.00000  Uiso   1.00
H1398  H     0.05304   0.77193   0.68990   0.00000  Uiso   1.00
H1399  H     0.03185   0.73042   0.72502   0.00000  Uiso   1.00
H1400  H     0.25711   0.67498   0.74308   0.00000  Uiso   1.00
H1401  H     0.30562   0.67412   0.71917   0.00000  Uiso   1.00
H1402  H     0.25874   0.67497   0.68312   0.00000  Uiso   1.00
H1403  H     0.28938   0.93285   0.68615   0.00000  Uiso   1.00
H1404  H     0.24059   0.93465   0.70829   0.00000  Uiso   1.00
H1405  H     0.26966   0.92184   0.78412   0.00000  Uiso   1.00
H1406  H     0.31253   0.94874   0.77731   0.00000  Uiso   1.00
H1407  H     0.30750   0.73403   0.88257   0.00000  Uiso   1.00
H1408  H     0.15330   0.75845   0.96723   0.00000  Uiso   1.00
H1409  H     0.32627   0.69045   0.84795   0.00000  Uiso   1.00
H1410  H     0.02745   0.71892   0.88862   0.00000  Uiso   1.00
H1411  H     0.03783   0.74852   0.81426   0.00000  Uiso   1.00
H1412  H     0.01494   0.79071   0.84644   0.00000  Uiso   1.00
H1413  H     0.28030   0.77193   0.81008   0.00000  Uiso   1.00
H1414  H     0.30156   0.73042   0.77501   0.00000  Uiso   1.00
H1415  H     0.07641   0.67493   0.75716   0.00000  Uiso   1.00
H1416  H     0.02779   0.67417   0.78081   0.00000  Uiso   1.00
H1417  H     0.07453   0.67491   0.81707   0.00000  Uiso   1.00
H1418  H     0.04384   0.93285   0.81392   0.00000  Uiso   1.00
H1419  H     0.14731   0.90152   0.97035   0.00000  Uiso   1.00
H1420  H     0.09267   0.93453   0.79187   0.00000  Uiso   1.00
H1421  H     0.06369   0.92189   0.71597   0.00000  Uiso   1.00
H1422  H     0.02079   0.94876   0.72278   0.00000  Uiso   1.00
H1423  H     0.18017   0.75845   0.53278   0.00000  Uiso   1.00
H1424  H     0.02582   0.73394   0.61744   0.00000  Uiso   1.00
H1425  H     0.00715   0.69037   0.65214   0.00000  Uiso   1.00
H1426  H     0.30589   0.71875   0.61148   0.00000  Uiso   1.00
H1427  H     0.29553   0.74845   0.68579   0.00000  Uiso   1.00
H1428  H     0.31838   0.79061   0.65356   0.00000  Uiso   1.00
N1429  N     0.16667   0.95240   0.75000   0.00000  Uiso   1.00
N1430  N     0.16667   0.71427   0.75000   0.00000  Uiso   1.00
O1431  O     0.10559   0.87154   0.74999   0.00000  Uiso   1.00
O1432  O     0.22774   0.79513   0.75000   0.00000  Uiso   1.00
O1433  O     0.22774   0.87154   0.75000   0.00000  Uiso   1.00
O1434  O     0.10559   0.79513   0.74999   0.00000  Uiso   1.00
O1435  O     0.16666   0.87155   0.68453   0.00000  Uiso   1.00
O1436  O     0.16667   0.79511   0.81547   0.00000  Uiso   1.00
O1437  O     0.16667   0.87155   0.81547   0.00000  Uiso   1.00
O1438  O     0.16666   0.79511   0.68453   0.00000  Uiso   1.00
Zn1439 Zn    0.16667   0.88437   0.75000   0.00000  Uiso   1.00
Zn1440 Zn    0.16667   0.78229   0.75000   0.00000  Uiso   1.00
Br1441 Br    0.55304   0.72057   0.83083   0.00000  Uiso   1.00
Br1442 Br    0.45124   0.94721   0.66485   0.00000  Uiso   1.00
Br1443 Br    0.44697   0.72057   0.66916   0.00000  Uiso   1.00
Br1444 Br    0.54875   0.94722   0.83517   0.00000  Uiso   1.00
Br1445 Br    0.53973   0.92699   0.61934   0.00000  Uiso   1.00
Br1446 Br    0.46181   0.73727   0.87646   0.00000  Uiso   1.00
Br1447 Br    0.46031   0.92699   0.88072   0.00000  Uiso   1.00
Br1448 Br    0.53822   0.73725   0.62358   0.00000  Uiso   1.00
C1449  C     0.41973   0.83411   0.74679   0.00000  Uiso   1.00
C1450  C     0.64561   0.87968   0.75293   0.00000  Uiso   1.00
C1451  C     0.64840   0.79876   0.75973   0.00000  Uiso   1.00
C1452  C     0.35438   0.87968   0.74709   0.00000  Uiso   1.00
C1453  C     0.51505   0.87068   0.54719   0.00000  Uiso   1.00
C1454  C     0.48801   0.79055   0.95125   0.00000  Uiso   1.00
C1455  C     0.48509   0.87068   0.95284   0.00000  Uiso   1.00
C1456  C     0.51211   0.79054   0.54876   0.00000  Uiso   1.00
C1457  C     0.51963   0.87195   0.59347   0.00000  Uiso   1.00
C1458  C     0.48200   0.79142   0.90493   0.00000  Uiso   1.00
C1459  C     0.48046   0.87195   0.90656   0.00000  Uiso   1.00
C1460  C     0.58027   0.83410   0.75321   0.00000  Uiso   1.00
C1461  C     0.51807   0.79141   0.59509   0.00000  Uiso   1.00
C1462  C     0.51467   0.83237   0.61779   0.00000  Uiso   1.00
C1463  C     0.48538   0.83237   0.88223   0.00000  Uiso   1.00
C1464  C     0.50606   0.83041   0.52442   0.00000  Uiso   1.00
C1465  C     0.49409   0.83041   0.97559   0.00000  Uiso   1.00
C1466  C     0.62518   0.83778   0.75683   0.00000  Uiso   1.00
C1467  C     0.37482   0.83779   0.74316   0.00000  Uiso   1.00
C1468  C     0.35953   0.76249   0.70732   0.00000  Uiso   1.00
C1469  C     0.65726   0.75797   0.67071   0.00000  Uiso   1.00
C1470  C     0.66637   0.72302   0.63588   0.00000  Uiso   1.00
C1471  C     0.50525   0.83322   0.66482   0.00000  Uiso   1.00
C1472  C     0.62495   0.92468   0.75929   0.00000  Uiso   1.00
C1473  C     0.60618   0.94473   0.71470   0.00000  Uiso   1.00
C1474  C     0.60700   0.99543   0.71518   0.00000  Uiso   1.00
C1475  C     0.64050   0.76250   0.79270   0.00000  Uiso   1.00
C1476  C     0.34276   0.75805   0.82933   0.00000  Uiso   1.00
C1477  C     0.33366   0.72313   0.86418   0.00000  Uiso   1.00
C1478  C     0.37505   0.92469   0.74079   0.00000  Uiso   1.00
C1479  C     0.39378   0.94470   0.78540   0.00000  Uiso   1.00
C1480  C     0.39304   0.99540   0.78494   0.00000  Uiso   1.00
C1481  C     0.49476   0.83323   0.83518   0.00000  Uiso   1.00
C1482  C     0.52083   0.69047   0.78381   0.00000  Uiso   1.00
C1483  C     0.47981   0.97634   0.71560   0.00000  Uiso   1.00
C1484  C     0.47918   0.69047   0.71618   0.00000  Uiso   1.00
C1485  C     0.52019   0.97635   0.78440   0.00000  Uiso   1.00
C1486  C     0.35161   0.79876   0.74026   0.00000  Uiso   1.00
H1487  H     0.51952   0.90151   0.52969   0.00000  Uiso   1.00
H1488  H     0.38637   0.77193   0.68990   0.00000  Uiso   1.00
H1489  H     0.36519   0.73042   0.72502   0.00000  Uiso   1.00
H1490  H     0.59045   0.67498   0.74308   0.00000  Uiso   1.00
H1491  H     0.63896   0.67412   0.71917   0.00000  Uiso   1.00
H1492  H     0.59207   0.67497   0.68312   0.00000  Uiso   1.00
H1493  H     0.62272   0.93285   0.68615   0.00000  Uiso   1.00
H1494  H     0.57393   0.93465   0.70829   0.00000  Uiso   1.00
H1495  H     0.60299   0.92184   0.78412   0.00000  Uiso   1.00
H1496  H     0.64587   0.94874   0.77731   0.00000  Uiso   1.00
H1497  H     0.64084   0.73403   0.88257   0.00000  Uiso   1.00
H1498  H     0.48663   0.75845   0.96723   0.00000  Uiso   1.00
H1499  H     0.65960   0.69045   0.84795   0.00000  Uiso   1.00
H1500  H     0.36079   0.71892   0.88862   0.00000  Uiso   1.00
H1501  H     0.37116   0.74852   0.81426   0.00000  Uiso   1.00
H1502  H     0.34827   0.79071   0.84644   0.00000  Uiso   1.00
H1503  H     0.61364   0.77193   0.81008   0.00000  Uiso   1.00
H1504  H     0.63489   0.73042   0.77501   0.00000  Uiso   1.00
H1505  H     0.40974   0.67493   0.75716   0.00000  Uiso   1.00
H1506  H     0.36112   0.67417   0.78081   0.00000  Uiso   1.00
H1507  H     0.40786   0.67491   0.81707   0.00000  Uiso   1.00
H1508  H     0.37717   0.93285   0.81392   0.00000  Uiso   1.00
H1509  H     0.48065   0.90152   0.97035   0.00000  Uiso   1.00
H1510  H     0.42600   0.93453   0.79187   0.00000  Uiso   1.00
H1511  H     0.39702   0.92189   0.71597   0.00000  Uiso   1.00
H1512  H     0.35412   0.94876   0.72278   0.00000  Uiso   1.00
H1513  H     0.51350   0.75845   0.53278   0.00000  Uiso   1.00
H1514  H     0.35915   0.73394   0.61744   0.00000  Uiso   1.00
H1515  H     0.34049   0.69037   0.65214   0.00000  Uiso   1.00
H1516  H     0.63922   0.71875   0.61148   0.00000  Uiso   1.00
H1517  H     0.62886   0.74845   0.68579   0.00000  Uiso   1.00
H1518  H     0.65171   0.79061   0.65356   0.00000  Uiso   1.00
N1519  N     0.50000   0.95240   0.75000   0.00000  Uiso   1.00
N1520  N     0.50000   0.71427   0.75000   0.00000  Uiso   1.00
O1521  O     0.43892   0.87154   0.74999   0.00000  Uiso   1.00
O1522  O     0.56108   0.79513   0.75000   0.00000  Uiso   1.00
O1523  O     0.56108   0.87154   0.75000   0.00000  Uiso   1.00
O1524  O     0.43892   0.79513   0.74999   0.00000  Uiso   1.00
O1525  O     0.50000   0.87155   0.68453   0.00000  Uiso   1.00
O1526  O     0.50000   0.79511   0.81547   0.00000  Uiso   1.00
O1527  O     0.50000   0.87155   0.81547   0.00000  Uiso   1.00
O1528  O     0.50000   0.79511   0.68453   0.00000  Uiso   1.00
Zn1529 Zn    0.50000   0.88437   0.75000   0.00000  Uiso   1.00
Zn1530 Zn    0.50000   0.78229   0.75000   0.00000  Uiso   1.00
Br1531 Br    0.88637   0.72057   0.83083   0.00000  Uiso   1.00
Br1532 Br    0.78457   0.94721   0.66485   0.00000  Uiso   1.00
Br1533 Br    0.78031   0.72057   0.66916   0.00000  Uiso   1.00
Br1534 Br    0.88208   0.94722   0.83517   0.00000  Uiso   1.00
Br1535 Br    0.87306   0.92699   0.61934   0.00000  Uiso   1.00
Br1536 Br    0.79515   0.73727   0.87646   0.00000  Uiso   1.00
Br1537 Br    0.79364   0.92699   0.88072   0.00000  Uiso   1.00
Br1538 Br    0.87155   0.73725   0.62358   0.00000  Uiso   1.00
C1539  C     0.75306   0.83411   0.74679   0.00000  Uiso   1.00
C1540  C     0.97895   0.87968   0.75293   0.00000  Uiso   1.00
C1541  C     0.98173   0.79876   0.75973   0.00000  Uiso   1.00
C1542  C     0.68772   0.87968   0.74709   0.00000  Uiso   1.00
C1543  C     0.84838   0.87068   0.54719   0.00000  Uiso   1.00
C1544  C     0.82134   0.79055   0.95125   0.00000  Uiso   1.00
C1545  C     0.81843   0.87068   0.95284   0.00000  Uiso   1.00
C1546  C     0.84545   0.79054   0.54876   0.00000  Uiso   1.00
C1547  C     0.85296   0.87195   0.59347   0.00000  Uiso   1.00
C1548  C     0.81533   0.79142   0.90493   0.00000  Uiso   1.00
C1549  C     0.81379   0.87195   0.90656   0.00000  Uiso   1.00
C1550  C     0.91361   0.83410   0.75321   0.00000  Uiso   1.00
C1551  C     0.85141   0.79141   0.59509   0.00000  Uiso   1.00
C1552  C     0.84800   0.83237   0.61779   0.00000  Uiso   1.00
C1553  C     0.81871   0.83237   0.88223   0.00000  Uiso   1.00
C1554  C     0.83939   0.83041   0.52442   0.00000  Uiso   1.00
C1555  C     0.82742   0.83041   0.97559   0.00000  Uiso   1.00
C1556  C     0.95851   0.83778   0.75683   0.00000  Uiso   1.00
C1557  C     0.70816   0.83779   0.74316   0.00000  Uiso   1.00
C1558  C     0.69286   0.76249   0.70732   0.00000  Uiso   1.00
C1559  C     0.99059   0.75797   0.67071   0.00000  Uiso   1.00
C1560  C     0.99971   0.72302   0.63588   0.00000  Uiso   1.00
C1561  C     0.83859   0.83322   0.66482   0.00000  Uiso   1.00
C1562  C     0.95828   0.92468   0.75929   0.00000  Uiso   1.00
C1563  C     0.93952   0.94473   0.71470   0.00000  Uiso   1.00
C1564  C     0.94033   0.99543   0.71518   0.00000  Uiso   1.00
C1565  C     0.97383   0.76250   0.79270   0.00000  Uiso   1.00
C1566  C     0.67609   0.75805   0.82933   0.00000  Uiso   1.00
C1567  C     0.66699   0.72313   0.86418   0.00000  Uiso   1.00
C1568  C     0.70838   0.92469   0.74079   0.00000  Uiso   1.00
C1569  C     0.72711   0.94470   0.78540   0.00000  Uiso   1.00
C1570  C     0.72637   0.99540   0.78494   0.00000  Uiso   1.00
C1571  C     0.82809   0.83323   0.83518   0.00000  Uiso   1.00
C1572  C     0.85416   0.69047   0.78381   0.00000  Uiso   1.00
C1573  C     0.81314   0.97634   0.71560   0.00000  Uiso   1.00
C1574  C     0.81251   0.69047   0.71618   0.00000  Uiso   1.00
C1575  C     0.85352   0.97635   0.78440   0.00000  Uiso   1.00
C1576  C     0.68494   0.79876   0.74026   0.00000  Uiso   1.00
H1577  H     0.85285   0.90151   0.52969   0.00000  Uiso   1.00
H1578  H     0.71970   0.77193   0.68990   0.00000  Uiso   1.00
H1579  H     0.69852   0.73042   0.72502   0.00000  Uiso   1.00
H1580  H     0.92378   0.67498   0.74308   0.00000  Uiso   1.00
H1581  H     0.97229   0.67412   0.71917   0.00000  Uiso   1.00
H1582  H     0.92540   0.67497   0.68312   0.00000  Uiso   1.00
H1583  H     0.95605   0.93285   0.68615   0.00000  Uiso   1.00
H1584  H     0.90726   0.93465   0.70829   0.00000  Uiso   1.00
H1585  H     0.93632   0.92184   0.78412   0.00000  Uiso   1.00
H1586  H     0.97920   0.94874   0.77731   0.00000  Uiso   1.00
H1587  H     0.97417   0.73403   0.88257   0.00000  Uiso   1.00
H1588  H     0.81996   0.75845   0.96723   0.00000  Uiso   1.00
H1589  H     0.99294   0.69045   0.84795   0.00000  Uiso   1.00
H1590  H     0.69412   0.71892   0.88862   0.00000  Uiso   1.00
H1591  H     0.70450   0.74852   0.81426   0.00000  Uiso   1.00
H1592  H     0.68160   0.79071   0.84644   0.00000  Uiso   1.00
H1593  H     0.94697   0.77193   0.81008   0.00000  Uiso   1.00
H1594  H     0.96822   0.73042   0.77501   0.00000  Uiso   1.00
H1595  H     0.74307   0.67493   0.75716   0.00000  Uiso   1.00
H1596  H     0.69445   0.67417   0.78081   0.00000  Uiso   1.00
H1597  H     0.74119   0.67491   0.81707   0.00000  Uiso   1.00
H1598  H     0.71051   0.93285   0.81392   0.00000  Uiso   1.00
H1599  H     0.81398   0.90152   0.97035   0.00000  Uiso   1.00
H1600  H     0.75934   0.93453   0.79187   0.00000  Uiso   1.00
H1601  H     0.73035   0.92189   0.71597   0.00000  Uiso   1.00
H1602  H     0.68746   0.94876   0.72278   0.00000  Uiso   1.00
H1603  H     0.84683   0.75845   0.53278   0.00000  Uiso   1.00
H1604  H     0.69249   0.73394   0.61744   0.00000  Uiso   1.00
H1605  H     0.67382   0.69037   0.65214   0.00000  Uiso   1.00
H1606  H     0.97255   0.71875   0.61148   0.00000  Uiso   1.00
H1607  H     0.96219   0.74845   0.68579   0.00000  Uiso   1.00
H1608  H     0.98505   0.79061   0.65356   0.00000  Uiso   1.00
N1609  N     0.83333   0.95240   0.75000   0.00000  Uiso   1.00
N1610  N     0.83333   0.71427   0.75000   0.00000  Uiso   1.00
O1611  O     0.77226   0.87154   0.74999   0.00000  Uiso   1.00
O1612  O     0.89441   0.79513   0.75000   0.00000  Uiso   1.00
O1613  O     0.89441   0.87154   0.75000   0.00000  Uiso   1.00
O1614  O     0.77226   0.79513   0.74999   0.00000  Uiso   1.00
O1615  O     0.83333   0.87155   0.68453   0.00000  Uiso   1.00
O1616  O     0.83334   0.79511   0.81547   0.00000  Uiso   1.00
O1617  O     0.83334   0.87155   0.81547   0.00000  Uiso   1.00
O1618  O     0.83333   0.79511   0.68453   0.00000  Uiso   1.00
Zn1619 Zn    0.83333   0.88437   0.75000   0.00000  Uiso   1.00
Zn1620 Zn    0.83333   0.78229   0.75000   0.00000  Uiso   1.00
loop_
_geom_bond_atom_site_label_1
_geom_bond_atom_site_label_2
_geom_bond_distance
_geom_bond_site_symmetry_2
_ccdc_geom_bond_type
Br1    C42     1.912   .     S
Br2    C43     1.925   .     S
Br3    C44     1.912   .     S
Br4    C45     1.925   .     S
Br5    C17     1.915   .     S
Br6    C18     1.924   .     S
Br7    C19     1.915   .     S
Br8    C21     1.924   .     S
C9     C27     1.475   .     S
C9     O84     1.327   .     A
C9     O81     1.286   .     A
C10    C26     1.433   .     A
C10    C32     1.529   .     S
C10    C102    1.410   .     S
C11    C26     1.395   .     A
C11    C35     1.506   .     S
C11    C136    1.381   .     S
C12    C27     1.433   .     A
C12    C38     1.529   .     S
C12    C190    1.410   1_455 S
C13    H47     1.079   .     S
C13    C24     1.404   .     A
C13    C17     1.382   .     A
C14    C18     1.385   .     A
C14    H58     1.077   .     S
C14    C25     1.405   .     A
C15    C19     1.382   .     A
C15    C25     1.404   .     A
C15    H69     1.079   .     S
C16    C21     1.385   .     A
C16    C24     1.405   .     A
C16    H73     1.077   .     S
C17    C22     1.409   .     A
C18    C23     1.412   .     A
C19    C23     1.409   .     A
C20    O82     1.327   .     A
C20    C26     1.475   .     S
C20    O83     1.286   .     A
C21    C22     1.412   .     A
C22    C31     1.470   .     S
C23    C41     1.470   .     S
C24    C835    1.481   1_554 S
C25    C834    1.481   .     S
C27    C46     1.395   .     A
C28    C46     1.506   .     S
C28    H48     1.101   .     S
C28    H49     1.105   .     S
C28    C209    1.538   1_455 S
C29    H78     1.112   .     S
C29    C30     1.527   .     S
C29    H77     1.110   .     S
C29    C118    1.538   .     S
C30    H76     1.110   .     S
C30    H164    1.110   .     S
C30    H165    1.111   .     S
C31    O85     1.310   .     A
C31    O88     1.304   .     A
C32    H55     1.085   .     S
C32    C33     1.543   .     S
C32    H56     1.104   .     S
C33    C34     1.519   .     S
C33    H53     1.112   .     S
C33    H54     1.103   .     S
C34    H320    1.106   .     S
C34    H321    1.107   .     S
C34    H322    1.109   .     S
C35    H64     1.105   .     S
C35    H63     1.101   .     S
C35    C126    1.538   .     S
C36    C37     1.527   .     S
C36    H62     1.112   .     S
C36    H61     1.110   .     S
C36    C215    1.538   1_455 S
C37    H60     1.110   .     S
C37    H237    1.110   1_455 S
C37    H239    1.111   1_455 S
C38    C39     1.543   .     S
C38    H72     1.104   .     S
C38    H71     1.085   .     S
C39    H68     1.112   .     S
C39    C40     1.519   .     S
C39    H70     1.103   .     S
C40    H335    1.106   .     S
C40    H336    1.107   .     S
C40    H337    1.109   .     S
C41    O86     1.304   .     A
C41    O87     1.310   .     A
C42    N80     1.372   .     A
C42    C585    1.422   1_545 S
C43    N79     1.377   .     A
C43    C314    1.422   .     S
C44    N80     1.372   .     A
C44    C583    1.422   1_545 S
C45    N79     1.377   .     A
C45    C312    1.422   .     S
C46    C191    1.381   1_455 S
H50    C574    1.106   1_545 S
H51    C574    1.107   1_545 S
H52    C574    1.109   1_545 S
H57    C127    1.110   .     S
H59    C127    1.111   .     S
H65    C580    1.106   1_545 S
H66    C580    1.107   1_545 S
H67    C580    1.109   1_545 S
H74    C210    1.110   1_455 S
H75    C210    1.111   1_455 S
N79    Zn89    2.038   .     S
N80    Zn90    2.038   .     S
O81    Zn89    2.045   .     S
O82    Zn90    2.045   .     S
O83    Zn89    2.044   .     S
O84    Zn90    2.044   .     S
O85    Zn89    1.999   .     S
O86    Zn90    1.999   .     S
O87    Zn89    1.999   .     S
O88    Zn90    1.999   .     S
Br91   C132    1.912   .     S
Br92   C133    1.925   .     S
Br93   C134    1.912   .     S
Br94   C135    1.925   .     S
Br95   C107    1.915   .     S
Br96   C108    1.924   .     S
Br97   C109    1.915   .     S
Br98   C111    1.924   .     S
C99    C117    1.475   .     S
C99    O174    1.327   .     A
C99    O171    1.286   .     A
C100   C116    1.433   .     A
C100   C122    1.529   .     S
C100   C192    1.410   .     S
C101   C116    1.395   .     A
C101   C125    1.506   .     S
C101   C226    1.381   .     S
C102   C117    1.433   .     A
C102   C128    1.529   .     S
C103   H137    1.079   .     S
C103   C114    1.404   .     A
C103   C107    1.382   .     A
C104   C108    1.385   .     A
C104   H148    1.077   .     S
C104   C115    1.405   .     A
C105   C109    1.382   .     A
C105   C115    1.404   .     A
C105   H159    1.079   .     S
C106   C111    1.385   .     A
C106   C114    1.405   .     A
C106   H163    1.077   .     S
C107   C112    1.409   .     A
C108   C113    1.412   .     A
C109   C113    1.409   .     A
C110   O172    1.327   .     A
C110   C116    1.475   .     S
C110   O173    1.286   .     A
C111   C112    1.412   .     A
C112   C121    1.470   .     S
C113   C131    1.470   .     S
C114   C925    1.481   1_554 S
C115   C924    1.481   .     S
C117   C136    1.395   .     A
C118   C136    1.506   .     S
C118   H138    1.101   .     S
C118   H139    1.105   .     S
C119   H168    1.112   .     S
C119   C120    1.527   .     S
C119   H167    1.110   .     S
C119   C208    1.538   .     S
C120   H166    1.110   .     S
C120   H254    1.110   .     S
C120   H255    1.111   .     S
C121   O175    1.310   .     A
C121   O178    1.304   .     A
C122   H145    1.085   .     S
C122   C123    1.543   .     S
C122   H146    1.104   .     S
C123   C124    1.519   .     S
C123   H143    1.112   .     S
C123   H144    1.103   .     S
C124   H410    1.106   .     S
C124   H411    1.107   .     S
C124   H412    1.109   .     S
C125   H154    1.105   .     S
C125   H153    1.101   .     S
C125   C216    1.538   .     S
C126   C127    1.527   .     S
C126   H152    1.112   .     S
C126   H151    1.110   .     S
C127   H150    1.110   .     S
C128   C129    1.543   .     S
C128   H162    1.104   .     S
C128   H161    1.085   .     S
C129   H158    1.112   .     S
C129   C130    1.519   .     S
C129   H160    1.103   .     S
C130   H425    1.106   .     S
C130   H426    1.107   .     S
C130   H427    1.109   .     S
C131   O176    1.304   .     A
C131   O177    1.310   .     A
C132   N170    1.372   .     A
C132   C675    1.422   1_545 S
C133   N169    1.377   .     A
C133   C404    1.422   .     S
C134   N170    1.372   .     A
C134   C673    1.422   1_545 S
C135   N169    1.377   .     A
C135   C402    1.422   .     S
H140   C664    1.106   1_545 S
H141   C664    1.107   1_545 S
H142   C664    1.109   1_545 S
H147   C217    1.110   .     S
H149   C217    1.111   .     S
H155   C670    1.106   1_545 S
H156   C670    1.107   1_545 S
H157   C670    1.109   1_545 S
N169   Zn179   2.038   .     S
N170   Zn180   2.038   .     S
O171   Zn179   2.045   .     S
O172   Zn180   2.045   .     S
O173   Zn179   2.044   .     S
O174   Zn180   2.044   .     S
O175   Zn179   1.999   .     S
O176   Zn180   1.999   .     S
O177   Zn179   1.999   .     S
O178   Zn180   1.999   .     S
Br181  C222    1.912   .     S
Br182  C223    1.925   .     S
Br183  C224    1.912   .     S
Br184  C225    1.925   .     S
Br185  C197    1.915   .     S
Br186  C198    1.924   .     S
Br187  C199    1.915   .     S
Br188  C201    1.924   .     S
C189   C207    1.475   .     S
C189   O264    1.327   .     A
C189   O261    1.286   .     A
C190   C206    1.433   .     A
C190   C212    1.529   .     S
C190   C12     1.410   1_655 S
C191   C206    1.395   .     A
C191   C215    1.506   .     S
C191   C46     1.381   1_655 S
C192   C207    1.433   .     A
C192   C218    1.529   .     S
C193   H227    1.079   .     S
C193   C204    1.404   .     A
C193   C197    1.382   .     A
C194   C198    1.385   .     A
C194   H238    1.077   .     S
C194   C205    1.405   .     A
C195   C199    1.382   .     A
C195   C205    1.404   .     A
C195   H249    1.079   .     S
C196   C201    1.385   .     A
C196   C204    1.405   .     A
C196   H253    1.077   .     S
C197   C202    1.409   .     A
C198   C203    1.412   .     A
C199   C203    1.409   .     A
C200   O262    1.327   .     A
C200   C206    1.475   .     S
C200   O263    1.286   .     A
C201   C202    1.412   .     A
C202   C211    1.470   .     S
C203   C221    1.470   .     S
C204   C1015   1.481   1_554 S
C205   C1014   1.481   .     S
C207   C226    1.395   .     A
C208   C226    1.506   .     S
C208   H228    1.101   .     S
C208   H229    1.105   .     S
C209   H258    1.112   .     S
C209   C210    1.527   .     S
C209   H257    1.110   .     S
C209   C28     1.538   1_655 S
C210   H256    1.110   .     S
C210   H74     1.110   1_655 S
C210   H75     1.111   1_655 S
C211   O265    1.310   .     A
C211   O268    1.304   .     A
C212   H235    1.085   .     S
C212   C213    1.543   .     S
C212   H236    1.104   .     S
C213   C214    1.519   .     S
C213   H233    1.112   .     S
C213   H234    1.103   .     S
C214   H500    1.106   .     S
C214   H501    1.107   .     S
C214   H502    1.109   .     S
C215   H244    1.105   .     S
C215   H243    1.101   .     S
C215   C36     1.538   1_655 S
C216   C217    1.527   .     S
C216   H242    1.112   .     S
C216   H241    1.110   .     S
C217   H240    1.110   .     S
C218   C219    1.543   .     S
C218   H252    1.104   .     S
C218   H251    1.085   .     S
C219   H248    1.112   .     S
C219   C220    1.519   .     S
C219   H250    1.103   .     S
C220   H515    1.106   .     S
C220   H516    1.107   .     S
C220   H517    1.109   .     S
C221   O266    1.304   .     A
C221   O267    1.310   .     A
C222   N260    1.372   .     A
C222   C765    1.422   1_545 S
C223   N259    1.377   .     A
C223   C494    1.422   .     S
C224   N260    1.372   .     A
C224   C763    1.422   1_545 S
C225   N259    1.377   .     A
C225   C492    1.422   .     S
H230   C754    1.106   1_545 S
H231   C754    1.107   1_545 S
H232   C754    1.109   1_545 S
H237   C37     1.110   1_655 S
H239   C37     1.111   1_655 S
H245   C760    1.106   1_545 S
H246   C760    1.107   1_545 S
H247   C760    1.109   1_545 S
N259   Zn269   2.038   .     S
N260   Zn270   2.038   .     S
O261   Zn269   2.045   .     S
O262   Zn270   2.045   .     S
O263   Zn269   2.044   .     S
O264   Zn270   2.044   .     S
O265   Zn269   1.999   .     S
O266   Zn270   1.999   .     S
O267   Zn269   1.999   .     S
O268   Zn270   1.999   .     S
Br271  C312    1.912   .     S
Br272  C313    1.925   .     S
Br273  C314    1.912   .     S
Br274  C315    1.925   .     S
Br275  C287    1.915   .     S
Br276  C288    1.924   .     S
Br277  C289    1.915   .     S
Br278  C291    1.924   .     S
C279   C297    1.475   .     S
C279   O354    1.327   .     A
C279   O351    1.286   .     A
C280   C296    1.433   .     A
C280   C302    1.529   .     S
C280   C372    1.410   .     S
C281   C296    1.395   .     A
C281   C305    1.506   .     S
C281   C406    1.381   .     S
C282   C297    1.433   .     A
C282   C308    1.529   .     S
C282   C460    1.410   1_455 S
C283   H317    1.079   .     S
C283   C294    1.404   .     A
C283   C287    1.382   .     A
C284   C288    1.385   .     A
C284   H328    1.077   .     S
C284   C295    1.405   .     A
C285   C289    1.382   .     A
C285   C295    1.404   .     A
C285   H339    1.079   .     S
C286   C291    1.385   .     A
C286   C294    1.405   .     A
C286   H343    1.077   .     S
C287   C292    1.409   .     A
C288   C293    1.412   .     A
C289   C293    1.409   .     A
C290   O352    1.327   .     A
C290   C296    1.475   .     S
C290   O353    1.286   .     A
C291   C292    1.412   .     A
C292   C301    1.470   .     S
C293   C311    1.470   .     S
C294   C1105   1.481   1_554 S
C295   C1104   1.481   .     S
C297   C316    1.395   .     A
C298   C316    1.506   .     S
C298   H318    1.101   .     S
C298   H319    1.105   .     S
C298   C479    1.538   1_455 S
C299   H348    1.112   .     S
C299   C300    1.527   .     S
C299   H347    1.110   .     S
C299   C388    1.538   .     S
C300   H346    1.110   .     S
C300   H434    1.110   .     S
C300   H435    1.111   .     S
C301   O355    1.310   .     A
C301   O358    1.304   .     A
C302   H325    1.085   .     S
C302   C303    1.543   .     S
C302   H326    1.104   .     S
C303   C304    1.519   .     S
C303   H323    1.112   .     S
C303   H324    1.103   .     S
C304   H590    1.106   .     S
C304   H591    1.107   .     S
C304   H592    1.109   .     S
C305   H334    1.105   .     S
C305   H333    1.101   .     S
C305   C396    1.538   .     S
C306   C307    1.527   .     S
C306   H332    1.112   .     S
C306   H331    1.110   .     S
C306   C485    1.538   1_455 S
C307   H330    1.110   .     S
C307   H507    1.110   1_455 S
C307   H509    1.111   1_455 S
C308   C309    1.543   .     S
C308   H342    1.104   .     S
C308   H341    1.085   .     S
C309   H338    1.112   .     S
C309   C310    1.519   .     S
C309   H340    1.103   .     S
C310   H605    1.106   .     S
C310   H606    1.107   .     S
C310   H607    1.109   .     S
C311   O356    1.304   .     A
C311   O357    1.310   .     A
C312   N350    1.372   .     A
C313   N349    1.377   .     A
C313   C584    1.422   .     S
C314   N350    1.372   .     A
C315   N349    1.377   .     A
C315   C582    1.422   .     S
C316   C461    1.381   1_455 S
H327   C397    1.110   .     S
H329   C397    1.111   .     S
H344   C480    1.110   1_455 S
H345   C480    1.111   1_455 S
N349   Zn359   2.038   .     S
N350   Zn360   2.038   .     S
O351   Zn359   2.045   .     S
O352   Zn360   2.045   .     S
O353   Zn359   2.044   .     S
O354   Zn360   2.044   .     S
O355   Zn359   1.999   .     S
O356   Zn360   1.999   .     S
O357   Zn359   1.999   .     S
O358   Zn360   1.999   .     S
Br361  C402    1.912   .     S
Br362  C403    1.925   .     S
Br363  C404    1.912   .     S
Br364  C405    1.925   .     S
Br365  C377    1.915   .     S
Br366  C378    1.924   .     S
Br367  C379    1.915   .     S
Br368  C381    1.924   .     S
C369   C387    1.475   .     S
C369   O444    1.327   .     A
C369   O441    1.286   .     A
C370   C386    1.433   .     A
C370   C392    1.529   .     S
C370   C462    1.410   .     S
C371   C386    1.395   .     A
C371   C395    1.506   .     S
C371   C496    1.381   .     S
C372   C387    1.433   .     A
C372   C398    1.529   .     S
C373   H407    1.079   .     S
C373   C384    1.404   .     A
C373   C377    1.382   .     A
C374   C378    1.385   .     A
C374   H418    1.077   .     S
C374   C385    1.405   .     A
C375   C379    1.382   .     A
C375   C385    1.404   .     A
C375   H429    1.079   .     S
C376   C381    1.385   .     A
C376   C384    1.405   .     A
C376   H433    1.077   .     S
C377   C382    1.409   .     A
C378   C383    1.412   .     A
C379   C383    1.409   .     A
C380   O442    1.327   .     A
C380   C386    1.475   .     S
C380   O443    1.286   .     A
C381   C382    1.412   .     A
C382   C391    1.470   .     S
C383   C401    1.470   .     S
C384   C1195   1.481   1_554 S
C385   C1194   1.481   .     S
C387   C406    1.395   .     A
C388   C406    1.506   .     S
C388   H408    1.101   .     S
C388   H409    1.105   .     S
C389   H438    1.112   .     S
C389   C390    1.527   .     S
C389   H437    1.110   .     S
C389   C478    1.538   .     S
C390   H436    1.110   .     S
C390   H524    1.110   .     S
C390   H525    1.111   .     S
C391   O445    1.310   .     A
C391   O448    1.304   .     A
C392   H415    1.085   .     S
C392   C393    1.543   .     S
C392   H416    1.104   .     S
C393   C394    1.519   .     S
C393   H413    1.112   .     S
C393   H414    1.103   .     S
C394   H680    1.106   .     S
C394   H681    1.107   .     S
C394   H682    1.109   .     S
C395   H424    1.105   .     S
C395   H423    1.101   .     S
C395   C486    1.538   .     S
C396   C397    1.527   .     S
C396   H422    1.112   .     S
C396   H421    1.110   .     S
C397   H420    1.110   .     S
C398   C399    1.543   .     S
C398   H432    1.104   .     S
C398   H431    1.085   .     S
C399   H428    1.112   .     S
C399   C400    1.519   .     S
C399   H430    1.103   .     S
C400   H695    1.106   .     S
C400   H696    1.107   .     S
C400   H697    1.109   .     S
C401   O446    1.304   .     A
C401   O447    1.310   .     A
C402   N440    1.372   .     A
C403   N439    1.377   .     A
C403   C674    1.422   .     S
C404   N440    1.372   .     A
C405   N439    1.377   .     A
C405   C672    1.422   .     S
H417   C487    1.110   .     S
H419   C487    1.111   .     S
N439   Zn449   2.038   .     S
N440   Zn450   2.038   .     S
O441   Zn449   2.045   .     S
O442   Zn450   2.045   .     S
O443   Zn449   2.044   .     S
O444   Zn450   2.044   .     S
O445   Zn449   1.999   .     S
O446   Zn450   1.999   .     S
O447   Zn449   1.999   .     S
O448   Zn450   1.999   .     S
Br451  C492    1.912   .     S
Br452  C493    1.925   .     S
Br453  C494    1.912   .     S
Br454  C495    1.925   .     S
Br455  C467    1.915   .     S
Br456  C468    1.924   .     S
Br457  C469    1.915   .     S
Br458  C471    1.924   .     S
C459   C477    1.475   .     S
C459   O534    1.327   .     A
C459   O531    1.286   .     A
C460   C476    1.433   .     A
C460   C482    1.529   .     S
C460   C282    1.410   1_655 S
C461   C476    1.395   .     A
C461   C485    1.506   .     S
C461   C316    1.381   1_655 S
C462   C477    1.433   .     A
C462   C488    1.529   .     S
C463   H497    1.079   .     S
C463   C474    1.404   .     A
C463   C467    1.382   .     A
C464   C468    1.385   .     A
C464   H508    1.077   .     S
C464   C475    1.405   .     A
C465   C469    1.382   .     A
C465   C475    1.404   .     A
C465   H519    1.079   .     S
C466   C471    1.385   .     A
C466   C474    1.405   .     A
C466   H523    1.077   .     S
C467   C472    1.409   .     A
C468   C473    1.412   .     A
C469   C473    1.409   .     A
C470   O532    1.327   .     A
C470   C476    1.475   .     S
C470   O533    1.286   .     A
C471   C472    1.412   .     A
C472   C481    1.470   .     S
C473   C491    1.470   .     S
C474   C1285   1.481   1_554 S
C475   C1284   1.481   .     S
C477   C496    1.395   .     A
C478   C496    1.506   .     S
C478   H498    1.101   .     S
C478   H499    1.105   .     S
C479   H528    1.112   .     S
C479   C480    1.527   .     S
C479   H527    1.110   .     S
C479   C298    1.538   1_655 S
C480   H526    1.110   .     S
C480   H344    1.110   1_655 S
C480   H345    1.111   1_655 S
C481   O535    1.310   .     A
C481   O538    1.304   .     A
C482   H505    1.085   .     S
C482   C483    1.543   .     S
C482   H506    1.104   .     S
C483   C484    1.519   .     S
C483   H503    1.112   .     S
C483   H504    1.103   .     S
C484   H770    1.106   .     S
C484   H771    1.107   .     S
C484   H772    1.109   .     S
C485   H514    1.105   .     S
C485   H513    1.101   .     S
C485   C306    1.538   1_655 S
C486   C487    1.527   .     S
C486   H512    1.112   .     S
C486   H511    1.110   .     S
C487   H510    1.110   .     S
C488   C489    1.543   .     S
C488   H522    1.104   .     S
C488   H521    1.085   .     S
C489   H518    1.112   .     S
C489   C490    1.519   .     S
C489   H520    1.103   .     S
C490   H785    1.106   .     S
C490   H786    1.107   .     S
C490   H787    1.109   .     S
C491   O536    1.304   .     A
C491   O537    1.310   .     A
C492   N530    1.372   .     A
C493   N529    1.377   .     A
C493   C764    1.422   .     S
C494   N530    1.372   .     A
C495   N529    1.377   .     A
C495   C762    1.422   .     S
H507   C307    1.110   1_655 S
H509   C307    1.111   1_655 S
N529   Zn539   2.038   .     S
N530   Zn540   2.038   .     S
O531   Zn539   2.045   .     S
O532   Zn540   2.045   .     S
O533   Zn539   2.044   .     S
O534   Zn540   2.044   .     S
O535   Zn539   1.999   .     S
O536   Zn540   1.999   .     S
O537   Zn539   1.999   .     S
O538   Zn540   1.999   .     S
Br541  C582    1.912   .     S
Br542  C583    1.925   .     S
Br543  C584    1.912   .     S
Br544  C585    1.925   .     S
Br545  C557    1.915   .     S
Br546  C558    1.924   .     S
Br547  C559    1.915   .     S
Br548  C561    1.924   .     S
C549   C567    1.475   .     S
C549   O624    1.327   .     A
C549   O621    1.286   .     A
C550   C566    1.433   .     A
C550   C572    1.529   .     S
C550   C642    1.410   .     S
C551   C566    1.395   .     A
C551   C575    1.506   .     S
C551   C676    1.381   .     S
C552   C567    1.433   .     A
C552   C578    1.529   .     S
C552   C730    1.410   1_455 S
C553   H587    1.079   .     S
C553   C564    1.404   .     A
C553   C557    1.382   .     A
C554   C558    1.385   .     A
C554   H598    1.077   .     S
C554   C565    1.405   .     A
C555   C559    1.382   .     A
C555   C565    1.404   .     A
C555   H609    1.079   .     S
C556   C561    1.385   .     A
C556   C564    1.405   .     A
C556   H613    1.077   .     S
C557   C562    1.409   .     A
C558   C563    1.412   .     A
C559   C563    1.409   .     A
C560   O622    1.327   .     A
C560   C566    1.475   .     S
C560   O623    1.286   .     A
C561   C562    1.412   .     A
C562   C571    1.470   .     S
C563   C581    1.470   .     S
C564   C1375   1.481   1_554 S
C565   C1374   1.481   .     S
C567   C586    1.395   .     A
C568   C586    1.506   .     S
C568   H588    1.101   .     S
C568   H589    1.105   .     S
C568   C749    1.538   1_455 S
C569   H618    1.112   .     S
C569   C570    1.527   .     S
C569   H617    1.110   .     S
C569   C658    1.538   .     S
C570   H616    1.110   .     S
C570   H704    1.110   .     S
C570   H705    1.111   .     S
C571   O625    1.310   .     A
C571   O628    1.304   .     A
C572   H595    1.085   .     S
C572   C573    1.543   .     S
C572   H596    1.104   .     S
C573   C574    1.519   .     S
C573   H593    1.112   .     S
C573   H594    1.103   .     S
C574   H50     1.106   1_565 S
C574   H51     1.107   1_565 S
C574   H52     1.109   1_565 S
C575   H604    1.105   .     S
C575   H603    1.101   .     S
C575   C666    1.538   .     S
C576   C577    1.527   .     S
C576   H602    1.112   .     S
C576   H601    1.110   .     S
C576   C755    1.538   1_455 S
C577   H600    1.110   .     S
C577   H777    1.110   1_455 S
C577   H779    1.111   1_455 S
C578   C579    1.543   .     S
C578   H612    1.104   .     S
C578   H611    1.085   .     S
C579   H608    1.112   .     S
C579   C580    1.519   .     S
C579   H610    1.103   .     S
C580   H65     1.106   1_565 S
C580   H66     1.107   1_565 S
C580   H67     1.109   1_565 S
C581   O626    1.304   .     A
C581   O627    1.310   .     A
C582   N620    1.372   .     A
C583   N619    1.377   .     A
C583   C44     1.422   1_565 S
C584   N620    1.372   .     A
C585   N619    1.377   .     A
C585   C42     1.422   1_565 S
C586   C731    1.381   1_455 S
H597   C667    1.110   .     S
H599   C667    1.111   .     S
H614   C750    1.110   1_455 S
H615   C750    1.111   1_455 S
N619   Zn629   2.038   .     S
N620   Zn630   2.038   .     S
O621   Zn629   2.045   .     S
O622   Zn630   2.045   .     S
O623   Zn629   2.044   .     S
O624   Zn630   2.044   .     S
O625   Zn629   1.999   .     S
O626   Zn630   1.999   .     S
O627   Zn629   1.999   .     S
O628   Zn630   1.999   .     S
Br631  C672    1.912   .     S
Br632  C673    1.925   .     S
Br633  C674    1.912   .     S
Br634  C675    1.925   .     S
Br635  C647    1.915   .     S
Br636  C648    1.924   .     S
Br637  C649    1.915   .     S
Br638  C651    1.924   .     S
C639   C657    1.475   .     S
C639   O714    1.327   .     A
C639   O711    1.286   .     A
C640   C656    1.433   .     A
C640   C662    1.529   .     S
C640   C732    1.410   .     S
C641   C656    1.395   .     A
C641   C665    1.506   .     S
C641   C766    1.381   .     S
C642   C657    1.433   .     A
C642   C668    1.529   .     S
C643   H677    1.079   .     S
C643   C654    1.404   .     A
C643   C647    1.382   .     A
C644   C648    1.385   .     A
C644   H688    1.077   .     S
C644   C655    1.405   .     A
C645   C649    1.382   .     A
C645   C655    1.404   .     A
C645   H699    1.079   .     S
C646   C651    1.385   .     A
C646   C654    1.405   .     A
C646   H703    1.077   .     S
C647   C652    1.409   .     A
C648   C653    1.412   .     A
C649   C653    1.409   .     A
C650   O712    1.327   .     A
C650   C656    1.475   .     S
C650   O713    1.286   .     A
C651   C652    1.412   .     A
C652   C661    1.470   .     S
C653   C671    1.470   .     S
C654   C1465   1.481   1_554 S
C655   C1464   1.481   .     S
C657   C676    1.395   .     A
C658   C676    1.506   .     S
C658   H678    1.101   .     S
C658   H679    1.105   .     S
C659   H708    1.112   .     S
C659   C660    1.527   .     S
C659   H707    1.110   .     S
C659   C748    1.538   .     S
C660   H706    1.110   .     S
C660   H794    1.110   .     S
C660   H795    1.111   .     S
C661   O715    1.310   .     A
C661   O718    1.304   .     A
C662   H685    1.085   .     S
C662   C663    1.543   .     S
C662   H686    1.104   .     S
C663   C664    1.519   .     S
C663   H683    1.112   .     S
C663   H684    1.103   .     S
C664   H140    1.106   1_565 S
C664   H141    1.107   1_565 S
C664   H142    1.109   1_565 S
C665   H694    1.105   .     S
C665   H693    1.101   .     S
C665   C756    1.538   .     S
C666   C667    1.527   .     S
C666   H692    1.112   .     S
C666   H691    1.110   .     S
C667   H690    1.110   .     S
C668   C669    1.543   .     S
C668   H702    1.104   .     S
C668   H701    1.085   .     S
C669   H698    1.112   .     S
C669   C670    1.519   .     S
C669   H700    1.103   .     S
C670   H155    1.106   1_565 S
C670   H156    1.107   1_565 S
C670   H157    1.109   1_565 S
C671   O716    1.304   .     A
C671   O717    1.310   .     A
C672   N710    1.372   .     A
C673   N709    1.377   .     A
C673   C134    1.422   1_565 S
C674   N710    1.372   .     A
C675   N709    1.377   .     A
C675   C132    1.422   1_565 S
H687   C757    1.110   .     S
H689   C757    1.111   .     S
N709   Zn719   2.038   .     S
N710   Zn720   2.038   .     S
O711   Zn719   2.045   .     S
O712   Zn720   2.045   .     S
O713   Zn719   2.044   .     S
O714   Zn720   2.044   .     S
O715   Zn719   1.999   .     S
O716   Zn720   1.999   .     S
O717   Zn719   1.999   .     S
O718   Zn720   1.999   .     S
Br721  C762    1.912   .     S
Br722  C763    1.925   .     S
Br723  C764    1.912   .     S
Br724  C765    1.925   .     S
Br725  C737    1.915   .     S
Br726  C738    1.924   .     S
Br727  C739    1.915   .     S
Br728  C741    1.924   .     S
C729   C747    1.475   .     S
C729   O804    1.327   .     A
C729   O801    1.286   .     A
C730   C746    1.433   .     A
C730   C752    1.529   .     S
C730   C552    1.410   1_655 S
C731   C746    1.395   .     A
C731   C755    1.506   .     S
C731   C586    1.381   1_655 S
C732   C747    1.433   .     A
C732   C758    1.529   .     S
C733   H767    1.079   .     S
C733   C744    1.404   .     A
C733   C737    1.382   .     A
C734   C738    1.385   .     A
C734   H778    1.077   .     S
C734   C745    1.405   .     A
C735   C739    1.382   .     A
C735   C745    1.404   .     A
C735   H789    1.079   .     S
C736   C741    1.385   .     A
C736   C744    1.405   .     A
C736   H793    1.077   .     S
C737   C742    1.409   .     A
C738   C743    1.412   .     A
C739   C743    1.409   .     A
C740   O802    1.327   .     A
C740   C746    1.475   .     S
C740   O803    1.286   .     A
C741   C742    1.412   .     A
C742   C751    1.470   .     S
C743   C761    1.470   .     S
C744   C1555   1.481   1_554 S
C745   C1554   1.481   .     S
C747   C766    1.395   .     A
C748   C766    1.506   .     S
C748   H768    1.101   .     S
C748   H769    1.105   .     S
C749   H798    1.112   .     S
C749   C750    1.527   .     S
C749   H797    1.110   .     S
C749   C568    1.538   1_655 S
C750   H796    1.110   .     S
C750   H614    1.110   1_655 S
C750   H615    1.111   1_655 S
C751   O805    1.310   .     A
C751   O808    1.304   .     A
C752   H775    1.085   .     S
C752   C753    1.543   .     S
C752   H776    1.104   .     S
C753   C754    1.519   .     S
C753   H773    1.112   .     S
C753   H774    1.103   .     S
C754   H230    1.106   1_565 S
C754   H231    1.107   1_565 S
C754   H232    1.109   1_565 S
C755   H784    1.105   .     S
C755   H783    1.101   .     S
C755   C576    1.538   1_655 S
C756   C757    1.527   .     S
C756   H782    1.112   .     S
C756   H781    1.110   .     S
C757   H780    1.110   .     S
C758   C759    1.543   .     S
C758   H792    1.104   .     S
C758   H791    1.085   .     S
C759   H788    1.112   .     S
C759   C760    1.519   .     S
C759   H790    1.103   .     S
C760   H245    1.106   1_565 S
C760   H246    1.107   1_565 S
C760   H247    1.109   1_565 S
C761   O806    1.304   .     A
C761   O807    1.310   .     A
C762   N800    1.372   .     A
C763   N799    1.377   .     A
C763   C224    1.422   1_565 S
C764   N800    1.372   .     A
C765   N799    1.377   .     A
C765   C222    1.422   1_565 S
H777   C577    1.110   1_655 S
H779   C577    1.111   1_655 S
N799   Zn809   2.038   .     S
N800   Zn810   2.038   .     S
O801   Zn809   2.045   .     S
O802   Zn810   2.045   .     S
O803   Zn809   2.044   .     S
O804   Zn810   2.044   .     S
O805   Zn809   1.999   .     S
O806   Zn810   1.999   .     S
O807   Zn809   1.999   .     S
O808   Zn810   1.999   .     S
Br811  C852    1.912   .     S
Br812  C853    1.925   .     S
Br813  C854    1.912   .     S
Br814  C855    1.925   .     S
Br815  C827    1.915   .     S
Br816  C828    1.924   .     S
Br817  C829    1.915   .     S
Br818  C831    1.924   .     S
C819   C837    1.475   .     S
C819   O894    1.327   .     A
C819   O891    1.286   .     A
C820   C836    1.433   .     A
C820   C842    1.529   .     S
C820   C912    1.410   .     S
C821   C836    1.395   .     A
C821   C845    1.506   .     S
C821   C946    1.381   .     S
C822   C837    1.433   .     A
C822   C848    1.529   .     S
C822   C1000   1.410   1_455 S
C823   H857    1.079   .     S
C823   C834    1.404   .     A
C823   C827    1.382   .     A
C824   C828    1.385   .     A
C824   H868    1.077   .     S
C824   C835    1.405   .     A
C825   C829    1.382   .     A
C825   C835    1.404   .     A
C825   H879    1.079   .     S
C826   C831    1.385   .     A
C826   C834    1.405   .     A
C826   H883    1.077   .     S
C827   C832    1.409   .     A
C828   C833    1.412   .     A
C829   C833    1.409   .     A
C830   O892    1.327   .     A
C830   C836    1.475   .     S
C830   O893    1.286   .     A
C831   C832    1.412   .     A
C832   C841    1.470   .     S
C833   C851    1.470   .     S
C835   C24     1.481   1_556 S
C837   C856    1.395   .     A
C838   C856    1.506   .     S
C838   H858    1.101   .     S
C838   H859    1.105   .     S
C838   C1019   1.538   1_455 S
C839   H888    1.112   .     S
C839   C840    1.527   .     S
C839   H887    1.110   .     S
C839   C928    1.538   .     S
C840   H886    1.110   .     S
C840   H974    1.110   .     S
C840   H975    1.111   .     S
C841   O895    1.310   .     A
C841   O898    1.304   .     A
C842   H865    1.085   .     S
C842   C843    1.543   .     S
C842   H866    1.104   .     S
C843   C844    1.519   .     S
C843   H863    1.112   .     S
C843   H864    1.103   .     S
C844   H1130   1.106   .     S
C844   H1131   1.107   .     S
C844   H1132   1.109   .     S
C845   H874    1.105   .     S
C845   H873    1.101   .     S
C845   C936    1.538   .     S
C846   C847    1.527   .     S
C846   H872    1.112   .     S
C846   H871    1.110   .     S
C846   C1025   1.538   1_455 S
C847   H870    1.110   .     S
C847   H1047   1.110   1_455 S
C847   H1049   1.111   1_455 S
C848   C849    1.543   .     S
C848   H882    1.104   .     S
C848   H881    1.085   .     S
C849   H878    1.112   .     S
C849   C850    1.519   .     S
C849   H880    1.103   .     S
C850   H1145   1.106   .     S
C850   H1146   1.107   .     S
C850   H1147   1.109   .     S
C851   O896    1.304   .     A
C851   O897    1.310   .     A
C852   N890    1.372   .     A
C852   C1395   1.422   1_545 S
C853   N889    1.377   .     A
C853   C1124   1.422   .     S
C854   N890    1.372   .     A
C854   C1393   1.422   1_545 S
C855   N889    1.377   .     A
C855   C1122   1.422   .     S
C856   C1001   1.381   1_455 S
H860   C1384   1.106   1_545 S
H861   C1384   1.107   1_545 S
H862   C1384   1.109   1_545 S
H867   C937    1.110   .     S
H869   C937    1.111   .     S
H875   C1390   1.106   1_545 S
H876   C1390   1.107   1_545 S
H877   C1390   1.109   1_545 S
H884   C1020   1.110   1_455 S
H885   C1020   1.111   1_455 S
N889   Zn899   2.038   .     S
N890   Zn900   2.038   .     S
O891   Zn899   2.045   .     S
O892   Zn900   2.045   .     S
O893   Zn899   2.044   .     S
O894   Zn900   2.044   .     S
O895   Zn899   1.999   .     S
O896   Zn900   1.999   .     S
O897   Zn899   1.999   .     S
O898   Zn900   1.999   .     S
Br901  C942    1.912   .     S
Br902  C943    1.925   .     S
Br903  C944    1.912   .     S
Br904  C945    1.925   .     S
Br905  C917    1.915   .     S
Br906  C918    1.924   .     S
Br907  C919    1.915   .     S
Br908  C921    1.924   .     S
C909   C927    1.475   .     S
C909   O984    1.327   .     A
C909   O981    1.286   .     A
C910   C926    1.433   .     A
C910   C932    1.529   .     S
C910   C1002   1.410   .     S
C911   C926    1.395   .     A
C911   C935    1.506   .     S
C911   C1036   1.381   .     S
C912   C927    1.433   .     A
C912   C938    1.529   .     S
C913   H947    1.079   .     S
C913   C924    1.404   .     A
C913   C917    1.382   .     A
C914   C918    1.385   .     A
C914   H958    1.077   .     S
C914   C925    1.405   .     A
C915   C919    1.382   .     A
C915   C925    1.404   .     A
C915   H969    1.079   .     S
C916   C921    1.385   .     A
C916   C924    1.405   .     A
C916   H973    1.077   .     S
C917   C922    1.409   .     A
C918   C923    1.412   .     A
C919   C923    1.409   .     A
C920   O982    1.327   .     A
C920   C926    1.475   .     S
C920   O983    1.286   .     A
C921   C922    1.412   .     A
C922   C931    1.470   .     S
C923   C941    1.470   .     S
C925   C114    1.481   1_556 S
C927   C946    1.395   .     A
C928   C946    1.506   .     S
C928   H948    1.101   .     S
C928   H949    1.105   .     S
C929   H978    1.112   .     S
C929   C930    1.527   .     S
C929   H977    1.110   .     S
C929   C1018   1.538   .     S
C930   H976    1.110   .     S
C930   H1064   1.110   .     S
C930   H1065   1.111   .     S
C931   O985    1.310   .     A
C931   O988    1.304   .     A
C932   H955    1.085   .     S
C932   C933    1.543   .     S
C932   H956    1.104   .     S
C933   C934    1.519   .     S
C933   H953    1.112   .     S
C933   H954    1.103   .     S
C934   H1220   1.106   .     S
C934   H1221   1.107   .     S
C934   H1222   1.109   .     S
C935   H964    1.105   .     S
C935   H963    1.101   .     S
C935   C1026   1.538   .     S
C936   C937    1.527   .     S
C936   H962    1.112   .     S
C936   H961    1.110   .     S
C937   H960    1.110   .     S
C938   C939    1.543   .     S
C938   H972    1.104   .     S
C938   H971    1.085   .     S
C939   H968    1.112   .     S
C939   C940    1.519   .     S
C939   H970    1.103   .     S
C940   H1235   1.106   .     S
C940   H1236   1.107   .     S
C940   H1237   1.109   .     S
C941   O986    1.304   .     A
C941   O987    1.310   .     A
C942   N980    1.372   .     A
C942   C1485   1.422   1_545 S
C943   N979    1.377   .     A
C943   C1214   1.422   .     S
C944   N980    1.372   .     A
C944   C1483   1.422   1_545 S
C945   N979    1.377   .     A
C945   C1212   1.422   .     S
H950   C1474   1.106   1_545 S
H951   C1474   1.107   1_545 S
H952   C1474   1.109   1_545 S
H957   C1027   1.110   .     S
H959   C1027   1.111   .     S
H965   C1480   1.106   1_545 S
H966   C1480   1.107   1_545 S
H967   C1480   1.109   1_545 S
N979   Zn989   2.038   .     S
N980   Zn990   2.038   .     S
O981   Zn989   2.045   .     S
O982   Zn990   2.045   .     S
O983   Zn989   2.044   .     S
O984   Zn990   2.044   .     S
O985   Zn989   1.999   .     S
O986   Zn990   1.999   .     S
O987   Zn989   1.999   .     S
O988   Zn990   1.999   .     S
Br991  C1032   1.912   .     S
Br992  C1033   1.925   .     S
Br993  C1034   1.912   .     S
Br994  C1035   1.925   .     S
Br995  C1007   1.915   .     S
Br996  C1008   1.924   .     S
Br997  C1009   1.915   .     S
Br998  C1011   1.924   .     S
C999   C1017   1.475   .     S
C999   O1074   1.327   .     A
C999   O1071   1.286   .     A
C1000  C1016   1.433   .     A
C1000  C1022   1.529   .     S
C1000  C822    1.410   1_655 S
C1001  C1016   1.395   .     A
C1001  C1025   1.506   .     S
C1001  C856    1.381   1_655 S
C1002  C1017   1.433   .     A
C1002  C1028   1.529   .     S
C1003  H1037   1.079   .     S
C1003  C1014   1.404   .     A
C1003  C1007   1.382   .     A
C1004  C1008   1.385   .     A
C1004  H1048   1.077   .     S
C1004  C1015   1.405   .     A
C1005  C1009   1.382   .     A
C1005  C1015   1.404   .     A
C1005  H1059   1.079   .     S
C1006  C1011   1.385   .     A
C1006  C1014   1.405   .     A
C1006  H1063   1.077   .     S
C1007  C1012   1.409   .     A
C1008  C1013   1.412   .     A
C1009  C1013   1.409   .     A
C1010  O1072   1.327   .     A
C1010  C1016   1.475   .     S
C1010  O1073   1.286   .     A
C1011  C1012   1.412   .     A
C1012  C1021   1.470   .     S
C1013  C1031   1.470   .     S
C1015  C204    1.481   1_556 S
C1017  C1036   1.395   .     A
C1018  C1036   1.506   .     S
C1018  H1038   1.101   .     S
C1018  H1039   1.105   .     S
C1019  H1068   1.112   .     S
C1019  C1020   1.527   .     S
C1019  H1067   1.110   .     S
C1019  C838    1.538   1_655 S
C1020  H1066   1.110   .     S
C1020  H884    1.110   1_655 S
C1020  H885    1.111   1_655 S
C1021  O1075   1.310   .     A
C1021  O1078   1.304   .     A
C1022  H1045   1.085   .     S
C1022  C1023   1.543   .     S
C1022  H1046   1.104   .     S
C1023  C1024   1.519   .     S
C1023  H1043   1.112   .     S
C1023  H1044   1.103   .     S
C1024  H1310   1.106   .     S
C1024  H1311   1.107   .     S
C1024  H1312   1.109   .     S
C1025  H1054   1.105   .     S
C1025  H1053   1.101   .     S
C1025  C846    1.538   1_655 S
C1026  C1027   1.527   .     S
C1026  H1052   1.112   .     S
C1026  H1051   1.110   .     S
C1027  H1050   1.110   .     S
C1028  C1029   1.543   .     S
C1028  H1062   1.104   .     S
C1028  H1061   1.085   .     S
C1029  H1058   1.112   .     S
C1029  C1030   1.519   .     S
C1029  H1060   1.103   .     S
C1030  H1325   1.106   .     S
C1030  H1326   1.107   .     S
C1030  H1327   1.109   .     S
C1031  O1076   1.304   .     A
C1031  O1077   1.310   .     A
C1032  N1070   1.372   .     A
C1032  C1575   1.422   1_545 S
C1033  N1069   1.377   .     A
C1033  C1304   1.422   .     S
C1034  N1070   1.372   .     A
C1034  C1573   1.422   1_545 S
C1035  N1069   1.377   .     A
C1035  C1302   1.422   .     S
H1040  C1564   1.106   1_545 S
H1041  C1564   1.107   1_545 S
H1042  C1564   1.109   1_545 S
H1047  C847    1.110   1_655 S
H1049  C847    1.111   1_655 S
H1055  C1570   1.106   1_545 S
H1056  C1570   1.107   1_545 S
H1057  C1570   1.109   1_545 S
N1069  Zn1079  2.038   .     S
N1070  Zn1080  2.038   .     S
O1071  Zn1079  2.045   .     S
O1072  Zn1080  2.045   .     S
O1073  Zn1079  2.044   .     S
O1074  Zn1080  2.044   .     S
O1075  Zn1079  1.999   .     S
O1076  Zn1080  1.999   .     S
O1077  Zn1079  1.999   .     S
O1078  Zn1080  1.999   .     S
Br1081 C1122   1.912   .     S
Br1082 C1123   1.925   .     S
Br1083 C1124   1.912   .     S
Br1084 C1125   1.925   .     S
Br1085 C1097   1.915   .     S
Br1086 C1098   1.924   .     S
Br1087 C1099   1.915   .     S
Br1088 C1101   1.924   .     S
C1089  C1107   1.475   .     S
C1089  O1164   1.327   .     A
C1089  O1161   1.286   .     A
C1090  C1106   1.433   .     A
C1090  C1112   1.529   .     S
C1090  C1182   1.410   .     S
C1091  C1106   1.395   .     A
C1091  C1115   1.506   .     S
C1091  C1216   1.381   .     S
C1092  C1107   1.433   .     A
C1092  C1118   1.529   .     S
C1092  C1270   1.410   1_455 S
C1093  H1127   1.079   .     S
C1093  C1104   1.404   .     A
C1093  C1097   1.382   .     A
C1094  C1098   1.385   .     A
C1094  H1138   1.077   .     S
C1094  C1105   1.405   .     A
C1095  C1099   1.382   .     A
C1095  C1105   1.404   .     A
C1095  H1149   1.079   .     S
C1096  C1101   1.385   .     A
C1096  C1104   1.405   .     A
C1096  H1153   1.077   .     S
C1097  C1102   1.409   .     A
C1098  C1103   1.412   .     A
C1099  C1103   1.409   .     A
C1100  O1162   1.327   .     A
C1100  C1106   1.475   .     S
C1100  O1163   1.286   .     A
C1101  C1102   1.412   .     A
C1102  C1111   1.470   .     S
C1103  C1121   1.470   .     S
C1105  C294    1.481   1_556 S
C1107  C1126   1.395   .     A
C1108  C1126   1.506   .     S
C1108  H1128   1.101   .     S
C1108  H1129   1.105   .     S
C1108  C1289   1.538   1_455 S
C1109  H1158   1.112   .     S
C1109  C1110   1.527   .     S
C1109  H1157   1.110   .     S
C1109  C1198   1.538   .     S
C1110  H1156   1.110   .     S
C1110  H1244   1.110   .     S
C1110  H1245   1.111   .     S
C1111  O1165   1.310   .     A
C1111  O1168   1.304   .     A
C1112  H1135   1.085   .     S
C1112  C1113   1.543   .     S
C1112  H1136   1.104   .     S
C1113  C1114   1.519   .     S
C1113  H1133   1.112   .     S
C1113  H1134   1.103   .     S
C1114  H1400   1.106   .     S
C1114  H1401   1.107   .     S
C1114  H1402   1.109   .     S
C1115  H1144   1.105   .     S
C1115  H1143   1.101   .     S
C1115  C1206   1.538   .     S
C1116  C1117   1.527   .     S
C1116  H1142   1.112   .     S
C1116  H1141   1.110   .     S
C1116  C1295   1.538   1_455 S
C1117  H1140   1.110   .     S
C1117  H1317   1.110   1_455 S
C1117  H1319   1.111   1_455 S
C1118  C1119   1.543   .     S
C1118  H1152   1.104   .     S
C1118  H1151   1.085   .     S
C1119  H1148   1.112   .     S
C1119  C1120   1.519   .     S
C1119  H1150   1.103   .     S
C1120  H1415   1.106   .     S
C1120  H1416   1.107   .     S
C1120  H1417   1.109   .     S
C1121  O1166   1.304   .     A
C1121  O1167   1.310   .     A
C1122  N1160   1.372   .     A
C1123  N1159   1.377   .     A
C1123  C1394   1.422   .     S
C1124  N1160   1.372   .     A
C1125  N1159   1.377   .     A
C1125  C1392   1.422   .     S
C1126  C1271   1.381   1_455 S
H1137  C1207   1.110   .     S
H1139  C1207   1.111   .     S
H1154  C1290   1.110   1_455 S
H1155  C1290   1.111   1_455 S
N1159  Zn1169  2.038   .     S
N1160  Zn1170  2.038   .     S
O1161  Zn1169  2.045   .     S
O1162  Zn1170  2.045   .     S
O1163  Zn1169  2.044   .     S
O1164  Zn1170  2.044   .     S
O1165  Zn1169  1.999   .     S
O1166  Zn1170  1.999   .     S
O1167  Zn1169  1.999   .     S
O1168  Zn1170  1.999   .     S
Br1171 C1212   1.912   .     S
Br1172 C1213   1.925   .     S
Br1173 C1214   1.912   .     S
Br1174 C1215   1.925   .     S
Br1175 C1187   1.915   .     S
Br1176 C1188   1.924   .     S
Br1177 C1189   1.915   .     S
Br1178 C1191   1.924   .     S
C1179  C1197   1.475   .     S
C1179  O1254   1.327   .     A
C1179  O1251   1.286   .     A
C1180  C1196   1.433   .     A
C1180  C1202   1.529   .     S
C1180  C1272   1.410   .     S
C1181  C1196   1.395   .     A
C1181  C1205   1.506   .     S
C1181  C1306   1.381   .     S
C1182  C1197   1.433   .     A
C1182  C1208   1.529   .     S
C1183  H1217   1.079   .     S
C1183  C1194   1.404   .     A
C1183  C1187   1.382   .     A
C1184  C1188   1.385   .     A
C1184  H1228   1.077   .     S
C1184  C1195   1.405   .     A
C1185  C1189   1.382   .     A
C1185  C1195   1.404   .     A
C1185  H1239   1.079   .     S
C1186  C1191   1.385   .     A
C1186  C1194   1.405   .     A
C1186  H1243   1.077   .     S
C1187  C1192   1.409   .     A
C1188  C1193   1.412   .     A
C1189  C1193   1.409   .     A
C1190  O1252   1.327   .     A
C1190  C1196   1.475   .     S
C1190  O1253   1.286   .     A
C1191  C1192   1.412   .     A
C1192  C1201   1.470   .     S
C1193  C1211   1.470   .     S
C1195  C384    1.481   1_556 S
C1197  C1216   1.395   .     A
C1198  C1216   1.506   .     S
C1198  H1218   1.101   .     S
C1198  H1219   1.105   .     S
C1199  H1248   1.112   .     S
C1199  C1200   1.527   .     S
C1199  H1247   1.110   .     S
C1199  C1288   1.538   .     S
C1200  H1246   1.110   .     S
C1200  H1334   1.110   .     S
C1200  H1335   1.111   .     S
C1201  O1255   1.310   .     A
C1201  O1258   1.304   .     A
C1202  H1225   1.085   .     S
C1202  C1203   1.543   .     S
C1202  H1226   1.104   .     S
C1203  C1204   1.519   .     S
C1203  H1223   1.112   .     S
C1203  H1224   1.103   .     S
C1204  H1490   1.106   .     S
C1204  H1491   1.107   .     S
C1204  H1492   1.109   .     S
C1205  H1234   1.105   .     S
C1205  H1233   1.101   .     S
C1205  C1296   1.538   .     S
C1206  C1207   1.527   .     S
C1206  H1232   1.112   .     S
C1206  H1231   1.110   .     S
C1207  H1230   1.110   .     S
C1208  C1209   1.543   .     S
C1208  H1242   1.104   .     S
C1208  H1241   1.085   .     S
C1209  H1238   1.112   .     S
C1209  C1210   1.519   .     S
C1209  H1240   1.103   .     S
C1210  H1505   1.106   .     S
C1210  H1506   1.107   .     S
C1210  H1507   1.109   .     S
C1211  O1256   1.304   .     A
C1211  O1257   1.310   .     A
C1212  N1250   1.372   .     A
C1213  N1249   1.377   .     A
C1213  C1484   1.422   .     S
C1214  N1250   1.372   .     A
C1215  N1249   1.377   .     A
C1215  C1482   1.422   .     S
H1227  C1297   1.110   .     S
H1229  C1297   1.111   .     S
N1249  Zn1259  2.038   .     S
N1250  Zn1260  2.038   .     S
O1251  Zn1259  2.045   .     S
O1252  Zn1260  2.045   .     S
O1253  Zn1259  2.044   .     S
O1254  Zn1260  2.044   .     S
O1255  Zn1259  1.999   .     S
O1256  Zn1260  1.999   .     S
O1257  Zn1259  1.999   .     S
O1258  Zn1260  1.999   .     S
Br1261 C1302   1.912   .     S
Br1262 C1303   1.925   .     S
Br1263 C1304   1.912   .     S
Br1264 C1305   1.925   .     S
Br1265 C1277   1.915   .     S
Br1266 C1278   1.924   .     S
Br1267 C1279   1.915   .     S
Br1268 C1281   1.924   .     S
C1269  C1287   1.475   .     S
C1269  O1344   1.327   .     A
C1269  O1341   1.286   .     A
C1270  C1286   1.433   .     A
C1270  C1292   1.529   .     S
C1270  C1092   1.410   1_655 S
C1271  C1286   1.395   .     A
C1271  C1295   1.506   .     S
C1271  C1126   1.381   1_655 S
C1272  C1287   1.433   .     A
C1272  C1298   1.529   .     S
C1273  H1307   1.079   .     S
C1273  C1284   1.404   .     A
C1273  C1277   1.382   .     A
C1274  C1278   1.385   .     A
C1274  H1318   1.077   .     S
C1274  C1285   1.405   .     A
C1275  C1279   1.382   .     A
C1275  C1285   1.404   .     A
C1275  H1329   1.079   .     S
C1276  C1281   1.385   .     A
C1276  C1284   1.405   .     A
C1276  H1333   1.077   .     S
C1277  C1282   1.409   .     A
C1278  C1283   1.412   .     A
C1279  C1283   1.409   .     A
C1280  O1342   1.327   .     A
C1280  C1286   1.475   .     S
C1280  O1343   1.286   .     A
C1281  C1282   1.412   .     A
C1282  C1291   1.470   .     S
C1283  C1301   1.470   .     S
C1285  C474    1.481   1_556 S
C1287  C1306   1.395   .     A
C1288  C1306   1.506   .     S
C1288  H1308   1.101   .     S
C1288  H1309   1.105   .     S
C1289  H1338   1.112   .     S
C1289  C1290   1.527   .     S
C1289  H1337   1.110   .     S
C1289  C1108   1.538   1_655 S
C1290  H1336   1.110   .     S
C1290  H1154   1.110   1_655 S
C1290  H1155   1.111   1_655 S
C1291  O1345   1.310   .     A
C1291  O1348   1.304   .     A
C1292  H1315   1.085   .     S
C1292  C1293   1.543   .     S
C1292  H1316   1.104   .     S
C1293  C1294   1.519   .     S
C1293  H1313   1.112   .     S
C1293  H1314   1.103   .     S
C1294  H1580   1.106   .     S
C1294  H1581   1.107   .     S
C1294  H1582   1.109   .     S
C1295  H1324   1.105   .     S
C1295  H1323   1.101   .     S
C1295  C1116   1.538   1_655 S
C1296  C1297   1.527   .     S
C1296  H1322   1.112   .     S
C1296  H1321   1.110   .     S
C1297  H1320   1.110   .     S
C1298  C1299   1.543   .     S
C1298  H1332   1.104   .     S
C1298  H1331   1.085   .     S
C1299  H1328   1.112   .     S
C1299  C1300   1.519   .     S
C1299  H1330   1.103   .     S
C1300  H1595   1.106   .     S
C1300  H1596   1.107   .     S
C1300  H1597   1.109   .     S
C1301  O1346   1.304   .     A
C1301  O1347   1.310   .     A
C1302  N1340   1.372   .     A
C1303  N1339   1.377   .     A
C1303  C1574   1.422   .     S
C1304  N1340   1.372   .     A
C1305  N1339   1.377   .     A
C1305  C1572   1.422   .     S
H1317  C1117   1.110   1_655 S
H1319  C1117   1.111   1_655 S
N1339  Zn1349  2.038   .     S
N1340  Zn1350  2.038   .     S
O1341  Zn1349  2.045   .     S
O1342  Zn1350  2.045   .     S
O1343  Zn1349  2.044   .     S
O1344  Zn1350  2.044   .     S
O1345  Zn1349  1.999   .     S
O1346  Zn1350  1.999   .     S
O1347  Zn1349  1.999   .     S
O1348  Zn1350  1.999   .     S
Br1351 C1392   1.912   .     S
Br1352 C1393   1.925   .     S
Br1353 C1394   1.912   .     S
Br1354 C1395   1.925   .     S
Br1355 C1367   1.915   .     S
Br1356 C1368   1.924   .     S
Br1357 C1369   1.915   .     S
Br1358 C1371   1.924   .     S
C1359  C1377   1.475   .     S
C1359  O1434   1.327   .     A
C1359  O1431   1.286   .     A
C1360  C1376   1.433   .     A
C1360  C1382   1.529   .     S
C1360  C1452   1.410   .     S
C1361  C1376   1.395   .     A
C1361  C1385   1.506   .     S
C1361  C1486   1.381   .     S
C1362  C1377   1.433   .     A
C1362  C1388   1.529   .     S
C1362  C1540   1.410   1_455 S
C1363  H1397   1.079   .     S
C1363  C1374   1.404   .     A
C1363  C1367   1.382   .     A
C1364  C1368   1.385   .     A
C1364  H1408   1.077   .     S
C1364  C1375   1.405   .     A
C1365  C1369   1.382   .     A
C1365  C1375   1.404   .     A
C1365  H1419   1.079   .     S
C1366  C1371   1.385   .     A
C1366  C1374   1.405   .     A
C1366  H1423   1.077   .     S
C1367  C1372   1.409   .     A
C1368  C1373   1.412   .     A
C1369  C1373   1.409   .     A
C1370  O1432   1.327   .     A
C1370  C1376   1.475   .     S
C1370  O1433   1.286   .     A
C1371  C1372   1.412   .     A
C1372  C1381   1.470   .     S
C1373  C1391   1.470   .     S
C1375  C564    1.481   1_556 S
C1377  C1396   1.395   .     A
C1378  C1396   1.506   .     S
C1378  H1398   1.101   .     S
C1378  H1399   1.105   .     S
C1378  C1559   1.538   1_455 S
C1379  H1428   1.112   .     S
C1379  C1380   1.527   .     S
C1379  H1427   1.110   .     S
C1379  C1468   1.538   .     S
C1380  H1426   1.110   .     S
C1380  H1514   1.110   .     S
C1380  H1515   1.111   .     S
C1381  O1435   1.310   .     A
C1381  O1438   1.304   .     A
C1382  H1405   1.085   .     S
C1382  C1383   1.543   .     S
C1382  H1406   1.104   .     S
C1383  C1384   1.519   .     S
C1383  H1403   1.112   .     S
C1383  H1404   1.103   .     S
C1384  H860    1.106   1_565 S
C1384  H861    1.107   1_565 S
C1384  H862    1.109   1_565 S
C1385  H1414   1.105   .     S
C1385  H1413   1.101   .     S
C1385  C1476   1.538   .     S
C1386  C1387   1.527   .     S
C1386  H1412   1.112   .     S
C1386  H1411   1.110   .     S
C1386  C1565   1.538   1_455 S
C1387  H1410   1.110   .     S
C1387  H1587   1.110   1_455 S
C1387  H1589   1.111   1_455 S
C1388  C1389   1.543   .     S
C1388  H1422   1.104   .     S
C1388  H1421   1.085   .     S
C1389  H1418   1.112   .     S
C1389  C1390   1.519   .     S
C1389  H1420   1.103   .     S
C1390  H875    1.106   1_565 S
C1390  H876    1.107   1_565 S
C1390  H877    1.109   1_565 S
C1391  O1436   1.304   .     A
C1391  O1437   1.310   .     A
C1392  N1430   1.372   .     A
C1393  N1429   1.377   .     A
C1393  C854    1.422   1_565 S
C1394  N1430   1.372   .     A
C1395  N1429   1.377   .     A
C1395  C852    1.422   1_565 S
C1396  C1541   1.381   1_455 S
H1407  C1477   1.110   .     S
H1409  C1477   1.111   .     S
H1424  C1560   1.110   1_455 S
H1425  C1560   1.111   1_455 S
N1429  Zn1439  2.038   .     S
N1430  Zn1440  2.038   .     S
O1431  Zn1439  2.045   .     S
O1432  Zn1440  2.045   .     S
O1433  Zn1439  2.044   .     S
O1434  Zn1440  2.044   .     S
O1435  Zn1439  1.999   .     S
O1436  Zn1440  1.999   .     S
O1437  Zn1439  1.999   .     S
O1438  Zn1440  1.999   .     S
Br1441 C1482   1.912   .     S
Br1442 C1483   1.925   .     S
Br1443 C1484   1.912   .     S
Br1444 C1485   1.925   .     S
Br1445 C1457   1.915   .     S
Br1446 C1458   1.924   .     S
Br1447 C1459   1.915   .     S
Br1448 C1461   1.924   .     S
C1449  C1467   1.475   .     S
C1449  O1524   1.327   .     A
C1449  O1521   1.286   .     A
C1450  C1466   1.433   .     A
C1450  C1472   1.529   .     S
C1450  C1542   1.410   .     S
C1451  C1466   1.395   .     A
C1451  C1475   1.506   .     S
C1451  C1576   1.381   .     S
C1452  C1467   1.433   .     A
C1452  C1478   1.529   .     S
C1453  H1487   1.079   .     S
C1453  C1464   1.404   .     A
C1453  C1457   1.382   .     A
C1454  C1458   1.385   .     A
C1454  H1498   1.077   .     S
C1454  C1465   1.405   .     A
C1455  C1459   1.382   .     A
C1455  C1465   1.404   .     A
C1455  H1509   1.079   .     S
C1456  C1461   1.385   .     A
C1456  C1464   1.405   .     A
C1456  H1513   1.077   .     S
C1457  C1462   1.409   .     A
C1458  C1463   1.412   .     A
C1459  C1463   1.409   .     A
C1460  O1522   1.327   .     A
C1460  C1466   1.475   .     S
C1460  O1523   1.286   .     A
C1461  C1462   1.412   .     A
C1462  C1471   1.470   .     S
C1463  C1481   1.470   .     S
C1465  C654    1.481   1_556 S
C1467  C1486   1.395   .     A
C1468  C1486   1.506   .     S
C1468  H1488   1.101   .     S
C1468  H1489   1.105   .     S
C1469  H1518   1.112   .     S
C1469  C1470   1.527   .     S
C1469  H1517   1.110   .     S
C1469  C1558   1.538   .     S
C1470  H1516   1.110   .     S
C1470  H1604   1.110   .     S
C1470  H1605   1.111   .     S
C1471  O1525   1.310   .     A
C1471  O1528   1.304   .     A
C1472  H1495   1.085   .     S
C1472  C1473   1.543   .     S
C1472  H1496   1.104   .     S
C1473  C1474   1.519   .     S
C1473  H1493   1.112   .     S
C1473  H1494   1.103   .     S
C1474  H950    1.106   1_565 S
C1474  H951    1.107   1_565 S
C1474  H952    1.109   1_565 S
C1475  H1504   1.105   .     S
C1475  H1503   1.101   .     S
C1475  C1566   1.538   .     S
C1476  C1477   1.527   .     S
C1476  H1502   1.112   .     S
C1476  H1501   1.110   .     S
C1477  H1500   1.110   .     S
C1478  C1479   1.543   .     S
C1478  H1512   1.104   .     S
C1478  H1511   1.085   .     S
C1479  H1508   1.112   .     S
C1479  C1480   1.519   .     S
C1479  H1510   1.103   .     S
C1480  H965    1.106   1_565 S
C1480  H966    1.107   1_565 S
C1480  H967    1.109   1_565 S
C1481  O1526   1.304   .     A
C1481  O1527   1.310   .     A
C1482  N1520   1.372   .     A
C1483  N1519   1.377   .     A
C1483  C944    1.422   1_565 S
C1484  N1520   1.372   .     A
C1485  N1519   1.377   .     A
C1485  C942    1.422   1_565 S
H1497  C1567   1.110   .     S
H1499  C1567   1.111   .     S
N1519  Zn1529  2.038   .     S
N1520  Zn1530  2.038   .     S
O1521  Zn1529  2.045   .     S
O1522  Zn1530  2.045   .     S
O1523  Zn1529  2.044   .     S
O1524  Zn1530  2.044   .     S
O1525  Zn1529  1.999   .     S
O1526  Zn1530  1.999   .     S
O1527  Zn1529  1.999   .     S
O1528  Zn1530  1.999   .     S
Br1531 C1572   1.912   .     S
Br1532 C1573   1.925   .     S
Br1533 C1574   1.912   .     S
Br1534 C1575   1.925   .     S
Br1535 C1547   1.915   .     S
Br1536 C1548   1.924   .     S
Br1537 C1549   1.915   .     S
Br1538 C1551   1.924   .     S
C1539  C1557   1.475   .     S
C1539  O1614   1.327   .     A
C1539  O1611   1.286   .     A
C1540  C1556   1.433   .     A
C1540  C1562   1.529   .     S
C1540  C1362   1.410   1_655 S
C1541  C1556   1.395   .     A
C1541  C1565   1.506   .     S
C1541  C1396   1.381   1_655 S
C1542  C1557   1.433   .     A
C1542  C1568   1.529   .     S
C1543  H1577   1.079   .     S
C1543  C1554   1.404   .     A
C1543  C1547   1.382   .     A
C1544  C1548   1.385   .     A
C1544  H1588   1.077   .     S
C1544  C1555   1.405   .     A
C1545  C1549   1.382   .     A
C1545  C1555   1.404   .     A
C1545  H1599   1.079   .     S
C1546  C1551   1.385   .     A
C1546  C1554   1.405   .     A
C1546  H1603   1.077   .     S
C1547  C1552   1.409   .     A
C1548  C1553   1.412   .     A
C1549  C1553   1.409   .     A
C1550  O1612   1.327   .     A
C1550  C1556   1.475   .     S
C1550  O1613   1.286   .     A
C1551  C1552   1.412   .     A
C1552  C1561   1.470   .     S
C1553  C1571   1.470   .     S
C1555  C744    1.481   1_556 S
C1557  C1576   1.395   .     A
C1558  C1576   1.506   .     S
C1558  H1578   1.101   .     S
C1558  H1579   1.105   .     S
C1559  H1608   1.112   .     S
C1559  C1560   1.527   .     S
C1559  H1607   1.110   .     S
C1559  C1378   1.538   1_655 S
C1560  H1606   1.110   .     S
C1560  H1424   1.110   1_655 S
C1560  H1425   1.111   1_655 S
C1561  O1615   1.310   .     A
C1561  O1618   1.304   .     A
C1562  H1585   1.085   .     S
C1562  C1563   1.543   .     S
C1562  H1586   1.104   .     S
C1563  C1564   1.519   .     S
C1563  H1583   1.112   .     S
C1563  H1584   1.103   .     S
C1564  H1040   1.106   1_565 S
C1564  H1041   1.107   1_565 S
C1564  H1042   1.109   1_565 S
C1565  H1594   1.105   .     S
C1565  H1593   1.101   .     S
C1565  C1386   1.538   1_655 S
C1566  C1567   1.527   .     S
C1566  H1592   1.112   .     S
C1566  H1591   1.110   .     S
C1567  H1590   1.110   .     S
C1568  C1569   1.543   .     S
C1568  H1602   1.104   .     S
C1568  H1601   1.085   .     S
C1569  H1598   1.112   .     S
C1569  C1570   1.519   .     S
C1569  H1600   1.103   .     S
C1570  H1055   1.106   1_565 S
C1570  H1056   1.107   1_565 S
C1570  H1057   1.109   1_565 S
C1571  O1616   1.304   .     A
C1571  O1617   1.310   .     A
C1572  N1610   1.372   .     A
C1573  N1609   1.377   .     A
C1573  C1034   1.422   1_565 S
C1574  N1610   1.372   .     A
C1575  N1609   1.377   .     A
C1575  C1032   1.422   1_565 S
H1587  C1387   1.110   1_655 S
H1589  C1387   1.111   1_655 S
N1609  Zn1619  2.038   .     S
N1610  Zn1620  2.038   .     S
O1611  Zn1619  2.045   .     S
O1612  Zn1620  2.045   .     S
O1613  Zn1619  2.044   .     S
O1614  Zn1620  2.044   .     S
O1615  Zn1619  1.999   .     S
O1616  Zn1620  1.999   .     S
O1617  Zn1619  1.999   .     S
O1618  Zn1620  1.999   .     S
