data_str_m3_o1_o10_pcu_sym.132
_audit_creation_date              2020-01-03
_audit_creation_method            'Materials Studio'
_symmetry_space_group_name_H-M    'P1'
_symmetry_Int_Tables_number       1
_symmetry_cell_setting            triclinic
loop_
_symmetry_equiv_pos_as_xyz
  x,y,z
_cell_length_a                    25.7362
_cell_length_b                    31.8321
_cell_length_c                    29.7836
_cell_angle_alpha                 90.0496
_cell_angle_beta                  98.4259
_cell_angle_gamma                 91.0861
loop_
_atom_site_label
_atom_site_type_symbol
_atom_site_fract_x
_atom_site_fract_y
_atom_site_fract_z
_atom_site_U_iso_or_equiv
_atom_site_adp_type
_atom_site_occupancy
O1     O     0.16666   0.10558   0.20487   0.00000  Uiso   1.00
O2     O     0.16667   0.22775   0.12846   0.00000  Uiso   1.00
O3     O     0.16666   0.10559   0.12843   0.00000  Uiso   1.00
O4     O     0.16667   0.22774   0.20490   0.00000  Uiso   1.00
C5     C     0.16720   0.08684   0.16668   0.00000  Uiso   1.00
C6     C     0.16614   0.24649   0.16666   0.00000  Uiso   1.00
O7     O     0.09058   0.16666   0.19595   0.00000  Uiso   1.00
O8     O     0.24275   0.16667   0.13739   0.00000  Uiso   1.00
O9     O     0.09058   0.16667   0.11950   0.00000  Uiso   1.00
O10    O     0.24275   0.16666   0.21383   0.00000  Uiso   1.00
C11    C     0.06716   0.16630   0.15481   0.00000  Uiso   1.00
C12    C     0.26618   0.16703   0.17853   0.00000  Uiso   1.00
Zn13   Zn    0.16667   0.16666   0.21771   0.00000  Uiso   1.00
Zn14   Zn    0.16667   0.16667   0.11563   0.00000  Uiso   1.00
N15    N     0.16665   0.16666   0.28573   0.00000  Uiso   1.00
N16    N     0.16668   0.16668   0.04760   0.00000  Uiso   1.00
C17    C     0.01210   0.16465   0.14856   0.00000  Uiso   1.00
C18    C     0.32124   0.16868   0.18477   0.00000  Uiso   1.00
H19    H     0.32498   0.15944   0.11436   0.00000  Uiso   1.00
H20    H     0.00835   0.17389   0.21898   0.00000  Uiso   1.00
C21    C     0.20770   0.02162   0.14948   0.00000  Uiso   1.00
C22    C     0.12563   0.31172   0.18385   0.00000  Uiso   1.00
C23    C     0.20657   0.31177   0.14970   0.00000  Uiso   1.00
C24    C     0.12676   0.02156   0.18363   0.00000  Uiso   1.00
H25    H     0.23776   0.29469   0.13742   0.00000  Uiso   1.00
H26    H     0.09557   0.03865   0.19591   0.00000  Uiso   1.00
C27    C     0.16579   0.29062   0.16673   0.00000  Uiso   1.00
C28    C     0.16755   0.04271   0.16660   0.00000  Uiso   1.00
C29    C     0.19585   0.19576   0.02762   0.00000  Uiso   1.00
C30    C     0.13747   0.13758   0.30571   0.00000  Uiso   1.00
C31    C     0.19636   0.19536   0.31322   0.00000  Uiso   1.00
C32    C     0.13698   0.13797   0.02012   0.00000  Uiso   1.00
Cl33   Cl    0.26062   0.04809   0.12950   0.00000  Uiso   1.00
Cl34   Cl    0.07271   0.28524   0.20383   0.00000  Uiso   1.00
N35    N     0.22451   0.22797   0.05459   0.00000  Uiso   1.00
O36    O     0.20749   0.26623   0.05118   0.00000  Uiso   1.00
O37    O     0.27307   0.22175   0.07200   0.00000  Uiso   1.00
N38    N     0.10878   0.10539   0.27874   0.00000  Uiso   1.00
O39    O     0.12583   0.06714   0.28206   0.00000  Uiso   1.00
O40    O     0.06018   0.11159   0.26145   0.00000  Uiso   1.00
Cl41   Cl    0.23752   0.23138   0.28983   0.00000  Uiso   1.00
Cl42   Cl    0.09581   0.10195   0.04350   0.00000  Uiso   1.00
O43    O     0.50000   0.10558   0.20487   0.00000  Uiso   1.00
O44    O     0.50000   0.22775   0.12846   0.00000  Uiso   1.00
O45    O     0.50000   0.10559   0.12843   0.00000  Uiso   1.00
O46    O     0.50000   0.22774   0.20490   0.00000  Uiso   1.00
C47    C     0.50053   0.08684   0.16668   0.00000  Uiso   1.00
C48    C     0.49947   0.24649   0.16666   0.00000  Uiso   1.00
O49    O     0.42392   0.16666   0.19595   0.00000  Uiso   1.00
O50    O     0.57608   0.16667   0.13739   0.00000  Uiso   1.00
O51    O     0.42392   0.16667   0.11950   0.00000  Uiso   1.00
O52    O     0.57608   0.16666   0.21383   0.00000  Uiso   1.00
C53    C     0.40049   0.16630   0.15481   0.00000  Uiso   1.00
C54    C     0.59951   0.16703   0.17853   0.00000  Uiso   1.00
Zn55   Zn    0.50000   0.16666   0.21771   0.00000  Uiso   1.00
Zn56   Zn    0.50000   0.16667   0.11563   0.00000  Uiso   1.00
N57    N     0.49999   0.16666   0.28573   0.00000  Uiso   1.00
N58    N     0.50001   0.16668   0.04760   0.00000  Uiso   1.00
C59    C     0.34543   0.16465   0.14856   0.00000  Uiso   1.00
C60    C     0.65457   0.16868   0.18477   0.00000  Uiso   1.00
H61    H     0.65832   0.15944   0.11436   0.00000  Uiso   1.00
H62    H     0.34169   0.17389   0.21898   0.00000  Uiso   1.00
C63    C     0.54104   0.02162   0.14948   0.00000  Uiso   1.00
C64    C     0.45896   0.31172   0.18385   0.00000  Uiso   1.00
C65    C     0.53990   0.31177   0.14970   0.00000  Uiso   1.00
C66    C     0.46009   0.02156   0.18363   0.00000  Uiso   1.00
H67    H     0.57109   0.29469   0.13742   0.00000  Uiso   1.00
H68    H     0.42890   0.03865   0.19591   0.00000  Uiso   1.00
C69    C     0.49912   0.29062   0.16673   0.00000  Uiso   1.00
C70    C     0.50088   0.04271   0.16660   0.00000  Uiso   1.00
C71    C     0.52919   0.19576   0.02762   0.00000  Uiso   1.00
C72    C     0.47081   0.13758   0.30571   0.00000  Uiso   1.00
C73    C     0.52969   0.19536   0.31322   0.00000  Uiso   1.00
C74    C     0.47031   0.13797   0.02012   0.00000  Uiso   1.00
Cl75   Cl    0.59396   0.04809   0.12950   0.00000  Uiso   1.00
Cl76   Cl    0.40604   0.28524   0.20383   0.00000  Uiso   1.00
N77    N     0.55784   0.22797   0.05459   0.00000  Uiso   1.00
O78    O     0.54083   0.26623   0.05118   0.00000  Uiso   1.00
O79    O     0.60640   0.22175   0.07200   0.00000  Uiso   1.00
N80    N     0.44212   0.10539   0.27874   0.00000  Uiso   1.00
O81    O     0.45916   0.06714   0.28206   0.00000  Uiso   1.00
O82    O     0.39352   0.11159   0.26145   0.00000  Uiso   1.00
Cl83   Cl    0.57085   0.23138   0.28983   0.00000  Uiso   1.00
Cl84   Cl    0.42915   0.10195   0.04350   0.00000  Uiso   1.00
O85    O     0.83333   0.10558   0.20487   0.00000  Uiso   1.00
O86    O     0.83334   0.22775   0.12846   0.00000  Uiso   1.00
O87    O     0.83333   0.10559   0.12843   0.00000  Uiso   1.00
O88    O     0.83334   0.22774   0.20490   0.00000  Uiso   1.00
C89    C     0.83386   0.08684   0.16668   0.00000  Uiso   1.00
C90    C     0.83280   0.24649   0.16666   0.00000  Uiso   1.00
O91    O     0.75725   0.16666   0.19595   0.00000  Uiso   1.00
O92    O     0.90942   0.16667   0.13739   0.00000  Uiso   1.00
O93    O     0.75725   0.16667   0.11950   0.00000  Uiso   1.00
O94    O     0.90942   0.16666   0.21383   0.00000  Uiso   1.00
C95    C     0.73382   0.16630   0.15481   0.00000  Uiso   1.00
C96    C     0.93284   0.16703   0.17853   0.00000  Uiso   1.00
Zn97   Zn    0.83333   0.16666   0.21771   0.00000  Uiso   1.00
Zn98   Zn    0.83333   0.16667   0.11563   0.00000  Uiso   1.00
N99    N     0.83332   0.16666   0.28573   0.00000  Uiso   1.00
N100   N     0.83335   0.16668   0.04760   0.00000  Uiso   1.00
C101   C     0.67876   0.16465   0.14856   0.00000  Uiso   1.00
C102   C     0.98790   0.16868   0.18477   0.00000  Uiso   1.00
H103   H     0.99165   0.15944   0.11436   0.00000  Uiso   1.00
H104   H     0.67502   0.17389   0.21898   0.00000  Uiso   1.00
C105   C     0.87437   0.02162   0.14948   0.00000  Uiso   1.00
C106   C     0.79229   0.31172   0.18385   0.00000  Uiso   1.00
C107   C     0.87324   0.31177   0.14970   0.00000  Uiso   1.00
C108   C     0.79343   0.02156   0.18363   0.00000  Uiso   1.00
H109   H     0.90442   0.29469   0.13742   0.00000  Uiso   1.00
H110   H     0.76223   0.03865   0.19591   0.00000  Uiso   1.00
C111   C     0.83245   0.29062   0.16673   0.00000  Uiso   1.00
C112   C     0.83421   0.04271   0.16660   0.00000  Uiso   1.00
C113   C     0.86252   0.19576   0.02762   0.00000  Uiso   1.00
C114   C     0.80414   0.13758   0.30571   0.00000  Uiso   1.00
C115   C     0.86302   0.19536   0.31322   0.00000  Uiso   1.00
C116   C     0.80364   0.13797   0.02012   0.00000  Uiso   1.00
Cl117  Cl    0.92729   0.04809   0.12950   0.00000  Uiso   1.00
Cl118  Cl    0.73937   0.28524   0.20383   0.00000  Uiso   1.00
N119   N     0.89118   0.22797   0.05459   0.00000  Uiso   1.00
O120   O     0.87416   0.26623   0.05118   0.00000  Uiso   1.00
O121   O     0.93974   0.22175   0.07200   0.00000  Uiso   1.00
N122   N     0.77545   0.10539   0.27874   0.00000  Uiso   1.00
O123   O     0.79249   0.06714   0.28206   0.00000  Uiso   1.00
O124   O     0.72685   0.11159   0.26145   0.00000  Uiso   1.00
Cl125  Cl    0.90419   0.23138   0.28983   0.00000  Uiso   1.00
Cl126  Cl    0.76248   0.10195   0.04350   0.00000  Uiso   1.00
O127   O     0.16666   0.43892   0.20487   0.00000  Uiso   1.00
O128   O     0.16667   0.56108   0.12846   0.00000  Uiso   1.00
O129   O     0.16666   0.43893   0.12843   0.00000  Uiso   1.00
O130   O     0.16667   0.56107   0.20490   0.00000  Uiso   1.00
C131   C     0.16720   0.42018   0.16668   0.00000  Uiso   1.00
C132   C     0.16614   0.57982   0.16666   0.00000  Uiso   1.00
O133   O     0.09058   0.50000   0.19595   0.00000  Uiso   1.00
O134   O     0.24275   0.50000   0.13739   0.00000  Uiso   1.00
O135   O     0.09058   0.50000   0.11950   0.00000  Uiso   1.00
O136   O     0.24275   0.50000   0.21383   0.00000  Uiso   1.00
C137   C     0.06716   0.49963   0.15481   0.00000  Uiso   1.00
C138   C     0.26618   0.50037   0.17853   0.00000  Uiso   1.00
Zn139  Zn    0.16667   0.49999   0.21771   0.00000  Uiso   1.00
Zn140  Zn    0.16667   0.50001   0.11563   0.00000  Uiso   1.00
N141   N     0.16665   0.49999   0.28573   0.00000  Uiso   1.00
N142   N     0.16668   0.50001   0.04760   0.00000  Uiso   1.00
C143   C     0.01210   0.49799   0.14856   0.00000  Uiso   1.00
C144   C     0.32124   0.50201   0.18477   0.00000  Uiso   1.00
H145   H     0.32498   0.49277   0.11436   0.00000  Uiso   1.00
H146   H     0.00835   0.50722   0.21898   0.00000  Uiso   1.00
C147   C     0.20770   0.35495   0.14948   0.00000  Uiso   1.00
C148   C     0.12563   0.64505   0.18385   0.00000  Uiso   1.00
C149   C     0.20657   0.64511   0.14970   0.00000  Uiso   1.00
C150   C     0.12676   0.35489   0.18363   0.00000  Uiso   1.00
H151   H     0.23776   0.62802   0.13742   0.00000  Uiso   1.00
H152   H     0.09557   0.37198   0.19591   0.00000  Uiso   1.00
C153   C     0.16579   0.62395   0.16673   0.00000  Uiso   1.00
C154   C     0.16755   0.37605   0.16660   0.00000  Uiso   1.00
C155   C     0.19585   0.52910   0.02762   0.00000  Uiso   1.00
C156   C     0.13747   0.47091   0.30571   0.00000  Uiso   1.00
C157   C     0.19636   0.52870   0.31322   0.00000  Uiso   1.00
C158   C     0.13698   0.47130   0.02012   0.00000  Uiso   1.00
Cl159  Cl    0.26062   0.38142   0.12950   0.00000  Uiso   1.00
Cl160  Cl    0.07271   0.61858   0.20383   0.00000  Uiso   1.00
N161   N     0.22451   0.56131   0.05459   0.00000  Uiso   1.00
O162   O     0.20749   0.59956   0.05118   0.00000  Uiso   1.00
O163   O     0.27307   0.55509   0.07200   0.00000  Uiso   1.00
N164   N     0.10878   0.43872   0.27874   0.00000  Uiso   1.00
O165   O     0.12583   0.40047   0.28206   0.00000  Uiso   1.00
O166   O     0.06018   0.44493   0.26145   0.00000  Uiso   1.00
Cl167  Cl    0.23752   0.56471   0.28983   0.00000  Uiso   1.00
Cl168  Cl    0.09581   0.43529   0.04350   0.00000  Uiso   1.00
O169   O     0.50000   0.43892   0.20487   0.00000  Uiso   1.00
O170   O     0.50000   0.56108   0.12846   0.00000  Uiso   1.00
O171   O     0.50000   0.43893   0.12843   0.00000  Uiso   1.00
O172   O     0.50000   0.56107   0.20490   0.00000  Uiso   1.00
C173   C     0.50053   0.42018   0.16668   0.00000  Uiso   1.00
C174   C     0.49947   0.57982   0.16666   0.00000  Uiso   1.00
O175   O     0.42392   0.50000   0.19595   0.00000  Uiso   1.00
O176   O     0.57608   0.50000   0.13739   0.00000  Uiso   1.00
O177   O     0.42392   0.50000   0.11950   0.00000  Uiso   1.00
O178   O     0.57608   0.50000   0.21383   0.00000  Uiso   1.00
C179   C     0.40049   0.49963   0.15481   0.00000  Uiso   1.00
C180   C     0.59951   0.50037   0.17853   0.00000  Uiso   1.00
Zn181  Zn    0.50000   0.49999   0.21771   0.00000  Uiso   1.00
Zn182  Zn    0.50000   0.50001   0.11563   0.00000  Uiso   1.00
N183   N     0.49999   0.49999   0.28573   0.00000  Uiso   1.00
N184   N     0.50001   0.50001   0.04760   0.00000  Uiso   1.00
C185   C     0.34543   0.49799   0.14856   0.00000  Uiso   1.00
C186   C     0.65457   0.50201   0.18477   0.00000  Uiso   1.00
H187   H     0.65832   0.49277   0.11436   0.00000  Uiso   1.00
H188   H     0.34169   0.50722   0.21898   0.00000  Uiso   1.00
C189   C     0.54104   0.35495   0.14948   0.00000  Uiso   1.00
C190   C     0.45896   0.64505   0.18385   0.00000  Uiso   1.00
C191   C     0.53990   0.64511   0.14970   0.00000  Uiso   1.00
C192   C     0.46009   0.35489   0.18363   0.00000  Uiso   1.00
H193   H     0.57109   0.62802   0.13742   0.00000  Uiso   1.00
H194   H     0.42890   0.37198   0.19591   0.00000  Uiso   1.00
C195   C     0.49912   0.62395   0.16673   0.00000  Uiso   1.00
C196   C     0.50088   0.37605   0.16660   0.00000  Uiso   1.00
C197   C     0.52919   0.52910   0.02762   0.00000  Uiso   1.00
C198   C     0.47081   0.47091   0.30571   0.00000  Uiso   1.00
C199   C     0.52969   0.52870   0.31322   0.00000  Uiso   1.00
C200   C     0.47031   0.47130   0.02012   0.00000  Uiso   1.00
Cl201  Cl    0.59396   0.38142   0.12950   0.00000  Uiso   1.00
Cl202  Cl    0.40604   0.61858   0.20383   0.00000  Uiso   1.00
N203   N     0.55784   0.56131   0.05459   0.00000  Uiso   1.00
O204   O     0.54083   0.59956   0.05118   0.00000  Uiso   1.00
O205   O     0.60640   0.55509   0.07200   0.00000  Uiso   1.00
N206   N     0.44212   0.43872   0.27874   0.00000  Uiso   1.00
O207   O     0.45916   0.40047   0.28206   0.00000  Uiso   1.00
O208   O     0.39352   0.44493   0.26145   0.00000  Uiso   1.00
Cl209  Cl    0.57085   0.56471   0.28983   0.00000  Uiso   1.00
Cl210  Cl    0.42915   0.43529   0.04350   0.00000  Uiso   1.00
O211   O     0.83333   0.43892   0.20487   0.00000  Uiso   1.00
O212   O     0.83334   0.56108   0.12846   0.00000  Uiso   1.00
O213   O     0.83333   0.43893   0.12843   0.00000  Uiso   1.00
O214   O     0.83334   0.56107   0.20490   0.00000  Uiso   1.00
C215   C     0.83386   0.42018   0.16668   0.00000  Uiso   1.00
C216   C     0.83280   0.57982   0.16666   0.00000  Uiso   1.00
O217   O     0.75725   0.50000   0.19595   0.00000  Uiso   1.00
O218   O     0.90942   0.50000   0.13739   0.00000  Uiso   1.00
O219   O     0.75725   0.50000   0.11950   0.00000  Uiso   1.00
O220   O     0.90942   0.50000   0.21383   0.00000  Uiso   1.00
C221   C     0.73382   0.49963   0.15481   0.00000  Uiso   1.00
C222   C     0.93284   0.50037   0.17853   0.00000  Uiso   1.00
Zn223  Zn    0.83333   0.49999   0.21771   0.00000  Uiso   1.00
Zn224  Zn    0.83333   0.50001   0.11563   0.00000  Uiso   1.00
N225   N     0.83332   0.49999   0.28573   0.00000  Uiso   1.00
N226   N     0.83335   0.50001   0.04760   0.00000  Uiso   1.00
C227   C     0.67876   0.49799   0.14856   0.00000  Uiso   1.00
C228   C     0.98790   0.50201   0.18477   0.00000  Uiso   1.00
H229   H     0.99165   0.49277   0.11436   0.00000  Uiso   1.00
H230   H     0.67502   0.50722   0.21898   0.00000  Uiso   1.00
C231   C     0.87437   0.35495   0.14948   0.00000  Uiso   1.00
C232   C     0.79229   0.64505   0.18385   0.00000  Uiso   1.00
C233   C     0.87324   0.64511   0.14970   0.00000  Uiso   1.00
C234   C     0.79343   0.35489   0.18363   0.00000  Uiso   1.00
H235   H     0.90442   0.62802   0.13742   0.00000  Uiso   1.00
H236   H     0.76223   0.37198   0.19591   0.00000  Uiso   1.00
C237   C     0.83245   0.62395   0.16673   0.00000  Uiso   1.00
C238   C     0.83421   0.37605   0.16660   0.00000  Uiso   1.00
C239   C     0.86252   0.52910   0.02762   0.00000  Uiso   1.00
C240   C     0.80414   0.47091   0.30571   0.00000  Uiso   1.00
C241   C     0.86302   0.52870   0.31322   0.00000  Uiso   1.00
C242   C     0.80364   0.47130   0.02012   0.00000  Uiso   1.00
Cl243  Cl    0.92729   0.38142   0.12950   0.00000  Uiso   1.00
Cl244  Cl    0.73937   0.61858   0.20383   0.00000  Uiso   1.00
N245   N     0.89118   0.56131   0.05459   0.00000  Uiso   1.00
O246   O     0.87416   0.59956   0.05118   0.00000  Uiso   1.00
O247   O     0.93974   0.55509   0.07200   0.00000  Uiso   1.00
N248   N     0.77545   0.43872   0.27874   0.00000  Uiso   1.00
O249   O     0.79249   0.40047   0.28206   0.00000  Uiso   1.00
O250   O     0.72685   0.44493   0.26145   0.00000  Uiso   1.00
Cl251  Cl    0.90419   0.56471   0.28983   0.00000  Uiso   1.00
Cl252  Cl    0.76248   0.43529   0.04350   0.00000  Uiso   1.00
O253   O     0.16666   0.77225   0.20487   0.00000  Uiso   1.00
O254   O     0.16667   0.89442   0.12846   0.00000  Uiso   1.00
O255   O     0.16666   0.77226   0.12843   0.00000  Uiso   1.00
O256   O     0.16667   0.89441   0.20490   0.00000  Uiso   1.00
C257   C     0.16720   0.75351   0.16668   0.00000  Uiso   1.00
C258   C     0.16614   0.91316   0.16666   0.00000  Uiso   1.00
O259   O     0.09058   0.83333   0.19595   0.00000  Uiso   1.00
O260   O     0.24275   0.83334   0.13739   0.00000  Uiso   1.00
O261   O     0.09058   0.83334   0.11950   0.00000  Uiso   1.00
O262   O     0.24275   0.83333   0.21383   0.00000  Uiso   1.00
C263   C     0.06716   0.83297   0.15481   0.00000  Uiso   1.00
C264   C     0.26618   0.83370   0.17853   0.00000  Uiso   1.00
Zn265  Zn    0.16667   0.83333   0.21771   0.00000  Uiso   1.00
Zn266  Zn    0.16667   0.83334   0.11563   0.00000  Uiso   1.00
N267   N     0.16665   0.83332   0.28573   0.00000  Uiso   1.00
N268   N     0.16668   0.83334   0.04760   0.00000  Uiso   1.00
C269   C     0.01210   0.83132   0.14856   0.00000  Uiso   1.00
C270   C     0.32124   0.83534   0.18477   0.00000  Uiso   1.00
H271   H     0.32498   0.82610   0.11436   0.00000  Uiso   1.00
H272   H     0.00835   0.84056   0.21898   0.00000  Uiso   1.00
C273   C     0.20770   0.68828   0.14948   0.00000  Uiso   1.00
C274   C     0.12563   0.97838   0.18385   0.00000  Uiso   1.00
C275   C     0.20657   0.97844   0.14970   0.00000  Uiso   1.00
C276   C     0.12676   0.68823   0.18363   0.00000  Uiso   1.00
H277   H     0.23776   0.96135   0.13742   0.00000  Uiso   1.00
H278   H     0.09557   0.70531   0.19591   0.00000  Uiso   1.00
C279   C     0.16579   0.95729   0.16673   0.00000  Uiso   1.00
C280   C     0.16755   0.70938   0.16660   0.00000  Uiso   1.00
C281   C     0.19585   0.86243   0.02762   0.00000  Uiso   1.00
C282   C     0.13747   0.80424   0.30571   0.00000  Uiso   1.00
C283   C     0.19636   0.86203   0.31322   0.00000  Uiso   1.00
C284   C     0.13698   0.80464   0.02012   0.00000  Uiso   1.00
Cl285  Cl    0.26062   0.71476   0.12950   0.00000  Uiso   1.00
Cl286  Cl    0.07271   0.95191   0.20383   0.00000  Uiso   1.00
N287   N     0.22451   0.89464   0.05459   0.00000  Uiso   1.00
O288   O     0.20749   0.93290   0.05118   0.00000  Uiso   1.00
O289   O     0.27307   0.88842   0.07200   0.00000  Uiso   1.00
N290   N     0.10878   0.77205   0.27874   0.00000  Uiso   1.00
O291   O     0.12583   0.73381   0.28206   0.00000  Uiso   1.00
O292   O     0.06018   0.77826   0.26145   0.00000  Uiso   1.00
Cl293  Cl    0.23752   0.89805   0.28983   0.00000  Uiso   1.00
Cl294  Cl    0.09581   0.76862   0.04350   0.00000  Uiso   1.00
O295   O     0.50000   0.77225   0.20487   0.00000  Uiso   1.00
O296   O     0.50000   0.89442   0.12846   0.00000  Uiso   1.00
O297   O     0.50000   0.77226   0.12843   0.00000  Uiso   1.00
O298   O     0.50000   0.89441   0.20490   0.00000  Uiso   1.00
C299   C     0.50053   0.75351   0.16668   0.00000  Uiso   1.00
C300   C     0.49947   0.91316   0.16666   0.00000  Uiso   1.00
O301   O     0.42392   0.83333   0.19595   0.00000  Uiso   1.00
O302   O     0.57608   0.83334   0.13739   0.00000  Uiso   1.00
O303   O     0.42392   0.83334   0.11950   0.00000  Uiso   1.00
O304   O     0.57608   0.83333   0.21383   0.00000  Uiso   1.00
C305   C     0.40049   0.83297   0.15481   0.00000  Uiso   1.00
C306   C     0.59951   0.83370   0.17853   0.00000  Uiso   1.00
Zn307  Zn    0.50000   0.83333   0.21771   0.00000  Uiso   1.00
Zn308  Zn    0.50000   0.83334   0.11563   0.00000  Uiso   1.00
N309   N     0.49999   0.83332   0.28573   0.00000  Uiso   1.00
N310   N     0.50001   0.83334   0.04760   0.00000  Uiso   1.00
C311   C     0.34543   0.83132   0.14856   0.00000  Uiso   1.00
C312   C     0.65457   0.83534   0.18477   0.00000  Uiso   1.00
H313   H     0.65832   0.82610   0.11436   0.00000  Uiso   1.00
H314   H     0.34169   0.84056   0.21898   0.00000  Uiso   1.00
C315   C     0.54104   0.68828   0.14948   0.00000  Uiso   1.00
C316   C     0.45896   0.97838   0.18385   0.00000  Uiso   1.00
C317   C     0.53990   0.97844   0.14970   0.00000  Uiso   1.00
C318   C     0.46009   0.68823   0.18363   0.00000  Uiso   1.00
H319   H     0.57109   0.96135   0.13742   0.00000  Uiso   1.00
H320   H     0.42890   0.70531   0.19591   0.00000  Uiso   1.00
C321   C     0.49912   0.95729   0.16673   0.00000  Uiso   1.00
C322   C     0.50088   0.70938   0.16660   0.00000  Uiso   1.00
C323   C     0.52919   0.86243   0.02762   0.00000  Uiso   1.00
C324   C     0.47081   0.80424   0.30571   0.00000  Uiso   1.00
C325   C     0.52969   0.86203   0.31322   0.00000  Uiso   1.00
C326   C     0.47031   0.80464   0.02012   0.00000  Uiso   1.00
Cl327  Cl    0.59396   0.71476   0.12950   0.00000  Uiso   1.00
Cl328  Cl    0.40604   0.95191   0.20383   0.00000  Uiso   1.00
N329   N     0.55784   0.89464   0.05459   0.00000  Uiso   1.00
O330   O     0.54083   0.93290   0.05118   0.00000  Uiso   1.00
O331   O     0.60640   0.88842   0.07200   0.00000  Uiso   1.00
N332   N     0.44212   0.77205   0.27874   0.00000  Uiso   1.00
O333   O     0.45916   0.73381   0.28206   0.00000  Uiso   1.00
O334   O     0.39352   0.77826   0.26145   0.00000  Uiso   1.00
Cl335  Cl    0.57085   0.89805   0.28983   0.00000  Uiso   1.00
Cl336  Cl    0.42915   0.76862   0.04350   0.00000  Uiso   1.00
O337   O     0.83333   0.77225   0.20487   0.00000  Uiso   1.00
O338   O     0.83334   0.89442   0.12846   0.00000  Uiso   1.00
O339   O     0.83333   0.77226   0.12843   0.00000  Uiso   1.00
O340   O     0.83334   0.89441   0.20490   0.00000  Uiso   1.00
C341   C     0.83386   0.75351   0.16668   0.00000  Uiso   1.00
C342   C     0.83280   0.91316   0.16666   0.00000  Uiso   1.00
O343   O     0.75725   0.83333   0.19595   0.00000  Uiso   1.00
O344   O     0.90942   0.83334   0.13739   0.00000  Uiso   1.00
O345   O     0.75725   0.83334   0.11950   0.00000  Uiso   1.00
O346   O     0.90942   0.83333   0.21383   0.00000  Uiso   1.00
C347   C     0.73382   0.83297   0.15481   0.00000  Uiso   1.00
C348   C     0.93284   0.83370   0.17853   0.00000  Uiso   1.00
Zn349  Zn    0.83333   0.83333   0.21771   0.00000  Uiso   1.00
Zn350  Zn    0.83333   0.83334   0.11563   0.00000  Uiso   1.00
N351   N     0.83332   0.83332   0.28573   0.00000  Uiso   1.00
N352   N     0.83335   0.83334   0.04760   0.00000  Uiso   1.00
C353   C     0.67876   0.83132   0.14856   0.00000  Uiso   1.00
C354   C     0.98790   0.83534   0.18477   0.00000  Uiso   1.00
H355   H     0.99165   0.82610   0.11436   0.00000  Uiso   1.00
H356   H     0.67502   0.84056   0.21898   0.00000  Uiso   1.00
C357   C     0.87437   0.68828   0.14948   0.00000  Uiso   1.00
C358   C     0.79229   0.97838   0.18385   0.00000  Uiso   1.00
C359   C     0.87324   0.97844   0.14970   0.00000  Uiso   1.00
C360   C     0.79343   0.68823   0.18363   0.00000  Uiso   1.00
H361   H     0.90442   0.96135   0.13742   0.00000  Uiso   1.00
H362   H     0.76223   0.70531   0.19591   0.00000  Uiso   1.00
C363   C     0.83245   0.95729   0.16673   0.00000  Uiso   1.00
C364   C     0.83421   0.70938   0.16660   0.00000  Uiso   1.00
C365   C     0.86252   0.86243   0.02762   0.00000  Uiso   1.00
C366   C     0.80414   0.80424   0.30571   0.00000  Uiso   1.00
C367   C     0.86302   0.86203   0.31322   0.00000  Uiso   1.00
C368   C     0.80364   0.80464   0.02012   0.00000  Uiso   1.00
Cl369  Cl    0.92729   0.71476   0.12950   0.00000  Uiso   1.00
Cl370  Cl    0.73937   0.95191   0.20383   0.00000  Uiso   1.00
N371   N     0.89118   0.89464   0.05459   0.00000  Uiso   1.00
O372   O     0.87416   0.93290   0.05118   0.00000  Uiso   1.00
O373   O     0.93974   0.88842   0.07200   0.00000  Uiso   1.00
N374   N     0.77545   0.77205   0.27874   0.00000  Uiso   1.00
O375   O     0.79249   0.73381   0.28206   0.00000  Uiso   1.00
O376   O     0.72685   0.77826   0.26145   0.00000  Uiso   1.00
Cl377  Cl    0.90419   0.89805   0.28983   0.00000  Uiso   1.00
Cl378  Cl    0.76248   0.76862   0.04350   0.00000  Uiso   1.00
O379   O     0.16666   0.10558   0.53821   0.00000  Uiso   1.00
O380   O     0.16667   0.22775   0.46179   0.00000  Uiso   1.00
O381   O     0.16666   0.10559   0.46176   0.00000  Uiso   1.00
O382   O     0.16667   0.22774   0.53824   0.00000  Uiso   1.00
C383   C     0.16720   0.08684   0.50001   0.00000  Uiso   1.00
C384   C     0.16614   0.24649   0.49999   0.00000  Uiso   1.00
O385   O     0.09058   0.16666   0.52928   0.00000  Uiso   1.00
O386   O     0.24275   0.16667   0.47072   0.00000  Uiso   1.00
O387   O     0.09058   0.16667   0.45284   0.00000  Uiso   1.00
O388   O     0.24275   0.16666   0.54716   0.00000  Uiso   1.00
C389   C     0.06716   0.16630   0.48814   0.00000  Uiso   1.00
C390   C     0.26618   0.16703   0.51186   0.00000  Uiso   1.00
Zn391  Zn    0.16667   0.16666   0.55104   0.00000  Uiso   1.00
Zn392  Zn    0.16667   0.16667   0.44896   0.00000  Uiso   1.00
N393   N     0.16665   0.16666   0.61907   0.00000  Uiso   1.00
N394   N     0.16668   0.16668   0.38093   0.00000  Uiso   1.00
C395   C     0.01210   0.16465   0.48190   0.00000  Uiso   1.00
C396   C     0.32124   0.16868   0.51810   0.00000  Uiso   1.00
H397   H     0.32498   0.15944   0.44769   0.00000  Uiso   1.00
H398   H     0.00835   0.17389   0.55231   0.00000  Uiso   1.00
C399   C     0.20770   0.02162   0.48281   0.00000  Uiso   1.00
C400   C     0.12563   0.31172   0.51718   0.00000  Uiso   1.00
C401   C     0.20657   0.31177   0.48303   0.00000  Uiso   1.00
C402   C     0.12676   0.02156   0.51696   0.00000  Uiso   1.00
H403   H     0.23776   0.29469   0.47075   0.00000  Uiso   1.00
H404   H     0.09557   0.03865   0.52924   0.00000  Uiso   1.00
C405   C     0.16579   0.29062   0.50007   0.00000  Uiso   1.00
C406   C     0.16755   0.04271   0.49993   0.00000  Uiso   1.00
C407   C     0.19585   0.19576   0.36095   0.00000  Uiso   1.00
C408   C     0.13747   0.13758   0.63904   0.00000  Uiso   1.00
C409   C     0.19636   0.19536   0.64655   0.00000  Uiso   1.00
C410   C     0.13698   0.13797   0.35345   0.00000  Uiso   1.00
Cl411  Cl    0.26062   0.04809   0.46283   0.00000  Uiso   1.00
Cl412  Cl    0.07271   0.28524   0.53716   0.00000  Uiso   1.00
N413   N     0.22451   0.22797   0.38792   0.00000  Uiso   1.00
O414   O     0.20749   0.26623   0.38452   0.00000  Uiso   1.00
O415   O     0.27307   0.22175   0.40533   0.00000  Uiso   1.00
N416   N     0.10878   0.10539   0.61207   0.00000  Uiso   1.00
O417   O     0.12583   0.06714   0.61540   0.00000  Uiso   1.00
O418   O     0.06018   0.11159   0.59479   0.00000  Uiso   1.00
Cl419  Cl    0.23752   0.23138   0.62316   0.00000  Uiso   1.00
Cl420  Cl    0.09581   0.10195   0.37684   0.00000  Uiso   1.00
O421   O     0.50000   0.10558   0.53821   0.00000  Uiso   1.00
O422   O     0.50000   0.22775   0.46179   0.00000  Uiso   1.00
O423   O     0.50000   0.10559   0.46176   0.00000  Uiso   1.00
O424   O     0.50000   0.22774   0.53824   0.00000  Uiso   1.00
C425   C     0.50053   0.08684   0.50001   0.00000  Uiso   1.00
C426   C     0.49947   0.24649   0.49999   0.00000  Uiso   1.00
O427   O     0.42392   0.16666   0.52928   0.00000  Uiso   1.00
O428   O     0.57608   0.16667   0.47072   0.00000  Uiso   1.00
O429   O     0.42392   0.16667   0.45284   0.00000  Uiso   1.00
O430   O     0.57608   0.16666   0.54716   0.00000  Uiso   1.00
C431   C     0.40049   0.16630   0.48814   0.00000  Uiso   1.00
C432   C     0.59951   0.16703   0.51186   0.00000  Uiso   1.00
Zn433  Zn    0.50000   0.16666   0.55104   0.00000  Uiso   1.00
Zn434  Zn    0.50000   0.16667   0.44896   0.00000  Uiso   1.00
N435   N     0.49999   0.16666   0.61907   0.00000  Uiso   1.00
N436   N     0.50001   0.16668   0.38093   0.00000  Uiso   1.00
C437   C     0.34543   0.16465   0.48190   0.00000  Uiso   1.00
C438   C     0.65457   0.16868   0.51810   0.00000  Uiso   1.00
H439   H     0.65832   0.15944   0.44769   0.00000  Uiso   1.00
H440   H     0.34169   0.17389   0.55231   0.00000  Uiso   1.00
C441   C     0.54104   0.02162   0.48281   0.00000  Uiso   1.00
C442   C     0.45896   0.31172   0.51718   0.00000  Uiso   1.00
C443   C     0.53990   0.31177   0.48303   0.00000  Uiso   1.00
C444   C     0.46009   0.02156   0.51696   0.00000  Uiso   1.00
H445   H     0.57109   0.29469   0.47075   0.00000  Uiso   1.00
H446   H     0.42890   0.03865   0.52924   0.00000  Uiso   1.00
C447   C     0.49912   0.29062   0.50007   0.00000  Uiso   1.00
C448   C     0.50088   0.04271   0.49993   0.00000  Uiso   1.00
C449   C     0.52919   0.19576   0.36095   0.00000  Uiso   1.00
C450   C     0.47081   0.13758   0.63904   0.00000  Uiso   1.00
C451   C     0.52969   0.19536   0.64655   0.00000  Uiso   1.00
C452   C     0.47031   0.13797   0.35345   0.00000  Uiso   1.00
Cl453  Cl    0.59396   0.04809   0.46283   0.00000  Uiso   1.00
Cl454  Cl    0.40604   0.28524   0.53716   0.00000  Uiso   1.00
N455   N     0.55784   0.22797   0.38792   0.00000  Uiso   1.00
O456   O     0.54083   0.26623   0.38452   0.00000  Uiso   1.00
O457   O     0.60640   0.22175   0.40533   0.00000  Uiso   1.00
N458   N     0.44212   0.10539   0.61207   0.00000  Uiso   1.00
O459   O     0.45916   0.06714   0.61540   0.00000  Uiso   1.00
O460   O     0.39352   0.11159   0.59479   0.00000  Uiso   1.00
Cl461  Cl    0.57085   0.23138   0.62316   0.00000  Uiso   1.00
Cl462  Cl    0.42915   0.10195   0.37684   0.00000  Uiso   1.00
O463   O     0.83333   0.10558   0.53821   0.00000  Uiso   1.00
O464   O     0.83334   0.22775   0.46179   0.00000  Uiso   1.00
O465   O     0.83333   0.10559   0.46176   0.00000  Uiso   1.00
O466   O     0.83334   0.22774   0.53824   0.00000  Uiso   1.00
C467   C     0.83386   0.08684   0.50001   0.00000  Uiso   1.00
C468   C     0.83280   0.24649   0.49999   0.00000  Uiso   1.00
O469   O     0.75725   0.16666   0.52928   0.00000  Uiso   1.00
O470   O     0.90942   0.16667   0.47072   0.00000  Uiso   1.00
O471   O     0.75725   0.16667   0.45284   0.00000  Uiso   1.00
O472   O     0.90942   0.16666   0.54716   0.00000  Uiso   1.00
C473   C     0.73382   0.16630   0.48814   0.00000  Uiso   1.00
C474   C     0.93284   0.16703   0.51186   0.00000  Uiso   1.00
Zn475  Zn    0.83333   0.16666   0.55104   0.00000  Uiso   1.00
Zn476  Zn    0.83333   0.16667   0.44896   0.00000  Uiso   1.00
N477   N     0.83332   0.16666   0.61907   0.00000  Uiso   1.00
N478   N     0.83335   0.16668   0.38093   0.00000  Uiso   1.00
C479   C     0.67876   0.16465   0.48190   0.00000  Uiso   1.00
C480   C     0.98790   0.16868   0.51810   0.00000  Uiso   1.00
H481   H     0.99165   0.15944   0.44769   0.00000  Uiso   1.00
H482   H     0.67502   0.17389   0.55231   0.00000  Uiso   1.00
C483   C     0.87437   0.02162   0.48281   0.00000  Uiso   1.00
C484   C     0.79229   0.31172   0.51718   0.00000  Uiso   1.00
C485   C     0.87324   0.31177   0.48303   0.00000  Uiso   1.00
C486   C     0.79343   0.02156   0.51696   0.00000  Uiso   1.00
H487   H     0.90442   0.29469   0.47075   0.00000  Uiso   1.00
H488   H     0.76223   0.03865   0.52924   0.00000  Uiso   1.00
C489   C     0.83245   0.29062   0.50007   0.00000  Uiso   1.00
C490   C     0.83421   0.04271   0.49993   0.00000  Uiso   1.00
C491   C     0.86252   0.19576   0.36095   0.00000  Uiso   1.00
C492   C     0.80414   0.13758   0.63904   0.00000  Uiso   1.00
C493   C     0.86302   0.19536   0.64655   0.00000  Uiso   1.00
C494   C     0.80364   0.13797   0.35345   0.00000  Uiso   1.00
Cl495  Cl    0.92729   0.04809   0.46283   0.00000  Uiso   1.00
Cl496  Cl    0.73937   0.28524   0.53716   0.00000  Uiso   1.00
N497   N     0.89118   0.22797   0.38792   0.00000  Uiso   1.00
O498   O     0.87416   0.26623   0.38452   0.00000  Uiso   1.00
O499   O     0.93974   0.22175   0.40533   0.00000  Uiso   1.00
N500   N     0.77545   0.10539   0.61207   0.00000  Uiso   1.00
O501   O     0.79249   0.06714   0.61540   0.00000  Uiso   1.00
O502   O     0.72685   0.11159   0.59479   0.00000  Uiso   1.00
Cl503  Cl    0.90419   0.23138   0.62316   0.00000  Uiso   1.00
Cl504  Cl    0.76248   0.10195   0.37684   0.00000  Uiso   1.00
O505   O     0.16666   0.43892   0.53821   0.00000  Uiso   1.00
O506   O     0.16667   0.56108   0.46179   0.00000  Uiso   1.00
O507   O     0.16666   0.43893   0.46176   0.00000  Uiso   1.00
O508   O     0.16667   0.56107   0.53824   0.00000  Uiso   1.00
C509   C     0.16720   0.42018   0.50001   0.00000  Uiso   1.00
C510   C     0.16614   0.57982   0.49999   0.00000  Uiso   1.00
O511   O     0.09058   0.50000   0.52928   0.00000  Uiso   1.00
O512   O     0.24275   0.50000   0.47072   0.00000  Uiso   1.00
O513   O     0.09058   0.50000   0.45284   0.00000  Uiso   1.00
O514   O     0.24275   0.50000   0.54716   0.00000  Uiso   1.00
C515   C     0.06716   0.49963   0.48814   0.00000  Uiso   1.00
C516   C     0.26618   0.50037   0.51186   0.00000  Uiso   1.00
Zn517  Zn    0.16667   0.49999   0.55104   0.00000  Uiso   1.00
Zn518  Zn    0.16667   0.50001   0.44896   0.00000  Uiso   1.00
N519   N     0.16665   0.49999   0.61907   0.00000  Uiso   1.00
N520   N     0.16668   0.50001   0.38093   0.00000  Uiso   1.00
C521   C     0.01210   0.49799   0.48190   0.00000  Uiso   1.00
C522   C     0.32124   0.50201   0.51810   0.00000  Uiso   1.00
H523   H     0.32498   0.49277   0.44769   0.00000  Uiso   1.00
H524   H     0.00835   0.50722   0.55231   0.00000  Uiso   1.00
C525   C     0.20770   0.35495   0.48281   0.00000  Uiso   1.00
C526   C     0.12563   0.64505   0.51718   0.00000  Uiso   1.00
C527   C     0.20657   0.64511   0.48303   0.00000  Uiso   1.00
C528   C     0.12676   0.35489   0.51696   0.00000  Uiso   1.00
H529   H     0.23776   0.62802   0.47075   0.00000  Uiso   1.00
H530   H     0.09557   0.37198   0.52924   0.00000  Uiso   1.00
C531   C     0.16579   0.62395   0.50007   0.00000  Uiso   1.00
C532   C     0.16755   0.37605   0.49993   0.00000  Uiso   1.00
C533   C     0.19585   0.52910   0.36095   0.00000  Uiso   1.00
C534   C     0.13747   0.47091   0.63904   0.00000  Uiso   1.00
C535   C     0.19636   0.52870   0.64655   0.00000  Uiso   1.00
C536   C     0.13698   0.47130   0.35345   0.00000  Uiso   1.00
Cl537  Cl    0.26062   0.38142   0.46283   0.00000  Uiso   1.00
Cl538  Cl    0.07271   0.61858   0.53716   0.00000  Uiso   1.00
N539   N     0.22451   0.56131   0.38792   0.00000  Uiso   1.00
O540   O     0.20749   0.59956   0.38452   0.00000  Uiso   1.00
O541   O     0.27307   0.55509   0.40533   0.00000  Uiso   1.00
N542   N     0.10878   0.43872   0.61207   0.00000  Uiso   1.00
O543   O     0.12583   0.40047   0.61540   0.00000  Uiso   1.00
O544   O     0.06018   0.44493   0.59479   0.00000  Uiso   1.00
Cl545  Cl    0.23752   0.56471   0.62316   0.00000  Uiso   1.00
Cl546  Cl    0.09581   0.43529   0.37684   0.00000  Uiso   1.00
O547   O     0.50000   0.43892   0.53821   0.00000  Uiso   1.00
O548   O     0.50000   0.56108   0.46179   0.00000  Uiso   1.00
O549   O     0.50000   0.43893   0.46176   0.00000  Uiso   1.00
O550   O     0.50000   0.56107   0.53824   0.00000  Uiso   1.00
C551   C     0.50053   0.42018   0.50001   0.00000  Uiso   1.00
C552   C     0.49947   0.57982   0.49999   0.00000  Uiso   1.00
O553   O     0.42392   0.50000   0.52928   0.00000  Uiso   1.00
O554   O     0.57608   0.50000   0.47072   0.00000  Uiso   1.00
O555   O     0.42392   0.50000   0.45284   0.00000  Uiso   1.00
O556   O     0.57608   0.50000   0.54716   0.00000  Uiso   1.00
C557   C     0.40049   0.49963   0.48814   0.00000  Uiso   1.00
C558   C     0.59951   0.50037   0.51186   0.00000  Uiso   1.00
Zn559  Zn    0.50000   0.49999   0.55104   0.00000  Uiso   1.00
Zn560  Zn    0.50000   0.50001   0.44896   0.00000  Uiso   1.00
N561   N     0.49999   0.49999   0.61907   0.00000  Uiso   1.00
N562   N     0.50001   0.50001   0.38093   0.00000  Uiso   1.00
C563   C     0.34543   0.49799   0.48190   0.00000  Uiso   1.00
C564   C     0.65457   0.50201   0.51810   0.00000  Uiso   1.00
H565   H     0.65832   0.49277   0.44769   0.00000  Uiso   1.00
H566   H     0.34169   0.50722   0.55231   0.00000  Uiso   1.00
C567   C     0.54104   0.35495   0.48281   0.00000  Uiso   1.00
C568   C     0.45896   0.64505   0.51718   0.00000  Uiso   1.00
C569   C     0.53990   0.64511   0.48303   0.00000  Uiso   1.00
C570   C     0.46009   0.35489   0.51696   0.00000  Uiso   1.00
H571   H     0.57109   0.62802   0.47075   0.00000  Uiso   1.00
H572   H     0.42890   0.37198   0.52924   0.00000  Uiso   1.00
C573   C     0.49912   0.62395   0.50007   0.00000  Uiso   1.00
C574   C     0.50088   0.37605   0.49993   0.00000  Uiso   1.00
C575   C     0.52919   0.52910   0.36095   0.00000  Uiso   1.00
C576   C     0.47081   0.47091   0.63904   0.00000  Uiso   1.00
C577   C     0.52969   0.52870   0.64655   0.00000  Uiso   1.00
C578   C     0.47031   0.47130   0.35345   0.00000  Uiso   1.00
Cl579  Cl    0.59396   0.38142   0.46283   0.00000  Uiso   1.00
Cl580  Cl    0.40604   0.61858   0.53716   0.00000  Uiso   1.00
N581   N     0.55784   0.56131   0.38792   0.00000  Uiso   1.00
O582   O     0.54083   0.59956   0.38452   0.00000  Uiso   1.00
O583   O     0.60640   0.55509   0.40533   0.00000  Uiso   1.00
N584   N     0.44212   0.43872   0.61207   0.00000  Uiso   1.00
O585   O     0.45916   0.40047   0.61540   0.00000  Uiso   1.00
O586   O     0.39352   0.44493   0.59479   0.00000  Uiso   1.00
Cl587  Cl    0.57085   0.56471   0.62316   0.00000  Uiso   1.00
Cl588  Cl    0.42915   0.43529   0.37684   0.00000  Uiso   1.00
O589   O     0.83333   0.43892   0.53821   0.00000  Uiso   1.00
O590   O     0.83334   0.56108   0.46179   0.00000  Uiso   1.00
O591   O     0.83333   0.43893   0.46176   0.00000  Uiso   1.00
O592   O     0.83334   0.56107   0.53824   0.00000  Uiso   1.00
C593   C     0.83386   0.42018   0.50001   0.00000  Uiso   1.00
C594   C     0.83280   0.57982   0.49999   0.00000  Uiso   1.00
O595   O     0.75725   0.50000   0.52928   0.00000  Uiso   1.00
O596   O     0.90942   0.50000   0.47072   0.00000  Uiso   1.00
O597   O     0.75725   0.50000   0.45284   0.00000  Uiso   1.00
O598   O     0.90942   0.50000   0.54716   0.00000  Uiso   1.00
C599   C     0.73382   0.49963   0.48814   0.00000  Uiso   1.00
C600   C     0.93284   0.50037   0.51186   0.00000  Uiso   1.00
Zn601  Zn    0.83333   0.49999   0.55104   0.00000  Uiso   1.00
Zn602  Zn    0.83333   0.50001   0.44896   0.00000  Uiso   1.00
N603   N     0.83332   0.49999   0.61907   0.00000  Uiso   1.00
N604   N     0.83335   0.50001   0.38093   0.00000  Uiso   1.00
C605   C     0.67876   0.49799   0.48190   0.00000  Uiso   1.00
C606   C     0.98790   0.50201   0.51810   0.00000  Uiso   1.00
H607   H     0.99165   0.49277   0.44769   0.00000  Uiso   1.00
H608   H     0.67502   0.50722   0.55231   0.00000  Uiso   1.00
C609   C     0.87437   0.35495   0.48281   0.00000  Uiso   1.00
C610   C     0.79229   0.64505   0.51718   0.00000  Uiso   1.00
C611   C     0.87324   0.64511   0.48303   0.00000  Uiso   1.00
C612   C     0.79343   0.35489   0.51696   0.00000  Uiso   1.00
H613   H     0.90442   0.62802   0.47075   0.00000  Uiso   1.00
H614   H     0.76223   0.37198   0.52924   0.00000  Uiso   1.00
C615   C     0.83245   0.62395   0.50007   0.00000  Uiso   1.00
C616   C     0.83421   0.37605   0.49993   0.00000  Uiso   1.00
C617   C     0.86252   0.52910   0.36095   0.00000  Uiso   1.00
C618   C     0.80414   0.47091   0.63904   0.00000  Uiso   1.00
C619   C     0.86302   0.52870   0.64655   0.00000  Uiso   1.00
C620   C     0.80364   0.47130   0.35345   0.00000  Uiso   1.00
Cl621  Cl    0.92729   0.38142   0.46283   0.00000  Uiso   1.00
Cl622  Cl    0.73937   0.61858   0.53716   0.00000  Uiso   1.00
N623   N     0.89118   0.56131   0.38792   0.00000  Uiso   1.00
O624   O     0.87416   0.59956   0.38452   0.00000  Uiso   1.00
O625   O     0.93974   0.55509   0.40533   0.00000  Uiso   1.00
N626   N     0.77545   0.43872   0.61207   0.00000  Uiso   1.00
O627   O     0.79249   0.40047   0.61540   0.00000  Uiso   1.00
O628   O     0.72685   0.44493   0.59479   0.00000  Uiso   1.00
Cl629  Cl    0.90419   0.56471   0.62316   0.00000  Uiso   1.00
Cl630  Cl    0.76248   0.43529   0.37684   0.00000  Uiso   1.00
O631   O     0.16666   0.77225   0.53821   0.00000  Uiso   1.00
O632   O     0.16667   0.89442   0.46179   0.00000  Uiso   1.00
O633   O     0.16666   0.77226   0.46176   0.00000  Uiso   1.00
O634   O     0.16667   0.89441   0.53824   0.00000  Uiso   1.00
C635   C     0.16720   0.75351   0.50001   0.00000  Uiso   1.00
C636   C     0.16614   0.91316   0.49999   0.00000  Uiso   1.00
O637   O     0.09058   0.83333   0.52928   0.00000  Uiso   1.00
O638   O     0.24275   0.83334   0.47072   0.00000  Uiso   1.00
O639   O     0.09058   0.83334   0.45284   0.00000  Uiso   1.00
O640   O     0.24275   0.83333   0.54716   0.00000  Uiso   1.00
C641   C     0.06716   0.83297   0.48814   0.00000  Uiso   1.00
C642   C     0.26618   0.83370   0.51186   0.00000  Uiso   1.00
Zn643  Zn    0.16667   0.83333   0.55104   0.00000  Uiso   1.00
Zn644  Zn    0.16667   0.83334   0.44896   0.00000  Uiso   1.00
N645   N     0.16665   0.83332   0.61907   0.00000  Uiso   1.00
N646   N     0.16668   0.83334   0.38093   0.00000  Uiso   1.00
C647   C     0.01210   0.83132   0.48190   0.00000  Uiso   1.00
C648   C     0.32124   0.83534   0.51810   0.00000  Uiso   1.00
H649   H     0.32498   0.82610   0.44769   0.00000  Uiso   1.00
H650   H     0.00835   0.84056   0.55231   0.00000  Uiso   1.00
C651   C     0.20770   0.68828   0.48281   0.00000  Uiso   1.00
C652   C     0.12563   0.97838   0.51718   0.00000  Uiso   1.00
C653   C     0.20657   0.97844   0.48303   0.00000  Uiso   1.00
C654   C     0.12676   0.68823   0.51696   0.00000  Uiso   1.00
H655   H     0.23776   0.96135   0.47075   0.00000  Uiso   1.00
H656   H     0.09557   0.70531   0.52924   0.00000  Uiso   1.00
C657   C     0.16579   0.95729   0.50007   0.00000  Uiso   1.00
C658   C     0.16755   0.70938   0.49993   0.00000  Uiso   1.00
C659   C     0.19585   0.86243   0.36095   0.00000  Uiso   1.00
C660   C     0.13747   0.80424   0.63904   0.00000  Uiso   1.00
C661   C     0.19636   0.86203   0.64655   0.00000  Uiso   1.00
C662   C     0.13698   0.80464   0.35345   0.00000  Uiso   1.00
Cl663  Cl    0.26062   0.71476   0.46283   0.00000  Uiso   1.00
Cl664  Cl    0.07271   0.95191   0.53716   0.00000  Uiso   1.00
N665   N     0.22451   0.89464   0.38792   0.00000  Uiso   1.00
O666   O     0.20749   0.93290   0.38452   0.00000  Uiso   1.00
O667   O     0.27307   0.88842   0.40533   0.00000  Uiso   1.00
N668   N     0.10878   0.77205   0.61207   0.00000  Uiso   1.00
O669   O     0.12583   0.73381   0.61540   0.00000  Uiso   1.00
O670   O     0.06018   0.77826   0.59479   0.00000  Uiso   1.00
Cl671  Cl    0.23752   0.89805   0.62316   0.00000  Uiso   1.00
Cl672  Cl    0.09581   0.76862   0.37684   0.00000  Uiso   1.00
O673   O     0.50000   0.77225   0.53821   0.00000  Uiso   1.00
O674   O     0.50000   0.89442   0.46179   0.00000  Uiso   1.00
O675   O     0.50000   0.77226   0.46176   0.00000  Uiso   1.00
O676   O     0.50000   0.89441   0.53824   0.00000  Uiso   1.00
C677   C     0.50053   0.75351   0.50001   0.00000  Uiso   1.00
C678   C     0.49947   0.91316   0.49999   0.00000  Uiso   1.00
O679   O     0.42392   0.83333   0.52928   0.00000  Uiso   1.00
O680   O     0.57608   0.83334   0.47072   0.00000  Uiso   1.00
O681   O     0.42392   0.83334   0.45284   0.00000  Uiso   1.00
O682   O     0.57608   0.83333   0.54716   0.00000  Uiso   1.00
C683   C     0.40049   0.83297   0.48814   0.00000  Uiso   1.00
C684   C     0.59951   0.83370   0.51186   0.00000  Uiso   1.00
Zn685  Zn    0.50000   0.83333   0.55104   0.00000  Uiso   1.00
Zn686  Zn    0.50000   0.83334   0.44896   0.00000  Uiso   1.00
N687   N     0.49999   0.83332   0.61907   0.00000  Uiso   1.00
N688   N     0.50001   0.83334   0.38093   0.00000  Uiso   1.00
C689   C     0.34543   0.83132   0.48190   0.00000  Uiso   1.00
C690   C     0.65457   0.83534   0.51810   0.00000  Uiso   1.00
H691   H     0.65832   0.82610   0.44769   0.00000  Uiso   1.00
H692   H     0.34169   0.84056   0.55231   0.00000  Uiso   1.00
C693   C     0.54104   0.68828   0.48281   0.00000  Uiso   1.00
C694   C     0.45896   0.97838   0.51718   0.00000  Uiso   1.00
C695   C     0.53990   0.97844   0.48303   0.00000  Uiso   1.00
C696   C     0.46009   0.68823   0.51696   0.00000  Uiso   1.00
H697   H     0.57109   0.96135   0.47075   0.00000  Uiso   1.00
H698   H     0.42890   0.70531   0.52924   0.00000  Uiso   1.00
C699   C     0.49912   0.95729   0.50007   0.00000  Uiso   1.00
C700   C     0.50088   0.70938   0.49993   0.00000  Uiso   1.00
C701   C     0.52919   0.86243   0.36095   0.00000  Uiso   1.00
C702   C     0.47081   0.80424   0.63904   0.00000  Uiso   1.00
C703   C     0.52969   0.86203   0.64655   0.00000  Uiso   1.00
C704   C     0.47031   0.80464   0.35345   0.00000  Uiso   1.00
Cl705  Cl    0.59396   0.71476   0.46283   0.00000  Uiso   1.00
Cl706  Cl    0.40604   0.95191   0.53716   0.00000  Uiso   1.00
N707   N     0.55784   0.89464   0.38792   0.00000  Uiso   1.00
O708   O     0.54083   0.93290   0.38452   0.00000  Uiso   1.00
O709   O     0.60640   0.88842   0.40533   0.00000  Uiso   1.00
N710   N     0.44212   0.77205   0.61207   0.00000  Uiso   1.00
O711   O     0.45916   0.73381   0.61540   0.00000  Uiso   1.00
O712   O     0.39352   0.77826   0.59479   0.00000  Uiso   1.00
Cl713  Cl    0.57085   0.89805   0.62316   0.00000  Uiso   1.00
Cl714  Cl    0.42915   0.76862   0.37684   0.00000  Uiso   1.00
O715   O     0.83333   0.77225   0.53821   0.00000  Uiso   1.00
O716   O     0.83334   0.89442   0.46179   0.00000  Uiso   1.00
O717   O     0.83333   0.77226   0.46176   0.00000  Uiso   1.00
O718   O     0.83334   0.89441   0.53824   0.00000  Uiso   1.00
C719   C     0.83386   0.75351   0.50001   0.00000  Uiso   1.00
C720   C     0.83280   0.91316   0.49999   0.00000  Uiso   1.00
O721   O     0.75725   0.83333   0.52928   0.00000  Uiso   1.00
O722   O     0.90942   0.83334   0.47072   0.00000  Uiso   1.00
O723   O     0.75725   0.83334   0.45284   0.00000  Uiso   1.00
O724   O     0.90942   0.83333   0.54716   0.00000  Uiso   1.00
C725   C     0.73382   0.83297   0.48814   0.00000  Uiso   1.00
C726   C     0.93284   0.83370   0.51186   0.00000  Uiso   1.00
Zn727  Zn    0.83333   0.83333   0.55104   0.00000  Uiso   1.00
Zn728  Zn    0.83333   0.83334   0.44896   0.00000  Uiso   1.00
N729   N     0.83332   0.83332   0.61907   0.00000  Uiso   1.00
N730   N     0.83335   0.83334   0.38093   0.00000  Uiso   1.00
C731   C     0.67876   0.83132   0.48190   0.00000  Uiso   1.00
C732   C     0.98790   0.83534   0.51810   0.00000  Uiso   1.00
H733   H     0.99165   0.82610   0.44769   0.00000  Uiso   1.00
H734   H     0.67502   0.84056   0.55231   0.00000  Uiso   1.00
C735   C     0.87437   0.68828   0.48281   0.00000  Uiso   1.00
C736   C     0.79229   0.97838   0.51718   0.00000  Uiso   1.00
C737   C     0.87324   0.97844   0.48303   0.00000  Uiso   1.00
C738   C     0.79343   0.68823   0.51696   0.00000  Uiso   1.00
H739   H     0.90442   0.96135   0.47075   0.00000  Uiso   1.00
H740   H     0.76223   0.70531   0.52924   0.00000  Uiso   1.00
C741   C     0.83245   0.95729   0.50007   0.00000  Uiso   1.00
C742   C     0.83421   0.70938   0.49993   0.00000  Uiso   1.00
C743   C     0.86252   0.86243   0.36095   0.00000  Uiso   1.00
C744   C     0.80414   0.80424   0.63904   0.00000  Uiso   1.00
C745   C     0.86302   0.86203   0.64655   0.00000  Uiso   1.00
C746   C     0.80364   0.80464   0.35345   0.00000  Uiso   1.00
Cl747  Cl    0.92729   0.71476   0.46283   0.00000  Uiso   1.00
Cl748  Cl    0.73937   0.95191   0.53716   0.00000  Uiso   1.00
N749   N     0.89118   0.89464   0.38792   0.00000  Uiso   1.00
O750   O     0.87416   0.93290   0.38452   0.00000  Uiso   1.00
O751   O     0.93974   0.88842   0.40533   0.00000  Uiso   1.00
N752   N     0.77545   0.77205   0.61207   0.00000  Uiso   1.00
O753   O     0.79249   0.73381   0.61540   0.00000  Uiso   1.00
O754   O     0.72685   0.77826   0.59479   0.00000  Uiso   1.00
Cl755  Cl    0.90419   0.89805   0.62316   0.00000  Uiso   1.00
Cl756  Cl    0.76248   0.76862   0.37684   0.00000  Uiso   1.00
O757   O     0.16666   0.10558   0.87154   0.00000  Uiso   1.00
O758   O     0.16667   0.22775   0.79513   0.00000  Uiso   1.00
O759   O     0.16666   0.10559   0.79510   0.00000  Uiso   1.00
O760   O     0.16667   0.22774   0.87157   0.00000  Uiso   1.00
C761   C     0.16720   0.08684   0.83334   0.00000  Uiso   1.00
C762   C     0.16614   0.24649   0.83332   0.00000  Uiso   1.00
O763   O     0.09058   0.16666   0.86261   0.00000  Uiso   1.00
O764   O     0.24275   0.16667   0.80405   0.00000  Uiso   1.00
O765   O     0.09058   0.16667   0.78617   0.00000  Uiso   1.00
O766   O     0.24275   0.16666   0.88050   0.00000  Uiso   1.00
C767   C     0.06716   0.16630   0.82147   0.00000  Uiso   1.00
C768   C     0.26618   0.16703   0.84520   0.00000  Uiso   1.00
Zn769  Zn    0.16667   0.16666   0.88437   0.00000  Uiso   1.00
Zn770  Zn    0.16667   0.16667   0.78229   0.00000  Uiso   1.00
N771   N     0.16665   0.16666   0.95240   0.00000  Uiso   1.00
N772   N     0.16668   0.16668   0.71427   0.00000  Uiso   1.00
C773   C     0.01210   0.16465   0.81523   0.00000  Uiso   1.00
C774   C     0.32124   0.16868   0.85144   0.00000  Uiso   1.00
H775   H     0.32498   0.15944   0.78102   0.00000  Uiso   1.00
H776   H     0.00835   0.17389   0.88565   0.00000  Uiso   1.00
C777   C     0.20770   0.02162   0.81615   0.00000  Uiso   1.00
C778   C     0.12563   0.31172   0.85051   0.00000  Uiso   1.00
C779   C     0.20657   0.31177   0.81637   0.00000  Uiso   1.00
C780   C     0.12676   0.02156   0.85029   0.00000  Uiso   1.00
H781   H     0.23776   0.29469   0.80408   0.00000  Uiso   1.00
H782   H     0.09557   0.03865   0.86257   0.00000  Uiso   1.00
C783   C     0.16579   0.29062   0.83340   0.00000  Uiso   1.00
C784   C     0.16755   0.04271   0.83327   0.00000  Uiso   1.00
C785   C     0.19585   0.19576   0.69429   0.00000  Uiso   1.00
C786   C     0.13747   0.13758   0.97238   0.00000  Uiso   1.00
C787   C     0.19636   0.19536   0.97988   0.00000  Uiso   1.00
C788   C     0.13698   0.13797   0.68678   0.00000  Uiso   1.00
Cl789  Cl    0.26062   0.04809   0.79617   0.00000  Uiso   1.00
Cl790  Cl    0.07271   0.28524   0.87050   0.00000  Uiso   1.00
N791   N     0.22451   0.22797   0.72126   0.00000  Uiso   1.00
O792   O     0.20749   0.26623   0.71785   0.00000  Uiso   1.00
O793   O     0.27307   0.22175   0.73866   0.00000  Uiso   1.00
N794   N     0.10878   0.10539   0.94540   0.00000  Uiso   1.00
O795   O     0.12583   0.06714   0.94873   0.00000  Uiso   1.00
O796   O     0.06018   0.11159   0.92812   0.00000  Uiso   1.00
Cl797  Cl    0.23752   0.23138   0.95650   0.00000  Uiso   1.00
Cl798  Cl    0.09581   0.10195   0.71017   0.00000  Uiso   1.00
O799   O     0.50000   0.10558   0.87154   0.00000  Uiso   1.00
O800   O     0.50000   0.22775   0.79513   0.00000  Uiso   1.00
O801   O     0.50000   0.10559   0.79510   0.00000  Uiso   1.00
O802   O     0.50000   0.22774   0.87157   0.00000  Uiso   1.00
C803   C     0.50053   0.08684   0.83334   0.00000  Uiso   1.00
C804   C     0.49947   0.24649   0.83332   0.00000  Uiso   1.00
O805   O     0.42392   0.16666   0.86261   0.00000  Uiso   1.00
O806   O     0.57608   0.16667   0.80405   0.00000  Uiso   1.00
O807   O     0.42392   0.16667   0.78617   0.00000  Uiso   1.00
O808   O     0.57608   0.16666   0.88050   0.00000  Uiso   1.00
C809   C     0.40049   0.16630   0.82147   0.00000  Uiso   1.00
C810   C     0.59951   0.16703   0.84520   0.00000  Uiso   1.00
Zn811  Zn    0.50000   0.16666   0.88437   0.00000  Uiso   1.00
Zn812  Zn    0.50000   0.16667   0.78229   0.00000  Uiso   1.00
N813   N     0.49999   0.16666   0.95240   0.00000  Uiso   1.00
N814   N     0.50001   0.16668   0.71427   0.00000  Uiso   1.00
C815   C     0.34543   0.16465   0.81523   0.00000  Uiso   1.00
C816   C     0.65457   0.16868   0.85144   0.00000  Uiso   1.00
H817   H     0.65832   0.15944   0.78102   0.00000  Uiso   1.00
H818   H     0.34169   0.17389   0.88565   0.00000  Uiso   1.00
C819   C     0.54104   0.02162   0.81615   0.00000  Uiso   1.00
C820   C     0.45896   0.31172   0.85051   0.00000  Uiso   1.00
C821   C     0.53990   0.31177   0.81637   0.00000  Uiso   1.00
C822   C     0.46009   0.02156   0.85029   0.00000  Uiso   1.00
H823   H     0.57109   0.29469   0.80408   0.00000  Uiso   1.00
H824   H     0.42890   0.03865   0.86257   0.00000  Uiso   1.00
C825   C     0.49912   0.29062   0.83340   0.00000  Uiso   1.00
C826   C     0.50088   0.04271   0.83327   0.00000  Uiso   1.00
C827   C     0.52919   0.19576   0.69429   0.00000  Uiso   1.00
C828   C     0.47081   0.13758   0.97238   0.00000  Uiso   1.00
C829   C     0.52969   0.19536   0.97988   0.00000  Uiso   1.00
C830   C     0.47031   0.13797   0.68678   0.00000  Uiso   1.00
Cl831  Cl    0.59396   0.04809   0.79617   0.00000  Uiso   1.00
Cl832  Cl    0.40604   0.28524   0.87050   0.00000  Uiso   1.00
N833   N     0.55784   0.22797   0.72126   0.00000  Uiso   1.00
O834   O     0.54083   0.26623   0.71785   0.00000  Uiso   1.00
O835   O     0.60640   0.22175   0.73866   0.00000  Uiso   1.00
N836   N     0.44212   0.10539   0.94540   0.00000  Uiso   1.00
O837   O     0.45916   0.06714   0.94873   0.00000  Uiso   1.00
O838   O     0.39352   0.11159   0.92812   0.00000  Uiso   1.00
Cl839  Cl    0.57085   0.23138   0.95650   0.00000  Uiso   1.00
Cl840  Cl    0.42915   0.10195   0.71017   0.00000  Uiso   1.00
O841   O     0.83333   0.10558   0.87154   0.00000  Uiso   1.00
O842   O     0.83334   0.22775   0.79513   0.00000  Uiso   1.00
O843   O     0.83333   0.10559   0.79510   0.00000  Uiso   1.00
O844   O     0.83334   0.22774   0.87157   0.00000  Uiso   1.00
C845   C     0.83386   0.08684   0.83334   0.00000  Uiso   1.00
C846   C     0.83280   0.24649   0.83332   0.00000  Uiso   1.00
O847   O     0.75725   0.16666   0.86261   0.00000  Uiso   1.00
O848   O     0.90942   0.16667   0.80405   0.00000  Uiso   1.00
O849   O     0.75725   0.16667   0.78617   0.00000  Uiso   1.00
O850   O     0.90942   0.16666   0.88050   0.00000  Uiso   1.00
C851   C     0.73382   0.16630   0.82147   0.00000  Uiso   1.00
C852   C     0.93284   0.16703   0.84520   0.00000  Uiso   1.00
Zn853  Zn    0.83333   0.16666   0.88437   0.00000  Uiso   1.00
Zn854  Zn    0.83333   0.16667   0.78229   0.00000  Uiso   1.00
N855   N     0.83332   0.16666   0.95240   0.00000  Uiso   1.00
N856   N     0.83335   0.16668   0.71427   0.00000  Uiso   1.00
C857   C     0.67876   0.16465   0.81523   0.00000  Uiso   1.00
C858   C     0.98790   0.16868   0.85144   0.00000  Uiso   1.00
H859   H     0.99165   0.15944   0.78102   0.00000  Uiso   1.00
H860   H     0.67502   0.17389   0.88565   0.00000  Uiso   1.00
C861   C     0.87437   0.02162   0.81615   0.00000  Uiso   1.00
C862   C     0.79229   0.31172   0.85051   0.00000  Uiso   1.00
C863   C     0.87324   0.31177   0.81637   0.00000  Uiso   1.00
C864   C     0.79343   0.02156   0.85029   0.00000  Uiso   1.00
H865   H     0.90442   0.29469   0.80408   0.00000  Uiso   1.00
H866   H     0.76223   0.03865   0.86257   0.00000  Uiso   1.00
C867   C     0.83245   0.29062   0.83340   0.00000  Uiso   1.00
C868   C     0.83421   0.04271   0.83327   0.00000  Uiso   1.00
C869   C     0.86252   0.19576   0.69429   0.00000  Uiso   1.00
C870   C     0.80414   0.13758   0.97238   0.00000  Uiso   1.00
C871   C     0.86302   0.19536   0.97988   0.00000  Uiso   1.00
C872   C     0.80364   0.13797   0.68678   0.00000  Uiso   1.00
Cl873  Cl    0.92729   0.04809   0.79617   0.00000  Uiso   1.00
Cl874  Cl    0.73937   0.28524   0.87050   0.00000  Uiso   1.00
N875   N     0.89118   0.22797   0.72126   0.00000  Uiso   1.00
O876   O     0.87416   0.26623   0.71785   0.00000  Uiso   1.00
O877   O     0.93974   0.22175   0.73866   0.00000  Uiso   1.00
N878   N     0.77545   0.10539   0.94540   0.00000  Uiso   1.00
O879   O     0.79249   0.06714   0.94873   0.00000  Uiso   1.00
O880   O     0.72685   0.11159   0.92812   0.00000  Uiso   1.00
Cl881  Cl    0.90419   0.23138   0.95650   0.00000  Uiso   1.00
Cl882  Cl    0.76248   0.10195   0.71017   0.00000  Uiso   1.00
O883   O     0.16666   0.43892   0.87154   0.00000  Uiso   1.00
O884   O     0.16667   0.56108   0.79513   0.00000  Uiso   1.00
O885   O     0.16666   0.43893   0.79510   0.00000  Uiso   1.00
O886   O     0.16667   0.56107   0.87157   0.00000  Uiso   1.00
C887   C     0.16720   0.42018   0.83334   0.00000  Uiso   1.00
C888   C     0.16614   0.57982   0.83332   0.00000  Uiso   1.00
O889   O     0.09058   0.50000   0.86261   0.00000  Uiso   1.00
O890   O     0.24275   0.50000   0.80405   0.00000  Uiso   1.00
O891   O     0.09058   0.50000   0.78617   0.00000  Uiso   1.00
O892   O     0.24275   0.50000   0.88050   0.00000  Uiso   1.00
C893   C     0.06716   0.49963   0.82147   0.00000  Uiso   1.00
C894   C     0.26618   0.50037   0.84520   0.00000  Uiso   1.00
Zn895  Zn    0.16667   0.49999   0.88437   0.00000  Uiso   1.00
Zn896  Zn    0.16667   0.50001   0.78229   0.00000  Uiso   1.00
N897   N     0.16665   0.49999   0.95240   0.00000  Uiso   1.00
N898   N     0.16668   0.50001   0.71427   0.00000  Uiso   1.00
C899   C     0.01210   0.49799   0.81523   0.00000  Uiso   1.00
C900   C     0.32124   0.50201   0.85144   0.00000  Uiso   1.00
H901   H     0.32498   0.49277   0.78102   0.00000  Uiso   1.00
H902   H     0.00835   0.50722   0.88565   0.00000  Uiso   1.00
C903   C     0.20770   0.35495   0.81615   0.00000  Uiso   1.00
C904   C     0.12563   0.64505   0.85051   0.00000  Uiso   1.00
C905   C     0.20657   0.64511   0.81637   0.00000  Uiso   1.00
C906   C     0.12676   0.35489   0.85029   0.00000  Uiso   1.00
H907   H     0.23776   0.62802   0.80408   0.00000  Uiso   1.00
H908   H     0.09557   0.37198   0.86257   0.00000  Uiso   1.00
C909   C     0.16579   0.62395   0.83340   0.00000  Uiso   1.00
C910   C     0.16755   0.37605   0.83327   0.00000  Uiso   1.00
C911   C     0.19585   0.52910   0.69429   0.00000  Uiso   1.00
C912   C     0.13747   0.47091   0.97238   0.00000  Uiso   1.00
C913   C     0.19636   0.52870   0.97988   0.00000  Uiso   1.00
C914   C     0.13698   0.47130   0.68678   0.00000  Uiso   1.00
Cl915  Cl    0.26062   0.38142   0.79617   0.00000  Uiso   1.00
Cl916  Cl    0.07271   0.61858   0.87050   0.00000  Uiso   1.00
N917   N     0.22451   0.56131   0.72126   0.00000  Uiso   1.00
O918   O     0.20749   0.59956   0.71785   0.00000  Uiso   1.00
O919   O     0.27307   0.55509   0.73866   0.00000  Uiso   1.00
N920   N     0.10878   0.43872   0.94540   0.00000  Uiso   1.00
O921   O     0.12583   0.40047   0.94873   0.00000  Uiso   1.00
O922   O     0.06018   0.44493   0.92812   0.00000  Uiso   1.00
Cl923  Cl    0.23752   0.56471   0.95650   0.00000  Uiso   1.00
Cl924  Cl    0.09581   0.43529   0.71017   0.00000  Uiso   1.00
O925   O     0.50000   0.43892   0.87154   0.00000  Uiso   1.00
O926   O     0.50000   0.56108   0.79513   0.00000  Uiso   1.00
O927   O     0.50000   0.43893   0.79510   0.00000  Uiso   1.00
O928   O     0.50000   0.56107   0.87157   0.00000  Uiso   1.00
C929   C     0.50053   0.42018   0.83334   0.00000  Uiso   1.00
C930   C     0.49947   0.57982   0.83332   0.00000  Uiso   1.00
O931   O     0.42392   0.50000   0.86261   0.00000  Uiso   1.00
O932   O     0.57608   0.50000   0.80405   0.00000  Uiso   1.00
O933   O     0.42392   0.50000   0.78617   0.00000  Uiso   1.00
O934   O     0.57608   0.50000   0.88050   0.00000  Uiso   1.00
C935   C     0.40049   0.49963   0.82147   0.00000  Uiso   1.00
C936   C     0.59951   0.50037   0.84520   0.00000  Uiso   1.00
Zn937  Zn    0.50000   0.49999   0.88437   0.00000  Uiso   1.00
Zn938  Zn    0.50000   0.50001   0.78229   0.00000  Uiso   1.00
N939   N     0.49999   0.49999   0.95240   0.00000  Uiso   1.00
N940   N     0.50001   0.50001   0.71427   0.00000  Uiso   1.00
C941   C     0.34543   0.49799   0.81523   0.00000  Uiso   1.00
C942   C     0.65457   0.50201   0.85144   0.00000  Uiso   1.00
H943   H     0.65832   0.49277   0.78102   0.00000  Uiso   1.00
H944   H     0.34169   0.50722   0.88565   0.00000  Uiso   1.00
C945   C     0.54104   0.35495   0.81615   0.00000  Uiso   1.00
C946   C     0.45896   0.64505   0.85051   0.00000  Uiso   1.00
C947   C     0.53990   0.64511   0.81637   0.00000  Uiso   1.00
C948   C     0.46009   0.35489   0.85029   0.00000  Uiso   1.00
H949   H     0.57109   0.62802   0.80408   0.00000  Uiso   1.00
H950   H     0.42890   0.37198   0.86257   0.00000  Uiso   1.00
C951   C     0.49912   0.62395   0.83340   0.00000  Uiso   1.00
C952   C     0.50088   0.37605   0.83327   0.00000  Uiso   1.00
C953   C     0.52919   0.52910   0.69429   0.00000  Uiso   1.00
C954   C     0.47081   0.47091   0.97238   0.00000  Uiso   1.00
C955   C     0.52969   0.52870   0.97988   0.00000  Uiso   1.00
C956   C     0.47031   0.47130   0.68678   0.00000  Uiso   1.00
Cl957  Cl    0.59396   0.38142   0.79617   0.00000  Uiso   1.00
Cl958  Cl    0.40604   0.61858   0.87050   0.00000  Uiso   1.00
N959   N     0.55784   0.56131   0.72126   0.00000  Uiso   1.00
O960   O     0.54083   0.59956   0.71785   0.00000  Uiso   1.00
O961   O     0.60640   0.55509   0.73866   0.00000  Uiso   1.00
N962   N     0.44212   0.43872   0.94540   0.00000  Uiso   1.00
O963   O     0.45916   0.40047   0.94873   0.00000  Uiso   1.00
O964   O     0.39352   0.44493   0.92812   0.00000  Uiso   1.00
Cl965  Cl    0.57085   0.56471   0.95650   0.00000  Uiso   1.00
Cl966  Cl    0.42915   0.43529   0.71017   0.00000  Uiso   1.00
O967   O     0.83333   0.43892   0.87154   0.00000  Uiso   1.00
O968   O     0.83334   0.56108   0.79513   0.00000  Uiso   1.00
O969   O     0.83333   0.43893   0.79510   0.00000  Uiso   1.00
O970   O     0.83334   0.56107   0.87157   0.00000  Uiso   1.00
C971   C     0.83386   0.42018   0.83334   0.00000  Uiso   1.00
C972   C     0.83280   0.57982   0.83332   0.00000  Uiso   1.00
O973   O     0.75725   0.50000   0.86261   0.00000  Uiso   1.00
O974   O     0.90942   0.50000   0.80405   0.00000  Uiso   1.00
O975   O     0.75725   0.50000   0.78617   0.00000  Uiso   1.00
O976   O     0.90942   0.50000   0.88050   0.00000  Uiso   1.00
C977   C     0.73382   0.49963   0.82147   0.00000  Uiso   1.00
C978   C     0.93284   0.50037   0.84520   0.00000  Uiso   1.00
Zn979  Zn    0.83333   0.49999   0.88437   0.00000  Uiso   1.00
Zn980  Zn    0.83333   0.50001   0.78229   0.00000  Uiso   1.00
N981   N     0.83332   0.49999   0.95240   0.00000  Uiso   1.00
N982   N     0.83335   0.50001   0.71427   0.00000  Uiso   1.00
C983   C     0.67876   0.49799   0.81523   0.00000  Uiso   1.00
C984   C     0.98790   0.50201   0.85144   0.00000  Uiso   1.00
H985   H     0.99165   0.49277   0.78102   0.00000  Uiso   1.00
H986   H     0.67502   0.50722   0.88565   0.00000  Uiso   1.00
C987   C     0.87437   0.35495   0.81615   0.00000  Uiso   1.00
C988   C     0.79229   0.64505   0.85051   0.00000  Uiso   1.00
C989   C     0.87324   0.64511   0.81637   0.00000  Uiso   1.00
C990   C     0.79343   0.35489   0.85029   0.00000  Uiso   1.00
H991   H     0.90442   0.62802   0.80408   0.00000  Uiso   1.00
H992   H     0.76223   0.37198   0.86257   0.00000  Uiso   1.00
C993   C     0.83245   0.62395   0.83340   0.00000  Uiso   1.00
C994   C     0.83421   0.37605   0.83327   0.00000  Uiso   1.00
C995   C     0.86252   0.52910   0.69429   0.00000  Uiso   1.00
C996   C     0.80414   0.47091   0.97238   0.00000  Uiso   1.00
C997   C     0.86302   0.52870   0.97988   0.00000  Uiso   1.00
C998   C     0.80364   0.47130   0.68678   0.00000  Uiso   1.00
Cl999  Cl    0.92729   0.38142   0.79617   0.00000  Uiso   1.00
Cl1000 Cl    0.73937   0.61858   0.87050   0.00000  Uiso   1.00
N1001  N     0.89118   0.56131   0.72126   0.00000  Uiso   1.00
O1002  O     0.87416   0.59956   0.71785   0.00000  Uiso   1.00
O1003  O     0.93974   0.55509   0.73866   0.00000  Uiso   1.00
N1004  N     0.77545   0.43872   0.94540   0.00000  Uiso   1.00
O1005  O     0.79249   0.40047   0.94873   0.00000  Uiso   1.00
O1006  O     0.72685   0.44493   0.92812   0.00000  Uiso   1.00
Cl1007 Cl    0.90419   0.56471   0.95650   0.00000  Uiso   1.00
Cl1008 Cl    0.76248   0.43529   0.71017   0.00000  Uiso   1.00
O1009  O     0.16666   0.77225   0.87154   0.00000  Uiso   1.00
O1010  O     0.16667   0.89442   0.79513   0.00000  Uiso   1.00
O1011  O     0.16666   0.77226   0.79510   0.00000  Uiso   1.00
O1012  O     0.16667   0.89441   0.87157   0.00000  Uiso   1.00
C1013  C     0.16720   0.75351   0.83334   0.00000  Uiso   1.00
C1014  C     0.16614   0.91316   0.83332   0.00000  Uiso   1.00
O1015  O     0.09058   0.83333   0.86261   0.00000  Uiso   1.00
O1016  O     0.24275   0.83334   0.80405   0.00000  Uiso   1.00
O1017  O     0.09058   0.83334   0.78617   0.00000  Uiso   1.00
O1018  O     0.24275   0.83333   0.88050   0.00000  Uiso   1.00
C1019  C     0.06716   0.83297   0.82147   0.00000  Uiso   1.00
C1020  C     0.26618   0.83370   0.84520   0.00000  Uiso   1.00
Zn1021 Zn    0.16667   0.83333   0.88437   0.00000  Uiso   1.00
Zn1022 Zn    0.16667   0.83334   0.78229   0.00000  Uiso   1.00
N1023  N     0.16665   0.83332   0.95240   0.00000  Uiso   1.00
N1024  N     0.16668   0.83334   0.71427   0.00000  Uiso   1.00
C1025  C     0.01210   0.83132   0.81523   0.00000  Uiso   1.00
C1026  C     0.32124   0.83534   0.85144   0.00000  Uiso   1.00
H1027  H     0.32498   0.82610   0.78102   0.00000  Uiso   1.00
H1028  H     0.00835   0.84056   0.88565   0.00000  Uiso   1.00
C1029  C     0.20770   0.68828   0.81615   0.00000  Uiso   1.00
C1030  C     0.12563   0.97838   0.85051   0.00000  Uiso   1.00
C1031  C     0.20657   0.97844   0.81637   0.00000  Uiso   1.00
C1032  C     0.12676   0.68823   0.85029   0.00000  Uiso   1.00
H1033  H     0.23776   0.96135   0.80408   0.00000  Uiso   1.00
H1034  H     0.09557   0.70531   0.86257   0.00000  Uiso   1.00
C1035  C     0.16579   0.95729   0.83340   0.00000  Uiso   1.00
C1036  C     0.16755   0.70938   0.83327   0.00000  Uiso   1.00
C1037  C     0.19585   0.86243   0.69429   0.00000  Uiso   1.00
C1038  C     0.13747   0.80424   0.97238   0.00000  Uiso   1.00
C1039  C     0.19636   0.86203   0.97988   0.00000  Uiso   1.00
C1040  C     0.13698   0.80464   0.68678   0.00000  Uiso   1.00
Cl1041 Cl    0.26062   0.71476   0.79617   0.00000  Uiso   1.00
Cl1042 Cl    0.07271   0.95191   0.87050   0.00000  Uiso   1.00
N1043  N     0.22451   0.89464   0.72126   0.00000  Uiso   1.00
O1044  O     0.20749   0.93290   0.71785   0.00000  Uiso   1.00
O1045  O     0.27307   0.88842   0.73866   0.00000  Uiso   1.00
N1046  N     0.10878   0.77205   0.94540   0.00000  Uiso   1.00
O1047  O     0.12583   0.73381   0.94873   0.00000  Uiso   1.00
O1048  O     0.06018   0.77826   0.92812   0.00000  Uiso   1.00
Cl1049 Cl    0.23752   0.89805   0.95650   0.00000  Uiso   1.00
Cl1050 Cl    0.09581   0.76862   0.71017   0.00000  Uiso   1.00
O1051  O     0.50000   0.77225   0.87154   0.00000  Uiso   1.00
O1052  O     0.50000   0.89442   0.79513   0.00000  Uiso   1.00
O1053  O     0.50000   0.77226   0.79510   0.00000  Uiso   1.00
O1054  O     0.50000   0.89441   0.87157   0.00000  Uiso   1.00
C1055  C     0.50053   0.75351   0.83334   0.00000  Uiso   1.00
C1056  C     0.49947   0.91316   0.83332   0.00000  Uiso   1.00
O1057  O     0.42392   0.83333   0.86261   0.00000  Uiso   1.00
O1058  O     0.57608   0.83334   0.80405   0.00000  Uiso   1.00
O1059  O     0.42392   0.83334   0.78617   0.00000  Uiso   1.00
O1060  O     0.57608   0.83333   0.88050   0.00000  Uiso   1.00
C1061  C     0.40049   0.83297   0.82147   0.00000  Uiso   1.00
C1062  C     0.59951   0.83370   0.84520   0.00000  Uiso   1.00
Zn1063 Zn    0.50000   0.83333   0.88437   0.00000  Uiso   1.00
Zn1064 Zn    0.50000   0.83334   0.78229   0.00000  Uiso   1.00
N1065  N     0.49999   0.83332   0.95240   0.00000  Uiso   1.00
N1066  N     0.50001   0.83334   0.71427   0.00000  Uiso   1.00
C1067  C     0.34543   0.83132   0.81523   0.00000  Uiso   1.00
C1068  C     0.65457   0.83534   0.85144   0.00000  Uiso   1.00
H1069  H     0.65832   0.82610   0.78102   0.00000  Uiso   1.00
H1070  H     0.34169   0.84056   0.88565   0.00000  Uiso   1.00
C1071  C     0.54104   0.68828   0.81615   0.00000  Uiso   1.00
C1072  C     0.45896   0.97838   0.85051   0.00000  Uiso   1.00
C1073  C     0.53990   0.97844   0.81637   0.00000  Uiso   1.00
C1074  C     0.46009   0.68823   0.85029   0.00000  Uiso   1.00
H1075  H     0.57109   0.96135   0.80408   0.00000  Uiso   1.00
H1076  H     0.42890   0.70531   0.86257   0.00000  Uiso   1.00
C1077  C     0.49912   0.95729   0.83340   0.00000  Uiso   1.00
C1078  C     0.50088   0.70938   0.83327   0.00000  Uiso   1.00
C1079  C     0.52919   0.86243   0.69429   0.00000  Uiso   1.00
C1080  C     0.47081   0.80424   0.97238   0.00000  Uiso   1.00
C1081  C     0.52969   0.86203   0.97988   0.00000  Uiso   1.00
C1082  C     0.47031   0.80464   0.68678   0.00000  Uiso   1.00
Cl1083 Cl    0.59396   0.71476   0.79617   0.00000  Uiso   1.00
Cl1084 Cl    0.40604   0.95191   0.87050   0.00000  Uiso   1.00
N1085  N     0.55784   0.89464   0.72126   0.00000  Uiso   1.00
O1086  O     0.54083   0.93290   0.71785   0.00000  Uiso   1.00
O1087  O     0.60640   0.88842   0.73866   0.00000  Uiso   1.00
N1088  N     0.44212   0.77205   0.94540   0.00000  Uiso   1.00
O1089  O     0.45916   0.73381   0.94873   0.00000  Uiso   1.00
O1090  O     0.39352   0.77826   0.92812   0.00000  Uiso   1.00
Cl1091 Cl    0.57085   0.89805   0.95650   0.00000  Uiso   1.00
Cl1092 Cl    0.42915   0.76862   0.71017   0.00000  Uiso   1.00
O1093  O     0.83333   0.77225   0.87154   0.00000  Uiso   1.00
O1094  O     0.83334   0.89442   0.79513   0.00000  Uiso   1.00
O1095  O     0.83333   0.77226   0.79510   0.00000  Uiso   1.00
O1096  O     0.83334   0.89441   0.87157   0.00000  Uiso   1.00
C1097  C     0.83386   0.75351   0.83334   0.00000  Uiso   1.00
C1098  C     0.83280   0.91316   0.83332   0.00000  Uiso   1.00
O1099  O     0.75725   0.83333   0.86261   0.00000  Uiso   1.00
O1100  O     0.90942   0.83334   0.80405   0.00000  Uiso   1.00
O1101  O     0.75725   0.83334   0.78617   0.00000  Uiso   1.00
O1102  O     0.90942   0.83333   0.88050   0.00000  Uiso   1.00
C1103  C     0.73382   0.83297   0.82147   0.00000  Uiso   1.00
C1104  C     0.93284   0.83370   0.84520   0.00000  Uiso   1.00
Zn1105 Zn    0.83333   0.83333   0.88437   0.00000  Uiso   1.00
Zn1106 Zn    0.83333   0.83334   0.78229   0.00000  Uiso   1.00
N1107  N     0.83332   0.83332   0.95240   0.00000  Uiso   1.00
N1108  N     0.83335   0.83334   0.71427   0.00000  Uiso   1.00
C1109  C     0.67876   0.83132   0.81523   0.00000  Uiso   1.00
C1110  C     0.98790   0.83534   0.85144   0.00000  Uiso   1.00
H1111  H     0.99165   0.82610   0.78102   0.00000  Uiso   1.00
H1112  H     0.67502   0.84056   0.88565   0.00000  Uiso   1.00
C1113  C     0.87437   0.68828   0.81615   0.00000  Uiso   1.00
C1114  C     0.79229   0.97838   0.85051   0.00000  Uiso   1.00
C1115  C     0.87324   0.97844   0.81637   0.00000  Uiso   1.00
C1116  C     0.79343   0.68823   0.85029   0.00000  Uiso   1.00
H1117  H     0.90442   0.96135   0.80408   0.00000  Uiso   1.00
H1118  H     0.76223   0.70531   0.86257   0.00000  Uiso   1.00
C1119  C     0.83245   0.95729   0.83340   0.00000  Uiso   1.00
C1120  C     0.83421   0.70938   0.83327   0.00000  Uiso   1.00
C1121  C     0.86252   0.86243   0.69429   0.00000  Uiso   1.00
C1122  C     0.80414   0.80424   0.97238   0.00000  Uiso   1.00
C1123  C     0.86302   0.86203   0.97988   0.00000  Uiso   1.00
C1124  C     0.80364   0.80464   0.68678   0.00000  Uiso   1.00
Cl1125 Cl    0.92729   0.71476   0.79617   0.00000  Uiso   1.00
Cl1126 Cl    0.73937   0.95191   0.87050   0.00000  Uiso   1.00
N1127  N     0.89118   0.89464   0.72126   0.00000  Uiso   1.00
O1128  O     0.87416   0.93290   0.71785   0.00000  Uiso   1.00
O1129  O     0.93974   0.88842   0.73866   0.00000  Uiso   1.00
N1130  N     0.77545   0.77205   0.94540   0.00000  Uiso   1.00
O1131  O     0.79249   0.73381   0.94873   0.00000  Uiso   1.00
O1132  O     0.72685   0.77826   0.92812   0.00000  Uiso   1.00
Cl1133 Cl    0.90419   0.89805   0.95650   0.00000  Uiso   1.00
Cl1134 Cl    0.76248   0.76862   0.71017   0.00000  Uiso   1.00
loop_
_geom_bond_atom_site_label_1
_geom_bond_atom_site_label_2
_geom_bond_distance
_geom_bond_site_symmetry_2
_ccdc_geom_bond_type
O1     C5      1.286   .     A
O1     Zn13    1.981   .     S
O2     Zn14    1.981   .     S
O2     C6      1.286   .     A
O3     Zn14    1.982   .     S
O3     C5      1.285   .     A
O4     C6      1.285   .     A
O4     Zn13    1.982   .     S
C5     C28     1.405   .     S
C6     C27     1.405   .     S
O7     C11     1.284   .     A
O7     Zn13    1.970   .     S
O8     C12     1.284   .     A
O8     Zn14    1.970   .     S
O9     Zn14    1.978   .     S
O9     C11     1.286   .     A
O10    C12     1.286   .     A
O10    Zn13    1.978   .     S
C11    C17     1.402   .     S
C12    C18     1.402   .     S
Zn13   N15     2.026   .     S
Zn14   N16     2.026   .     S
N15    C31     1.371   .     A
N15    C30     1.371   .     A
N16    C32     1.371   .     A
N16    C29     1.371   .     A
C17    C102    1.329   1_455 S
C17    H103    1.087   1_455 S
C18    C59     1.329   .     S
C18    H62     1.087   .     S
H19    C59     1.087   .     S
H20    C102    1.087   1_455 S
C21    C28     1.400   .     A
C21    Cl33    1.765   .     S
C21    C275    1.374   1_545 S
C22    C27     1.400   .     A
C22    Cl34    1.765   .     S
C22    C150    1.374   .     S
C23    C27     1.394   .     A
C23    H25     1.085   .     S
C23    C147    1.374   .     S
C24    H26     1.085   .     S
C24    C28     1.394   .     A
C24    C274    1.374   1_545 S
C29    N35     1.427   .     S
C29    C787    1.424   1_554 S
C30    N38     1.427   .     S
C30    C410    1.424   .     S
C31    Cl41    1.759   .     S
C31    C407    1.424   .     S
C32    Cl42    1.759   .     S
C32    C786    1.424   1_554 S
N35    O36     1.301   .     A
N35    O37     1.300   .     A
N38    O40     1.300   .     A
N38    O39     1.301   .     A
O43    C47     1.286   .     A
O43    Zn55    1.981   .     S
O44    Zn56    1.981   .     S
O44    C48     1.286   .     A
O45    Zn56    1.982   .     S
O45    C47     1.285   .     A
O46    C48     1.285   .     A
O46    Zn55    1.982   .     S
C47    C70     1.405   .     S
C48    C69     1.405   .     S
O49    C53     1.284   .     A
O49    Zn55    1.970   .     S
O50    C54     1.284   .     A
O50    Zn56    1.970   .     S
O51    Zn56    1.978   .     S
O51    C53     1.286   .     A
O52    C54     1.286   .     A
O52    Zn55    1.978   .     S
C53    C59     1.402   .     S
C54    C60     1.402   .     S
Zn55   N57     2.026   .     S
Zn56   N58     2.026   .     S
N57    C73     1.371   .     A
N57    C72     1.371   .     A
N58    C74     1.371   .     A
N58    C71     1.371   .     A
C60    C101    1.329   .     S
C60    H104    1.087   .     S
H61    C101    1.087   .     S
C63    C70     1.400   .     A
C63    Cl75    1.765   .     S
C63    C317    1.374   1_545 S
C64    C69     1.400   .     A
C64    Cl76    1.765   .     S
C64    C192    1.374   .     S
C65    C69     1.394   .     A
C65    H67     1.085   .     S
C65    C189    1.374   .     S
C66    H68     1.085   .     S
C66    C70     1.394   .     A
C66    C316    1.374   1_545 S
C71    N77     1.427   .     S
C71    C829    1.424   1_554 S
C72    N80     1.427   .     S
C72    C452    1.424   .     S
C73    Cl83    1.759   .     S
C73    C449    1.424   .     S
C74    Cl84    1.759   .     S
C74    C828    1.424   1_554 S
N77    O78     1.301   .     A
N77    O79     1.300   .     A
N80    O82     1.300   .     A
N80    O81     1.301   .     A
O85    C89     1.286   .     A
O85    Zn97    1.981   .     S
O86    Zn98    1.981   .     S
O86    C90     1.286   .     A
O87    Zn98    1.982   .     S
O87    C89     1.285   .     A
O88    C90     1.285   .     A
O88    Zn97    1.982   .     S
C89    C112    1.405   .     S
C90    C111    1.405   .     S
O91    C95     1.284   .     A
O91    Zn97    1.970   .     S
O92    C96     1.284   .     A
O92    Zn98    1.970   .     S
O93    Zn98    1.978   .     S
O93    C95     1.286   .     A
O94    C96     1.286   .     A
O94    Zn97    1.978   .     S
C95    C101    1.402   .     S
C96    C102    1.402   .     S
Zn97   N99     2.026   .     S
Zn98   N100    2.026   .     S
N99    C115    1.371   .     A
N99    C114    1.371   .     A
N100   C116    1.371   .     A
N100   C113    1.371   .     A
C102   C17     1.329   1_655 S
C102   H20     1.087   1_655 S
H103   C17     1.087   1_655 S
C105   C112    1.400   .     A
C105   Cl117   1.765   .     S
C105   C359    1.374   1_545 S
C106   C111    1.400   .     A
C106   Cl118   1.765   .     S
C106   C234    1.374   .     S
C107   C111    1.394   .     A
C107   H109    1.085   .     S
C107   C231    1.374   .     S
C108   H110    1.085   .     S
C108   C112    1.394   .     A
C108   C358    1.374   1_545 S
C113   N119    1.427   .     S
C113   C871    1.424   1_554 S
C114   N122    1.427   .     S
C114   C494    1.424   .     S
C115   Cl125   1.759   .     S
C115   C491    1.424   .     S
C116   Cl126   1.759   .     S
C116   C870    1.424   1_554 S
N119   O120    1.301   .     A
N119   O121    1.300   .     A
N122   O124    1.300   .     A
N122   O123    1.301   .     A
O127   C131    1.286   .     A
O127   Zn139   1.981   .     S
O128   Zn140   1.981   .     S
O128   C132    1.286   .     A
O129   Zn140   1.982   .     S
O129   C131    1.285   .     A
O130   C132    1.285   .     A
O130   Zn139   1.982   .     S
C131   C154    1.405   .     S
C132   C153    1.405   .     S
O133   C137    1.284   .     A
O133   Zn139   1.970   .     S
O134   C138    1.284   .     A
O134   Zn140   1.970   .     S
O135   Zn140   1.978   .     S
O135   C137    1.286   .     A
O136   C138    1.286   .     A
O136   Zn139   1.978   .     S
C137   C143    1.402   .     S
C138   C144    1.402   .     S
Zn139  N141    2.026   .     S
Zn140  N142    2.026   .     S
N141   C157    1.371   .     A
N141   C156    1.371   .     A
N142   C158    1.371   .     A
N142   C155    1.371   .     A
C143   C228    1.329   1_455 S
C143   H229    1.087   1_455 S
C144   C185    1.329   .     S
C144   H188    1.087   .     S
H145   C185    1.087   .     S
H146   C228    1.087   1_455 S
C147   C154    1.400   .     A
C147   Cl159   1.765   .     S
C148   C153    1.400   .     A
C148   Cl160   1.765   .     S
C148   C276    1.374   .     S
C149   C153    1.394   .     A
C149   H151    1.085   .     S
C149   C273    1.374   .     S
C150   H152    1.085   .     S
C150   C154    1.394   .     A
C155   N161    1.427   .     S
C155   C913    1.424   1_554 S
C156   N164    1.427   .     S
C156   C536    1.424   .     S
C157   Cl167   1.759   .     S
C157   C533    1.424   .     S
C158   Cl168   1.759   .     S
C158   C912    1.424   1_554 S
N161   O162    1.301   .     A
N161   O163    1.300   .     A
N164   O166    1.300   .     A
N164   O165    1.301   .     A
O169   C173    1.286   .     A
O169   Zn181   1.981   .     S
O170   Zn182   1.981   .     S
O170   C174    1.286   .     A
O171   Zn182   1.982   .     S
O171   C173    1.285   .     A
O172   C174    1.285   .     A
O172   Zn181   1.982   .     S
C173   C196    1.405   .     S
C174   C195    1.405   .     S
O175   C179    1.284   .     A
O175   Zn181   1.970   .     S
O176   C180    1.284   .     A
O176   Zn182   1.970   .     S
O177   Zn182   1.978   .     S
O177   C179    1.286   .     A
O178   C180    1.286   .     A
O178   Zn181   1.978   .     S
C179   C185    1.402   .     S
C180   C186    1.402   .     S
Zn181  N183    2.026   .     S
Zn182  N184    2.026   .     S
N183   C199    1.371   .     A
N183   C198    1.371   .     A
N184   C200    1.371   .     A
N184   C197    1.371   .     A
C186   C227    1.329   .     S
C186   H230    1.087   .     S
H187   C227    1.087   .     S
C189   C196    1.400   .     A
C189   Cl201   1.765   .     S
C190   C195    1.400   .     A
C190   Cl202   1.765   .     S
C190   C318    1.374   .     S
C191   C195    1.394   .     A
C191   H193    1.085   .     S
C191   C315    1.374   .     S
C192   H194    1.085   .     S
C192   C196    1.394   .     A
C197   N203    1.427   .     S
C197   C955    1.424   1_554 S
C198   N206    1.427   .     S
C198   C578    1.424   .     S
C199   Cl209   1.759   .     S
C199   C575    1.424   .     S
C200   Cl210   1.759   .     S
C200   C954    1.424   1_554 S
N203   O204    1.301   .     A
N203   O205    1.300   .     A
N206   O208    1.300   .     A
N206   O207    1.301   .     A
O211   C215    1.286   .     A
O211   Zn223   1.981   .     S
O212   Zn224   1.981   .     S
O212   C216    1.286   .     A
O213   Zn224   1.982   .     S
O213   C215    1.285   .     A
O214   C216    1.285   .     A
O214   Zn223   1.982   .     S
C215   C238    1.405   .     S
C216   C237    1.405   .     S
O217   C221    1.284   .     A
O217   Zn223   1.970   .     S
O218   C222    1.284   .     A
O218   Zn224   1.970   .     S
O219   Zn224   1.978   .     S
O219   C221    1.286   .     A
O220   C222    1.286   .     A
O220   Zn223   1.978   .     S
C221   C227    1.402   .     S
C222   C228    1.402   .     S
Zn223  N225    2.026   .     S
Zn224  N226    2.026   .     S
N225   C241    1.371   .     A
N225   C240    1.371   .     A
N226   C242    1.371   .     A
N226   C239    1.371   .     A
C228   C143    1.329   1_655 S
C228   H146    1.087   1_655 S
H229   C143    1.087   1_655 S
C231   C238    1.400   .     A
C231   Cl243   1.765   .     S
C232   C237    1.400   .     A
C232   Cl244   1.765   .     S
C232   C360    1.374   .     S
C233   C237    1.394   .     A
C233   H235    1.085   .     S
C233   C357    1.374   .     S
C234   H236    1.085   .     S
C234   C238    1.394   .     A
C239   N245    1.427   .     S
C239   C997    1.424   1_554 S
C240   N248    1.427   .     S
C240   C620    1.424   .     S
C241   Cl251   1.759   .     S
C241   C617    1.424   .     S
C242   Cl252   1.759   .     S
C242   C996    1.424   1_554 S
N245   O246    1.301   .     A
N245   O247    1.300   .     A
N248   O250    1.300   .     A
N248   O249    1.301   .     A
O253   C257    1.286   .     A
O253   Zn265   1.981   .     S
O254   Zn266   1.981   .     S
O254   C258    1.286   .     A
O255   Zn266   1.982   .     S
O255   C257    1.285   .     A
O256   C258    1.285   .     A
O256   Zn265   1.982   .     S
C257   C280    1.405   .     S
C258   C279    1.405   .     S
O259   C263    1.284   .     A
O259   Zn265   1.970   .     S
O260   C264    1.284   .     A
O260   Zn266   1.970   .     S
O261   Zn266   1.978   .     S
O261   C263    1.286   .     A
O262   C264    1.286   .     A
O262   Zn265   1.978   .     S
C263   C269    1.402   .     S
C264   C270    1.402   .     S
Zn265  N267    2.026   .     S
Zn266  N268    2.026   .     S
N267   C283    1.371   .     A
N267   C282    1.371   .     A
N268   C284    1.371   .     A
N268   C281    1.371   .     A
C269   C354    1.329   1_455 S
C269   H355    1.087   1_455 S
C270   C311    1.329   .     S
C270   H314    1.087   .     S
H271   C311    1.087   .     S
H272   C354    1.087   1_455 S
C273   C280    1.400   .     A
C273   Cl285   1.765   .     S
C274   C279    1.400   .     A
C274   Cl286   1.765   .     S
C274   C24     1.374   1_565 S
C275   C279    1.394   .     A
C275   H277    1.085   .     S
C275   C21     1.374   1_565 S
C276   H278    1.085   .     S
C276   C280    1.394   .     A
C281   N287    1.427   .     S
C281   C1039   1.424   1_554 S
C282   N290    1.427   .     S
C282   C662    1.424   .     S
C283   Cl293   1.759   .     S
C283   C659    1.424   .     S
C284   Cl294   1.759   .     S
C284   C1038   1.424   1_554 S
N287   O288    1.301   .     A
N287   O289    1.300   .     A
N290   O292    1.300   .     A
N290   O291    1.301   .     A
O295   C299    1.286   .     A
O295   Zn307   1.981   .     S
O296   Zn308   1.981   .     S
O296   C300    1.286   .     A
O297   Zn308   1.982   .     S
O297   C299    1.285   .     A
O298   C300    1.285   .     A
O298   Zn307   1.982   .     S
C299   C322    1.405   .     S
C300   C321    1.405   .     S
O301   C305    1.284   .     A
O301   Zn307   1.970   .     S
O302   C306    1.284   .     A
O302   Zn308   1.970   .     S
O303   Zn308   1.978   .     S
O303   C305    1.286   .     A
O304   C306    1.286   .     A
O304   Zn307   1.978   .     S
C305   C311    1.402   .     S
C306   C312    1.402   .     S
Zn307  N309    2.026   .     S
Zn308  N310    2.026   .     S
N309   C325    1.371   .     A
N309   C324    1.371   .     A
N310   C326    1.371   .     A
N310   C323    1.371   .     A
C312   C353    1.329   .     S
C312   H356    1.087   .     S
H313   C353    1.087   .     S
C315   C322    1.400   .     A
C315   Cl327   1.765   .     S
C316   C321    1.400   .     A
C316   Cl328   1.765   .     S
C316   C66     1.374   1_565 S
C317   C321    1.394   .     A
C317   H319    1.085   .     S
C317   C63     1.374   1_565 S
C318   H320    1.085   .     S
C318   C322    1.394   .     A
C323   N329    1.427   .     S
C323   C1081   1.424   1_554 S
C324   N332    1.427   .     S
C324   C704    1.424   .     S
C325   Cl335   1.759   .     S
C325   C701    1.424   .     S
C326   Cl336   1.759   .     S
C326   C1080   1.424   1_554 S
N329   O330    1.301   .     A
N329   O331    1.300   .     A
N332   O334    1.300   .     A
N332   O333    1.301   .     A
O337   C341    1.286   .     A
O337   Zn349   1.981   .     S
O338   Zn350   1.981   .     S
O338   C342    1.286   .     A
O339   Zn350   1.982   .     S
O339   C341    1.285   .     A
O340   C342    1.285   .     A
O340   Zn349   1.982   .     S
C341   C364    1.405   .     S
C342   C363    1.405   .     S
O343   C347    1.284   .     A
O343   Zn349   1.970   .     S
O344   C348    1.284   .     A
O344   Zn350   1.970   .     S
O345   Zn350   1.978   .     S
O345   C347    1.286   .     A
O346   C348    1.286   .     A
O346   Zn349   1.978   .     S
C347   C353    1.402   .     S
C348   C354    1.402   .     S
Zn349  N351    2.026   .     S
Zn350  N352    2.026   .     S
N351   C367    1.371   .     A
N351   C366    1.371   .     A
N352   C368    1.371   .     A
N352   C365    1.371   .     A
C354   C269    1.329   1_655 S
C354   H272    1.087   1_655 S
H355   C269    1.087   1_655 S
C357   C364    1.400   .     A
C357   Cl369   1.765   .     S
C358   C363    1.400   .     A
C358   Cl370   1.765   .     S
C358   C108    1.374   1_565 S
C359   C363    1.394   .     A
C359   H361    1.085   .     S
C359   C105    1.374   1_565 S
C360   H362    1.085   .     S
C360   C364    1.394   .     A
C365   N371    1.427   .     S
C365   C1123   1.424   1_554 S
C366   N374    1.427   .     S
C366   C746    1.424   .     S
C367   Cl377   1.759   .     S
C367   C743    1.424   .     S
C368   Cl378   1.759   .     S
C368   C1122   1.424   1_554 S
N371   O372    1.301   .     A
N371   O373    1.300   .     A
N374   O376    1.300   .     A
N374   O375    1.301   .     A
O379   C383    1.286   .     A
O379   Zn391   1.981   .     S
O380   Zn392   1.981   .     S
O380   C384    1.286   .     A
O381   Zn392   1.982   .     S
O381   C383    1.285   .     A
O382   C384    1.285   .     A
O382   Zn391   1.982   .     S
C383   C406    1.405   .     S
C384   C405    1.405   .     S
O385   C389    1.284   .     A
O385   Zn391   1.970   .     S
O386   C390    1.284   .     A
O386   Zn392   1.970   .     S
O387   Zn392   1.978   .     S
O387   C389    1.286   .     A
O388   C390    1.286   .     A
O388   Zn391   1.978   .     S
C389   C395    1.402   .     S
C390   C396    1.402   .     S
Zn391  N393    2.026   .     S
Zn392  N394    2.026   .     S
N393   C409    1.371   .     A
N393   C408    1.371   .     A
N394   C410    1.371   .     A
N394   C407    1.371   .     A
C395   C480    1.329   1_455 S
C395   H481    1.087   1_455 S
C396   C437    1.329   .     S
C396   H440    1.087   .     S
H397   C437    1.087   .     S
H398   C480    1.087   1_455 S
C399   C406    1.400   .     A
C399   Cl411   1.765   .     S
C399   C653    1.374   1_545 S
C400   C405    1.400   .     A
C400   Cl412   1.765   .     S
C400   C528    1.374   .     S
C401   C405    1.394   .     A
C401   H403    1.085   .     S
C401   C525    1.374   .     S
C402   H404    1.085   .     S
C402   C406    1.394   .     A
C402   C652    1.374   1_545 S
C407   N413    1.427   .     S
C408   N416    1.427   .     S
C408   C788    1.424   .     S
C409   Cl419   1.759   .     S
C409   C785    1.424   .     S
C410   Cl420   1.759   .     S
N413   O414    1.301   .     A
N413   O415    1.300   .     A
N416   O418    1.300   .     A
N416   O417    1.301   .     A
O421   C425    1.286   .     A
O421   Zn433   1.981   .     S
O422   Zn434   1.981   .     S
O422   C426    1.286   .     A
O423   Zn434   1.982   .     S
O423   C425    1.285   .     A
O424   C426    1.285   .     A
O424   Zn433   1.982   .     S
C425   C448    1.405   .     S
C426   C447    1.405   .     S
O427   C431    1.284   .     A
O427   Zn433   1.970   .     S
O428   C432    1.284   .     A
O428   Zn434   1.970   .     S
O429   Zn434   1.978   .     S
O429   C431    1.286   .     A
O430   C432    1.286   .     A
O430   Zn433   1.978   .     S
C431   C437    1.402   .     S
C432   C438    1.402   .     S
Zn433  N435    2.026   .     S
Zn434  N436    2.026   .     S
N435   C451    1.371   .     A
N435   C450    1.371   .     A
N436   C452    1.371   .     A
N436   C449    1.371   .     A
C438   C479    1.329   .     S
C438   H482    1.087   .     S
H439   C479    1.087   .     S
C441   C448    1.400   .     A
C441   Cl453   1.765   .     S
C441   C695    1.374   1_545 S
C442   C447    1.400   .     A
C442   Cl454   1.765   .     S
C442   C570    1.374   .     S
C443   C447    1.394   .     A
C443   H445    1.085   .     S
C443   C567    1.374   .     S
C444   H446    1.085   .     S
C444   C448    1.394   .     A
C444   C694    1.374   1_545 S
C449   N455    1.427   .     S
C450   N458    1.427   .     S
C450   C830    1.424   .     S
C451   Cl461   1.759   .     S
C451   C827    1.424   .     S
C452   Cl462   1.759   .     S
N455   O456    1.301   .     A
N455   O457    1.300   .     A
N458   O460    1.300   .     A
N458   O459    1.301   .     A
O463   C467    1.286   .     A
O463   Zn475   1.981   .     S
O464   Zn476   1.981   .     S
O464   C468    1.286   .     A
O465   Zn476   1.982   .     S
O465   C467    1.285   .     A
O466   C468    1.285   .     A
O466   Zn475   1.982   .     S
C467   C490    1.405   .     S
C468   C489    1.405   .     S
O469   C473    1.284   .     A
O469   Zn475   1.970   .     S
O470   C474    1.284   .     A
O470   Zn476   1.970   .     S
O471   Zn476   1.978   .     S
O471   C473    1.286   .     A
O472   C474    1.286   .     A
O472   Zn475   1.978   .     S
C473   C479    1.402   .     S
C474   C480    1.402   .     S
Zn475  N477    2.026   .     S
Zn476  N478    2.026   .     S
N477   C493    1.371   .     A
N477   C492    1.371   .     A
N478   C494    1.371   .     A
N478   C491    1.371   .     A
C480   C395    1.329   1_655 S
C480   H398    1.087   1_655 S
H481   C395    1.087   1_655 S
C483   C490    1.400   .     A
C483   Cl495   1.765   .     S
C483   C737    1.374   1_545 S
C484   C489    1.400   .     A
C484   Cl496   1.765   .     S
C484   C612    1.374   .     S
C485   C489    1.394   .     A
C485   H487    1.085   .     S
C485   C609    1.374   .     S
C486   H488    1.085   .     S
C486   C490    1.394   .     A
C486   C736    1.374   1_545 S
C491   N497    1.427   .     S
C492   N500    1.427   .     S
C492   C872    1.424   .     S
C493   Cl503   1.759   .     S
C493   C869    1.424   .     S
C494   Cl504   1.759   .     S
N497   O498    1.301   .     A
N497   O499    1.300   .     A
N500   O502    1.300   .     A
N500   O501    1.301   .     A
O505   C509    1.286   .     A
O505   Zn517   1.981   .     S
O506   Zn518   1.981   .     S
O506   C510    1.286   .     A
O507   Zn518   1.982   .     S
O507   C509    1.285   .     A
O508   C510    1.285   .     A
O508   Zn517   1.982   .     S
C509   C532    1.405   .     S
C510   C531    1.405   .     S
O511   C515    1.284   .     A
O511   Zn517   1.970   .     S
O512   C516    1.284   .     A
O512   Zn518   1.970   .     S
O513   Zn518   1.978   .     S
O513   C515    1.286   .     A
O514   C516    1.286   .     A
O514   Zn517   1.978   .     S
C515   C521    1.402   .     S
C516   C522    1.402   .     S
Zn517  N519    2.026   .     S
Zn518  N520    2.026   .     S
N519   C535    1.371   .     A
N519   C534    1.371   .     A
N520   C536    1.371   .     A
N520   C533    1.371   .     A
C521   C606    1.329   1_455 S
C521   H607    1.087   1_455 S
C522   C563    1.329   .     S
C522   H566    1.087   .     S
H523   C563    1.087   .     S
H524   C606    1.087   1_455 S
C525   C532    1.400   .     A
C525   Cl537   1.765   .     S
C526   C531    1.400   .     A
C526   Cl538   1.765   .     S
C526   C654    1.374   .     S
C527   C531    1.394   .     A
C527   H529    1.085   .     S
C527   C651    1.374   .     S
C528   H530    1.085   .     S
C528   C532    1.394   .     A
C533   N539    1.427   .     S
C534   N542    1.427   .     S
C534   C914    1.424   .     S
C535   Cl545   1.759   .     S
C535   C911    1.424   .     S
C536   Cl546   1.759   .     S
N539   O540    1.301   .     A
N539   O541    1.300   .     A
N542   O544    1.300   .     A
N542   O543    1.301   .     A
O547   C551    1.286   .     A
O547   Zn559   1.981   .     S
O548   Zn560   1.981   .     S
O548   C552    1.286   .     A
O549   Zn560   1.982   .     S
O549   C551    1.285   .     A
O550   C552    1.285   .     A
O550   Zn559   1.982   .     S
C551   C574    1.405   .     S
C552   C573    1.405   .     S
O553   C557    1.284   .     A
O553   Zn559   1.970   .     S
O554   C558    1.284   .     A
O554   Zn560   1.970   .     S
O555   Zn560   1.978   .     S
O555   C557    1.286   .     A
O556   C558    1.286   .     A
O556   Zn559   1.978   .     S
C557   C563    1.402   .     S
C558   C564    1.402   .     S
Zn559  N561    2.026   .     S
Zn560  N562    2.026   .     S
N561   C577    1.371   .     A
N561   C576    1.371   .     A
N562   C578    1.371   .     A
N562   C575    1.371   .     A
C564   C605    1.329   .     S
C564   H608    1.087   .     S
H565   C605    1.087   .     S
C567   C574    1.400   .     A
C567   Cl579   1.765   .     S
C568   C573    1.400   .     A
C568   Cl580   1.765   .     S
C568   C696    1.374   .     S
C569   C573    1.394   .     A
C569   H571    1.085   .     S
C569   C693    1.374   .     S
C570   H572    1.085   .     S
C570   C574    1.394   .     A
C575   N581    1.427   .     S
C576   N584    1.427   .     S
C576   C956    1.424   .     S
C577   Cl587   1.759   .     S
C577   C953    1.424   .     S
C578   Cl588   1.759   .     S
N581   O582    1.301   .     A
N581   O583    1.300   .     A
N584   O586    1.300   .     A
N584   O585    1.301   .     A
O589   C593    1.286   .     A
O589   Zn601   1.981   .     S
O590   Zn602   1.981   .     S
O590   C594    1.286   .     A
O591   Zn602   1.982   .     S
O591   C593    1.285   .     A
O592   C594    1.285   .     A
O592   Zn601   1.982   .     S
C593   C616    1.405   .     S
C594   C615    1.405   .     S
O595   C599    1.284   .     A
O595   Zn601   1.970   .     S
O596   C600    1.284   .     A
O596   Zn602   1.970   .     S
O597   Zn602   1.978   .     S
O597   C599    1.286   .     A
O598   C600    1.286   .     A
O598   Zn601   1.978   .     S
C599   C605    1.402   .     S
C600   C606    1.402   .     S
Zn601  N603    2.026   .     S
Zn602  N604    2.026   .     S
N603   C619    1.371   .     A
N603   C618    1.371   .     A
N604   C620    1.371   .     A
N604   C617    1.371   .     A
C606   C521    1.329   1_655 S
C606   H524    1.087   1_655 S
H607   C521    1.087   1_655 S
C609   C616    1.400   .     A
C609   Cl621   1.765   .     S
C610   C615    1.400   .     A
C610   Cl622   1.765   .     S
C610   C738    1.374   .     S
C611   C615    1.394   .     A
C611   H613    1.085   .     S
C611   C735    1.374   .     S
C612   H614    1.085   .     S
C612   C616    1.394   .     A
C617   N623    1.427   .     S
C618   N626    1.427   .     S
C618   C998    1.424   .     S
C619   Cl629   1.759   .     S
C619   C995    1.424   .     S
C620   Cl630   1.759   .     S
N623   O624    1.301   .     A
N623   O625    1.300   .     A
N626   O628    1.300   .     A
N626   O627    1.301   .     A
O631   C635    1.286   .     A
O631   Zn643   1.981   .     S
O632   Zn644   1.981   .     S
O632   C636    1.286   .     A
O633   Zn644   1.982   .     S
O633   C635    1.285   .     A
O634   C636    1.285   .     A
O634   Zn643   1.982   .     S
C635   C658    1.405   .     S
C636   C657    1.405   .     S
O637   C641    1.284   .     A
O637   Zn643   1.970   .     S
O638   C642    1.284   .     A
O638   Zn644   1.970   .     S
O639   Zn644   1.978   .     S
O639   C641    1.286   .     A
O640   C642    1.286   .     A
O640   Zn643   1.978   .     S
C641   C647    1.402   .     S
C642   C648    1.402   .     S
Zn643  N645    2.026   .     S
Zn644  N646    2.026   .     S
N645   C661    1.371   .     A
N645   C660    1.371   .     A
N646   C662    1.371   .     A
N646   C659    1.371   .     A
C647   C732    1.329   1_455 S
C647   H733    1.087   1_455 S
C648   C689    1.329   .     S
C648   H692    1.087   .     S
H649   C689    1.087   .     S
H650   C732    1.087   1_455 S
C651   C658    1.400   .     A
C651   Cl663   1.765   .     S
C652   C657    1.400   .     A
C652   Cl664   1.765   .     S
C652   C402    1.374   1_565 S
C653   C657    1.394   .     A
C653   H655    1.085   .     S
C653   C399    1.374   1_565 S
C654   H656    1.085   .     S
C654   C658    1.394   .     A
C659   N665    1.427   .     S
C660   N668    1.427   .     S
C660   C1040   1.424   .     S
C661   Cl671   1.759   .     S
C661   C1037   1.424   .     S
C662   Cl672   1.759   .     S
N665   O666    1.301   .     A
N665   O667    1.300   .     A
N668   O670    1.300   .     A
N668   O669    1.301   .     A
O673   C677    1.286   .     A
O673   Zn685   1.981   .     S
O674   Zn686   1.981   .     S
O674   C678    1.286   .     A
O675   Zn686   1.982   .     S
O675   C677    1.285   .     A
O676   C678    1.285   .     A
O676   Zn685   1.982   .     S
C677   C700    1.405   .     S
C678   C699    1.405   .     S
O679   C683    1.284   .     A
O679   Zn685   1.970   .     S
O680   C684    1.284   .     A
O680   Zn686   1.970   .     S
O681   Zn686   1.978   .     S
O681   C683    1.286   .     A
O682   C684    1.286   .     A
O682   Zn685   1.978   .     S
C683   C689    1.402   .     S
C684   C690    1.402   .     S
Zn685  N687    2.026   .     S
Zn686  N688    2.026   .     S
N687   C703    1.371   .     A
N687   C702    1.371   .     A
N688   C704    1.371   .     A
N688   C701    1.371   .     A
C690   C731    1.329   .     S
C690   H734    1.087   .     S
H691   C731    1.087   .     S
C693   C700    1.400   .     A
C693   Cl705   1.765   .     S
C694   C699    1.400   .     A
C694   Cl706   1.765   .     S
C694   C444    1.374   1_565 S
C695   C699    1.394   .     A
C695   H697    1.085   .     S
C695   C441    1.374   1_565 S
C696   H698    1.085   .     S
C696   C700    1.394   .     A
C701   N707    1.427   .     S
C702   N710    1.427   .     S
C702   C1082   1.424   .     S
C703   Cl713   1.759   .     S
C703   C1079   1.424   .     S
C704   Cl714   1.759   .     S
N707   O708    1.301   .     A
N707   O709    1.300   .     A
N710   O712    1.300   .     A
N710   O711    1.301   .     A
O715   C719    1.286   .     A
O715   Zn727   1.981   .     S
O716   Zn728   1.981   .     S
O716   C720    1.286   .     A
O717   Zn728   1.982   .     S
O717   C719    1.285   .     A
O718   C720    1.285   .     A
O718   Zn727   1.982   .     S
C719   C742    1.405   .     S
C720   C741    1.405   .     S
O721   C725    1.284   .     A
O721   Zn727   1.970   .     S
O722   C726    1.284   .     A
O722   Zn728   1.970   .     S
O723   Zn728   1.978   .     S
O723   C725    1.286   .     A
O724   C726    1.286   .     A
O724   Zn727   1.978   .     S
C725   C731    1.402   .     S
C726   C732    1.402   .     S
Zn727  N729    2.026   .     S
Zn728  N730    2.026   .     S
N729   C745    1.371   .     A
N729   C744    1.371   .     A
N730   C746    1.371   .     A
N730   C743    1.371   .     A
C732   C647    1.329   1_655 S
C732   H650    1.087   1_655 S
H733   C647    1.087   1_655 S
C735   C742    1.400   .     A
C735   Cl747   1.765   .     S
C736   C741    1.400   .     A
C736   Cl748   1.765   .     S
C736   C486    1.374   1_565 S
C737   C741    1.394   .     A
C737   H739    1.085   .     S
C737   C483    1.374   1_565 S
C738   H740    1.085   .     S
C738   C742    1.394   .     A
C743   N749    1.427   .     S
C744   N752    1.427   .     S
C744   C1124   1.424   .     S
C745   Cl755   1.759   .     S
C745   C1121   1.424   .     S
C746   Cl756   1.759   .     S
N749   O750    1.301   .     A
N749   O751    1.300   .     A
N752   O754    1.300   .     A
N752   O753    1.301   .     A
O757   C761    1.286   .     A
O757   Zn769   1.981   .     S
O758   Zn770   1.981   .     S
O758   C762    1.286   .     A
O759   Zn770   1.982   .     S
O759   C761    1.285   .     A
O760   C762    1.285   .     A
O760   Zn769   1.982   .     S
C761   C784    1.405   .     S
C762   C783    1.405   .     S
O763   C767    1.284   .     A
O763   Zn769   1.970   .     S
O764   C768    1.284   .     A
O764   Zn770   1.970   .     S
O765   Zn770   1.978   .     S
O765   C767    1.286   .     A
O766   C768    1.286   .     A
O766   Zn769   1.978   .     S
C767   C773    1.402   .     S
C768   C774    1.402   .     S
Zn769  N771    2.026   .     S
Zn770  N772    2.026   .     S
N771   C787    1.371   .     A
N771   C786    1.371   .     A
N772   C788    1.371   .     A
N772   C785    1.371   .     A
C773   C858    1.329   1_455 S
C773   H859    1.087   1_455 S
C774   C815    1.329   .     S
C774   H818    1.087   .     S
H775   C815    1.087   .     S
H776   C858    1.087   1_455 S
C777   C784    1.400   .     A
C777   Cl789   1.765   .     S
C777   C1031   1.374   1_545 S
C778   C783    1.400   .     A
C778   Cl790   1.765   .     S
C778   C906    1.374   .     S
C779   C783    1.394   .     A
C779   H781    1.085   .     S
C779   C903    1.374   .     S
C780   H782    1.085   .     S
C780   C784    1.394   .     A
C780   C1030   1.374   1_545 S
C785   N791    1.427   .     S
C786   N794    1.427   .     S
C786   C32     1.424   1_556 S
C787   Cl797   1.759   .     S
C787   C29     1.424   1_556 S
C788   Cl798   1.759   .     S
N791   O792    1.301   .     A
N791   O793    1.300   .     A
N794   O796    1.300   .     A
N794   O795    1.301   .     A
O799   C803    1.286   .     A
O799   Zn811   1.981   .     S
O800   Zn812   1.981   .     S
O800   C804    1.286   .     A
O801   Zn812   1.982   .     S
O801   C803    1.285   .     A
O802   C804    1.285   .     A
O802   Zn811   1.982   .     S
C803   C826    1.405   .     S
C804   C825    1.405   .     S
O805   C809    1.284   .     A
O805   Zn811   1.970   .     S
O806   C810    1.284   .     A
O806   Zn812   1.970   .     S
O807   Zn812   1.978   .     S
O807   C809    1.286   .     A
O808   C810    1.286   .     A
O808   Zn811   1.978   .     S
C809   C815    1.402   .     S
C810   C816    1.402   .     S
Zn811  N813    2.026   .     S
Zn812  N814    2.026   .     S
N813   C829    1.371   .     A
N813   C828    1.371   .     A
N814   C830    1.371   .     A
N814   C827    1.371   .     A
C816   C857    1.329   .     S
C816   H860    1.087   .     S
H817   C857    1.087   .     S
C819   C826    1.400   .     A
C819   Cl831   1.765   .     S
C819   C1073   1.374   1_545 S
C820   C825    1.400   .     A
C820   Cl832   1.765   .     S
C820   C948    1.374   .     S
C821   C825    1.394   .     A
C821   H823    1.085   .     S
C821   C945    1.374   .     S
C822   H824    1.085   .     S
C822   C826    1.394   .     A
C822   C1072   1.374   1_545 S
C827   N833    1.427   .     S
C828   N836    1.427   .     S
C828   C74     1.424   1_556 S
C829   Cl839   1.759   .     S
C829   C71     1.424   1_556 S
C830   Cl840   1.759   .     S
N833   O834    1.301   .     A
N833   O835    1.300   .     A
N836   O838    1.300   .     A
N836   O837    1.301   .     A
O841   C845    1.286   .     A
O841   Zn853   1.981   .     S
O842   Zn854   1.981   .     S
O842   C846    1.286   .     A
O843   Zn854   1.982   .     S
O843   C845    1.285   .     A
O844   C846    1.285   .     A
O844   Zn853   1.982   .     S
C845   C868    1.405   .     S
C846   C867    1.405   .     S
O847   C851    1.284   .     A
O847   Zn853   1.970   .     S
O848   C852    1.284   .     A
O848   Zn854   1.970   .     S
O849   Zn854   1.978   .     S
O849   C851    1.286   .     A
O850   C852    1.286   .     A
O850   Zn853   1.978   .     S
C851   C857    1.402   .     S
C852   C858    1.402   .     S
Zn853  N855    2.026   .     S
Zn854  N856    2.026   .     S
N855   C871    1.371   .     A
N855   C870    1.371   .     A
N856   C872    1.371   .     A
N856   C869    1.371   .     A
C858   C773    1.329   1_655 S
C858   H776    1.087   1_655 S
H859   C773    1.087   1_655 S
C861   C868    1.400   .     A
C861   Cl873   1.765   .     S
C861   C1115   1.374   1_545 S
C862   C867    1.400   .     A
C862   Cl874   1.765   .     S
C862   C990    1.374   .     S
C863   C867    1.394   .     A
C863   H865    1.085   .     S
C863   C987    1.374   .     S
C864   H866    1.085   .     S
C864   C868    1.394   .     A
C864   C1114   1.374   1_545 S
C869   N875    1.427   .     S
C870   N878    1.427   .     S
C870   C116    1.424   1_556 S
C871   Cl881   1.759   .     S
C871   C113    1.424   1_556 S
C872   Cl882   1.759   .     S
N875   O876    1.301   .     A
N875   O877    1.300   .     A
N878   O880    1.300   .     A
N878   O879    1.301   .     A
O883   C887    1.286   .     A
O883   Zn895   1.981   .     S
O884   Zn896   1.981   .     S
O884   C888    1.286   .     A
O885   Zn896   1.982   .     S
O885   C887    1.285   .     A
O886   C888    1.285   .     A
O886   Zn895   1.982   .     S
C887   C910    1.405   .     S
C888   C909    1.405   .     S
O889   C893    1.284   .     A
O889   Zn895   1.970   .     S
O890   C894    1.284   .     A
O890   Zn896   1.970   .     S
O891   Zn896   1.978   .     S
O891   C893    1.286   .     A
O892   C894    1.286   .     A
O892   Zn895   1.978   .     S
C893   C899    1.402   .     S
C894   C900    1.402   .     S
Zn895  N897    2.026   .     S
Zn896  N898    2.026   .     S
N897   C913    1.371   .     A
N897   C912    1.371   .     A
N898   C914    1.371   .     A
N898   C911    1.371   .     A
C899   C984    1.329   1_455 S
C899   H985    1.087   1_455 S
C900   C941    1.329   .     S
C900   H944    1.087   .     S
H901   C941    1.087   .     S
H902   C984    1.087   1_455 S
C903   C910    1.400   .     A
C903   Cl915   1.765   .     S
C904   C909    1.400   .     A
C904   Cl916   1.765   .     S
C904   C1032   1.374   .     S
C905   C909    1.394   .     A
C905   H907    1.085   .     S
C905   C1029   1.374   .     S
C906   H908    1.085   .     S
C906   C910    1.394   .     A
C911   N917    1.427   .     S
C912   N920    1.427   .     S
C912   C158    1.424   1_556 S
C913   Cl923   1.759   .     S
C913   C155    1.424   1_556 S
C914   Cl924   1.759   .     S
N917   O918    1.301   .     A
N917   O919    1.300   .     A
N920   O922    1.300   .     A
N920   O921    1.301   .     A
O925   C929    1.286   .     A
O925   Zn937   1.981   .     S
O926   Zn938   1.981   .     S
O926   C930    1.286   .     A
O927   Zn938   1.982   .     S
O927   C929    1.285   .     A
O928   C930    1.285   .     A
O928   Zn937   1.982   .     S
C929   C952    1.405   .     S
C930   C951    1.405   .     S
O931   C935    1.284   .     A
O931   Zn937   1.970   .     S
O932   C936    1.284   .     A
O932   Zn938   1.970   .     S
O933   Zn938   1.978   .     S
O933   C935    1.286   .     A
O934   C936    1.286   .     A
O934   Zn937   1.978   .     S
C935   C941    1.402   .     S
C936   C942    1.402   .     S
Zn937  N939    2.026   .     S
Zn938  N940    2.026   .     S
N939   C955    1.371   .     A
N939   C954    1.371   .     A
N940   C956    1.371   .     A
N940   C953    1.371   .     A
C942   C983    1.329   .     S
C942   H986    1.087   .     S
H943   C983    1.087   .     S
C945   C952    1.400   .     A
C945   Cl957   1.765   .     S
C946   C951    1.400   .     A
C946   Cl958   1.765   .     S
C946   C1074   1.374   .     S
C947   C951    1.394   .     A
C947   H949    1.085   .     S
C947   C1071   1.374   .     S
C948   H950    1.085   .     S
C948   C952    1.394   .     A
C953   N959    1.427   .     S
C954   N962    1.427   .     S
C954   C200    1.424   1_556 S
C955   Cl965   1.759   .     S
C955   C197    1.424   1_556 S
C956   Cl966   1.759   .     S
N959   O960    1.301   .     A
N959   O961    1.300   .     A
N962   O964    1.300   .     A
N962   O963    1.301   .     A
O967   C971    1.286   .     A
O967   Zn979   1.981   .     S
O968   Zn980   1.981   .     S
O968   C972    1.286   .     A
O969   Zn980   1.982   .     S
O969   C971    1.285   .     A
O970   C972    1.285   .     A
O970   Zn979   1.982   .     S
C971   C994    1.405   .     S
C972   C993    1.405   .     S
O973   C977    1.284   .     A
O973   Zn979   1.970   .     S
O974   C978    1.284   .     A
O974   Zn980   1.970   .     S
O975   Zn980   1.978   .     S
O975   C977    1.286   .     A
O976   C978    1.286   .     A
O976   Zn979   1.978   .     S
C977   C983    1.402   .     S
C978   C984    1.402   .     S
Zn979  N981    2.026   .     S
Zn980  N982    2.026   .     S
N981   C997    1.371   .     A
N981   C996    1.371   .     A
N982   C998    1.371   .     A
N982   C995    1.371   .     A
C984   C899    1.329   1_655 S
C984   H902    1.087   1_655 S
H985   C899    1.087   1_655 S
C987   C994    1.400   .     A
C987   Cl999   1.765   .     S
C988   C993    1.400   .     A
C988   Cl1000  1.765   .     S
C988   C1116   1.374   .     S
C989   C993    1.394   .     A
C989   H991    1.085   .     S
C989   C1113   1.374   .     S
C990   H992    1.085   .     S
C990   C994    1.394   .     A
C995   N1001   1.427   .     S
C996   N1004   1.427   .     S
C996   C242    1.424   1_556 S
C997   Cl1007  1.759   .     S
C997   C239    1.424   1_556 S
C998   Cl1008  1.759   .     S
N1001  O1002   1.301   .     A
N1001  O1003   1.300   .     A
N1004  O1006   1.300   .     A
N1004  O1005   1.301   .     A
O1009  C1013   1.286   .     A
O1009  Zn1021  1.981   .     S
O1010  Zn1022  1.981   .     S
O1010  C1014   1.286   .     A
O1011  Zn1022  1.982   .     S
O1011  C1013   1.285   .     A
O1012  C1014   1.285   .     A
O1012  Zn1021  1.982   .     S
C1013  C1036   1.405   .     S
C1014  C1035   1.405   .     S
O1015  C1019   1.284   .     A
O1015  Zn1021  1.970   .     S
O1016  C1020   1.284   .     A
O1016  Zn1022  1.970   .     S
O1017  Zn1022  1.978   .     S
O1017  C1019   1.286   .     A
O1018  C1020   1.286   .     A
O1018  Zn1021  1.978   .     S
C1019  C1025   1.402   .     S
C1020  C1026   1.402   .     S
Zn1021 N1023   2.026   .     S
Zn1022 N1024   2.026   .     S
N1023  C1039   1.371   .     A
N1023  C1038   1.371   .     A
N1024  C1040   1.371   .     A
N1024  C1037   1.371   .     A
C1025  C1110   1.329   1_455 S
C1025  H1111   1.087   1_455 S
C1026  C1067   1.329   .     S
C1026  H1070   1.087   .     S
H1027  C1067   1.087   .     S
H1028  C1110   1.087   1_455 S
C1029  C1036   1.400   .     A
C1029  Cl1041  1.765   .     S
C1030  C1035   1.400   .     A
C1030  Cl1042  1.765   .     S
C1030  C780    1.374   1_565 S
C1031  C1035   1.394   .     A
C1031  H1033   1.085   .     S
C1031  C777    1.374   1_565 S
C1032  H1034   1.085   .     S
C1032  C1036   1.394   .     A
C1037  N1043   1.427   .     S
C1038  N1046   1.427   .     S
C1038  C284    1.424   1_556 S
C1039  Cl1049  1.759   .     S
C1039  C281    1.424   1_556 S
C1040  Cl1050  1.759   .     S
N1043  O1044   1.301   .     A
N1043  O1045   1.300   .     A
N1046  O1048   1.300   .     A
N1046  O1047   1.301   .     A
O1051  C1055   1.286   .     A
O1051  Zn1063  1.981   .     S
O1052  Zn1064  1.981   .     S
O1052  C1056   1.286   .     A
O1053  Zn1064  1.982   .     S
O1053  C1055   1.285   .     A
O1054  C1056   1.285   .     A
O1054  Zn1063  1.982   .     S
C1055  C1078   1.405   .     S
C1056  C1077   1.405   .     S
O1057  C1061   1.284   .     A
O1057  Zn1063  1.970   .     S
O1058  C1062   1.284   .     A
O1058  Zn1064  1.970   .     S
O1059  Zn1064  1.978   .     S
O1059  C1061   1.286   .     A
O1060  C1062   1.286   .     A
O1060  Zn1063  1.978   .     S
C1061  C1067   1.402   .     S
C1062  C1068   1.402   .     S
Zn1063 N1065   2.026   .     S
Zn1064 N1066   2.026   .     S
N1065  C1081   1.371   .     A
N1065  C1080   1.371   .     A
N1066  C1082   1.371   .     A
N1066  C1079   1.371   .     A
C1068  C1109   1.329   .     S
C1068  H1112   1.087   .     S
H1069  C1109   1.087   .     S
C1071  C1078   1.400   .     A
C1071  Cl1083  1.765   .     S
C1072  C1077   1.400   .     A
C1072  Cl1084  1.765   .     S
C1072  C822    1.374   1_565 S
C1073  C1077   1.394   .     A
C1073  H1075   1.085   .     S
C1073  C819    1.374   1_565 S
C1074  H1076   1.085   .     S
C1074  C1078   1.394   .     A
C1079  N1085   1.427   .     S
C1080  N1088   1.427   .     S
C1080  C326    1.424   1_556 S
C1081  Cl1091  1.759   .     S
C1081  C323    1.424   1_556 S
C1082  Cl1092  1.759   .     S
N1085  O1086   1.301   .     A
N1085  O1087   1.300   .     A
N1088  O1090   1.300   .     A
N1088  O1089   1.301   .     A
O1093  C1097   1.286   .     A
O1093  Zn1105  1.981   .     S
O1094  Zn1106  1.981   .     S
O1094  C1098   1.286   .     A
O1095  Zn1106  1.982   .     S
O1095  C1097   1.285   .     A
O1096  C1098   1.285   .     A
O1096  Zn1105  1.982   .     S
C1097  C1120   1.405   .     S
C1098  C1119   1.405   .     S
O1099  C1103   1.284   .     A
O1099  Zn1105  1.970   .     S
O1100  C1104   1.284   .     A
O1100  Zn1106  1.970   .     S
O1101  Zn1106  1.978   .     S
O1101  C1103   1.286   .     A
O1102  C1104   1.286   .     A
O1102  Zn1105  1.978   .     S
C1103  C1109   1.402   .     S
C1104  C1110   1.402   .     S
Zn1105 N1107   2.026   .     S
Zn1106 N1108   2.026   .     S
N1107  C1123   1.371   .     A
N1107  C1122   1.371   .     A
N1108  C1124   1.371   .     A
N1108  C1121   1.371   .     A
C1110  C1025   1.329   1_655 S
C1110  H1028   1.087   1_655 S
H1111  C1025   1.087   1_655 S
C1113  C1120   1.400   .     A
C1113  Cl1125  1.765   .     S
C1114  C1119   1.400   .     A
C1114  Cl1126  1.765   .     S
C1114  C864    1.374   1_565 S
C1115  C1119   1.394   .     A
C1115  H1117   1.085   .     S
C1115  C861    1.374   1_565 S
C1116  H1118   1.085   .     S
C1116  C1120   1.394   .     A
C1121  N1127   1.427   .     S
C1122  N1130   1.427   .     S
C1122  C368    1.424   1_556 S
C1123  Cl1133  1.759   .     S
C1123  C365    1.424   1_556 S
C1124  Cl1134  1.759   .     S
N1127  O1128   1.301   .     A
N1127  O1129   1.300   .     A
N1130  O1132   1.300   .     A
N1130  O1131   1.301   .     A
