data_str_m2_o10_o17_pcu_sym.6
_audit_creation_date              2020-01-03
_audit_creation_method            'Materials Studio'
_symmetry_space_group_name_H-M    'P1'
_symmetry_Int_Tables_number       1
_symmetry_cell_setting            triclinic
loop_
_symmetry_equiv_pos_as_xyz
  x,y,z
_cell_length_a                    29.9260
_cell_length_b                    26.0504
_cell_length_c                    22.5308
_cell_angle_alpha                 103.3943
_cell_angle_beta                  94.0227
_cell_angle_gamma                 93.3257
loop_
_atom_site_label
_atom_site_type_symbol
_atom_site_fract_x
_atom_site_fract_y
_atom_site_fract_z
_atom_site_U_iso_or_equiv
_atom_site_adp_type
_atom_site_occupancy
C1     C     0.24832   0.06658   0.15102   0.00000  Uiso   1.00
C2     C     0.09022   0.11667   0.15729   0.00000  Uiso   1.00
C3     C     0.38346   0.16824   0.16425   0.00000  Uiso   1.00
C4     C     0.11654   0.16510   0.16907   0.00000  Uiso   1.00
C5     C     0.40301   0.12003   0.15269   0.00000  Uiso   1.00
C6     C     0.09699   0.21330   0.18060   0.00000  Uiso   1.00
C7     C     0.44944   0.11907   0.15344   0.00000  Uiso   1.00
C8     C     0.05056   0.21426   0.17980   0.00000  Uiso   1.00
C9     C     0.47652   0.16717   0.16592   0.00000  Uiso   1.00
C10    C     0.02348   0.16616   0.16731   0.00000  Uiso   1.00
C11    C     0.45671   0.21623   0.17708   0.00000  Uiso   1.00
C12    C     0.25168   0.26675   0.18232   0.00000  Uiso   1.00
C13    C     0.04328   0.11711   0.15616   0.00000  Uiso   1.00
C14    C     0.46915   0.07073   0.14234   0.00000  Uiso   1.00
C15    C     0.03084   0.26261   0.19089   0.00000  Uiso   1.00
C16    C     0.19100   0.07921   0.32130   0.00000  Uiso   1.00
C17    C     0.30901   0.25412   0.01203   0.00000  Uiso   1.00
C18    C     0.01565   0.06969   0.14368   0.00000  Uiso   1.00
C19    C     0.48435   0.26365   0.18954   0.00000  Uiso   1.00
C20    C     0.24660   0.01041   0.14253   0.00000  Uiso   1.00
C21    C     0.25340   0.32293   0.19080   0.00000  Uiso   1.00
C22    C     0.16466   0.16600   0.16741   0.00000  Uiso   1.00
C23    C     0.33534   0.16733   0.16593   0.00000  Uiso   1.00
C24    C     0.40977   0.21666   0.17599   0.00000  Uiso   1.00
Cu25   Cu    0.25501   0.17246   0.22813   0.00000  Uiso   1.00
Cu26   Cu    0.24500   0.16087   0.10521   0.00000  Uiso   1.00
H27    H     0.38190   0.08329   0.14380   0.00000  Uiso   1.00
H28    H     0.36659   0.26569   0.14907   0.00000  Uiso   1.00
H29    H     0.12905   0.06411   0.10820   0.00000  Uiso   1.00
H30    H     0.13327   0.06760   0.18440   0.00000  Uiso   1.00
H31    H     0.17436   0.08156   0.03069   0.00000  Uiso   1.00
H32    H     0.22178   0.05725   0.32145   0.00000  Uiso   1.00
H33    H     0.16728   0.05597   0.28328   0.00000  Uiso   1.00
H34    H     0.27823   0.27609   0.01190   0.00000  Uiso   1.00
H35    H     0.32564   0.25177   0.30264   0.00000  Uiso   1.00
H36    H     0.33274   0.27735   0.05005   0.00000  Uiso   1.00
H37    H     0.11810   0.25005   0.18950   0.00000  Uiso   1.00
H38    H     0.44855   0.03365   0.13257   0.00000  Uiso   1.00
H39    H     0.05145   0.29968   0.20067   0.00000  Uiso   1.00
H40    H     0.02975   0.03158   0.13466   0.00000  Uiso   1.00
H41    H     0.47024   0.30175   0.19856   0.00000  Uiso   1.00
H42    H     0.23931   0.31942   0.09633   0.00000  Uiso   1.00
H43    H     0.26069   0.01391   0.23701   0.00000  Uiso   1.00
H44    H     0.37111   0.26929   0.22528   0.00000  Uiso   1.00
N45    N     0.23745   0.15214   0.01284   0.00000  Uiso   1.00
N46    N     0.26256   0.18119   0.32049   0.00000  Uiso   1.00
N47    N     0.38916   0.26606   0.18674   0.00000  Uiso   1.00
N48    N     0.11083   0.06727   0.14659   0.00000  Uiso   1.00
O49    O     0.25326   0.09538   0.20659   0.00000  Uiso   1.00
O50    O     0.30007   0.20354   0.02226   0.00000  Uiso   1.00
O51    O     0.24675   0.23796   0.12674   0.00000  Uiso   1.00
O52    O     0.24480   0.08559   0.10279   0.00000  Uiso   1.00
O53    O     0.25520   0.24774   0.23055   0.00000  Uiso   1.00
O54    O     0.18936   0.17155   0.21857   0.00000  Uiso   1.00
O55    O     0.31065   0.16179   0.11476   0.00000  Uiso   1.00
O56    O     0.18090   0.16176   0.11477   0.00000  Uiso   1.00
O57    O     0.31910   0.17157   0.21857   0.00000  Uiso   1.00
O58    O     0.19993   0.12979   0.31107   0.00000  Uiso   1.00
C59    C     0.74832   0.06658   0.15102   0.00000  Uiso   1.00
C60    C     0.59022   0.11667   0.15729   0.00000  Uiso   1.00
C61    C     0.88346   0.16824   0.16425   0.00000  Uiso   1.00
C62    C     0.61654   0.16510   0.16907   0.00000  Uiso   1.00
C63    C     0.90301   0.12003   0.15269   0.00000  Uiso   1.00
C64    C     0.59699   0.21330   0.18060   0.00000  Uiso   1.00
C65    C     0.94944   0.11907   0.15344   0.00000  Uiso   1.00
C66    C     0.55056   0.21426   0.17980   0.00000  Uiso   1.00
C67    C     0.97652   0.16717   0.16592   0.00000  Uiso   1.00
C68    C     0.52348   0.16616   0.16731   0.00000  Uiso   1.00
C69    C     0.95671   0.21623   0.17708   0.00000  Uiso   1.00
C70    C     0.75168   0.26675   0.18232   0.00000  Uiso   1.00
C71    C     0.54328   0.11711   0.15616   0.00000  Uiso   1.00
C72    C     0.96915   0.07073   0.14234   0.00000  Uiso   1.00
C73    C     0.53084   0.26261   0.19089   0.00000  Uiso   1.00
C74    C     0.69100   0.07921   0.32130   0.00000  Uiso   1.00
C75    C     0.80901   0.25412   0.01203   0.00000  Uiso   1.00
C76    C     0.51565   0.06969   0.14368   0.00000  Uiso   1.00
C77    C     0.98435   0.26365   0.18954   0.00000  Uiso   1.00
C78    C     0.74660   0.01041   0.14253   0.00000  Uiso   1.00
C79    C     0.75340   0.32293   0.19080   0.00000  Uiso   1.00
C80    C     0.66466   0.16600   0.16741   0.00000  Uiso   1.00
C81    C     0.83534   0.16733   0.16593   0.00000  Uiso   1.00
C82    C     0.90977   0.21666   0.17599   0.00000  Uiso   1.00
Cu83   Cu    0.75501   0.17246   0.22813   0.00000  Uiso   1.00
Cu84   Cu    0.74500   0.16087   0.10521   0.00000  Uiso   1.00
H85    H     0.88190   0.08329   0.14380   0.00000  Uiso   1.00
H86    H     0.86659   0.26569   0.14907   0.00000  Uiso   1.00
H87    H     0.62905   0.06411   0.10820   0.00000  Uiso   1.00
H88    H     0.63327   0.06760   0.18440   0.00000  Uiso   1.00
H89    H     0.67436   0.08156   0.03069   0.00000  Uiso   1.00
H90    H     0.72178   0.05725   0.32145   0.00000  Uiso   1.00
H91    H     0.66728   0.05597   0.28328   0.00000  Uiso   1.00
H92    H     0.77823   0.27609   0.01190   0.00000  Uiso   1.00
H93    H     0.82564   0.25177   0.30264   0.00000  Uiso   1.00
H94    H     0.83274   0.27735   0.05005   0.00000  Uiso   1.00
H95    H     0.61810   0.25005   0.18950   0.00000  Uiso   1.00
H96    H     0.94855   0.03365   0.13257   0.00000  Uiso   1.00
H97    H     0.55145   0.29968   0.20067   0.00000  Uiso   1.00
H98    H     0.52975   0.03158   0.13466   0.00000  Uiso   1.00
H99    H     0.97024   0.30175   0.19856   0.00000  Uiso   1.00
H100   H     0.73931   0.31942   0.09633   0.00000  Uiso   1.00
H101   H     0.76069   0.01391   0.23701   0.00000  Uiso   1.00
H102   H     0.87111   0.26929   0.22528   0.00000  Uiso   1.00
N103   N     0.73745   0.15214   0.01284   0.00000  Uiso   1.00
N104   N     0.76256   0.18119   0.32049   0.00000  Uiso   1.00
N105   N     0.88916   0.26606   0.18674   0.00000  Uiso   1.00
N106   N     0.61083   0.06727   0.14659   0.00000  Uiso   1.00
O107   O     0.75326   0.09538   0.20659   0.00000  Uiso   1.00
O108   O     0.80007   0.20354   0.02226   0.00000  Uiso   1.00
O109   O     0.74675   0.23796   0.12674   0.00000  Uiso   1.00
O110   O     0.74480   0.08559   0.10279   0.00000  Uiso   1.00
O111   O     0.75520   0.24774   0.23055   0.00000  Uiso   1.00
O112   O     0.68936   0.17155   0.21857   0.00000  Uiso   1.00
O113   O     0.81065   0.16179   0.11476   0.00000  Uiso   1.00
O114   O     0.68090   0.16176   0.11477   0.00000  Uiso   1.00
O115   O     0.81910   0.17157   0.21857   0.00000  Uiso   1.00
O116   O     0.69993   0.12979   0.31107   0.00000  Uiso   1.00
C117   C     0.24832   0.39992   0.15102   0.00000  Uiso   1.00
C118   C     0.09022   0.45001   0.15729   0.00000  Uiso   1.00
C119   C     0.38346   0.50157   0.16425   0.00000  Uiso   1.00
C120   C     0.11654   0.49843   0.16907   0.00000  Uiso   1.00
C121   C     0.40301   0.45336   0.15269   0.00000  Uiso   1.00
C122   C     0.09699   0.54664   0.18060   0.00000  Uiso   1.00
C123   C     0.44944   0.45240   0.15344   0.00000  Uiso   1.00
C124   C     0.05056   0.54759   0.17980   0.00000  Uiso   1.00
C125   C     0.47652   0.50050   0.16592   0.00000  Uiso   1.00
C126   C     0.02348   0.49950   0.16731   0.00000  Uiso   1.00
C127   C     0.45671   0.54956   0.17708   0.00000  Uiso   1.00
C128   C     0.25168   0.60008   0.18232   0.00000  Uiso   1.00
C129   C     0.04328   0.45044   0.15616   0.00000  Uiso   1.00
C130   C     0.46915   0.40406   0.14234   0.00000  Uiso   1.00
C131   C     0.03084   0.59594   0.19089   0.00000  Uiso   1.00
C132   C     0.19100   0.41254   0.32130   0.00000  Uiso   1.00
C133   C     0.30901   0.58745   0.01203   0.00000  Uiso   1.00
C134   C     0.01565   0.40302   0.14368   0.00000  Uiso   1.00
C135   C     0.48435   0.59698   0.18954   0.00000  Uiso   1.00
C136   C     0.24660   0.34374   0.14253   0.00000  Uiso   1.00
C137   C     0.25340   0.65626   0.19080   0.00000  Uiso   1.00
C138   C     0.16466   0.49933   0.16741   0.00000  Uiso   1.00
C139   C     0.33534   0.50067   0.16593   0.00000  Uiso   1.00
C140   C     0.40977   0.54999   0.17599   0.00000  Uiso   1.00
Cu141  Cu    0.25501   0.50579   0.22813   0.00000  Uiso   1.00
Cu142  Cu    0.24500   0.49421   0.10521   0.00000  Uiso   1.00
H143   H     0.38190   0.41662   0.14380   0.00000  Uiso   1.00
H144   H     0.36659   0.59902   0.14907   0.00000  Uiso   1.00
H145   H     0.12905   0.39745   0.10820   0.00000  Uiso   1.00
H146   H     0.13327   0.40093   0.18440   0.00000  Uiso   1.00
H147   H     0.17436   0.41489   0.03069   0.00000  Uiso   1.00
H148   H     0.22178   0.39058   0.32145   0.00000  Uiso   1.00
H149   H     0.16728   0.38930   0.28328   0.00000  Uiso   1.00
H150   H     0.27823   0.60942   0.01190   0.00000  Uiso   1.00
H151   H     0.32564   0.58510   0.30264   0.00000  Uiso   1.00
H152   H     0.33274   0.61069   0.05005   0.00000  Uiso   1.00
H153   H     0.11810   0.58338   0.18950   0.00000  Uiso   1.00
H154   H     0.44855   0.36698   0.13257   0.00000  Uiso   1.00
H155   H     0.05145   0.63302   0.20067   0.00000  Uiso   1.00
H156   H     0.02975   0.36492   0.13466   0.00000  Uiso   1.00
H157   H     0.47024   0.63508   0.19856   0.00000  Uiso   1.00
H158   H     0.23931   0.65276   0.09633   0.00000  Uiso   1.00
H159   H     0.26069   0.34724   0.23701   0.00000  Uiso   1.00
H160   H     0.37111   0.60262   0.22528   0.00000  Uiso   1.00
N161   N     0.23745   0.48547   0.01284   0.00000  Uiso   1.00
N162   N     0.26256   0.51453   0.32049   0.00000  Uiso   1.00
N163   N     0.38916   0.59939   0.18674   0.00000  Uiso   1.00
N164   N     0.11083   0.40061   0.14659   0.00000  Uiso   1.00
O165   O     0.25326   0.42871   0.20659   0.00000  Uiso   1.00
O166   O     0.30007   0.53687   0.02226   0.00000  Uiso   1.00
O167   O     0.24675   0.57129   0.12674   0.00000  Uiso   1.00
O168   O     0.24480   0.41892   0.10279   0.00000  Uiso   1.00
O169   O     0.25520   0.58108   0.23055   0.00000  Uiso   1.00
O170   O     0.18936   0.50488   0.21857   0.00000  Uiso   1.00
O171   O     0.31065   0.49512   0.11476   0.00000  Uiso   1.00
O172   O     0.18090   0.49510   0.11477   0.00000  Uiso   1.00
O173   O     0.31910   0.50490   0.21857   0.00000  Uiso   1.00
O174   O     0.19993   0.46312   0.31107   0.00000  Uiso   1.00
C175   C     0.74832   0.39992   0.15102   0.00000  Uiso   1.00
C176   C     0.59022   0.45001   0.15729   0.00000  Uiso   1.00
C177   C     0.88346   0.50157   0.16425   0.00000  Uiso   1.00
C178   C     0.61654   0.49843   0.16907   0.00000  Uiso   1.00
C179   C     0.90301   0.45336   0.15269   0.00000  Uiso   1.00
C180   C     0.59699   0.54664   0.18060   0.00000  Uiso   1.00
C181   C     0.94944   0.45240   0.15344   0.00000  Uiso   1.00
C182   C     0.55056   0.54759   0.17980   0.00000  Uiso   1.00
C183   C     0.97652   0.50050   0.16592   0.00000  Uiso   1.00
C184   C     0.52348   0.49950   0.16731   0.00000  Uiso   1.00
C185   C     0.95671   0.54956   0.17708   0.00000  Uiso   1.00
C186   C     0.75168   0.60008   0.18232   0.00000  Uiso   1.00
C187   C     0.54328   0.45044   0.15616   0.00000  Uiso   1.00
C188   C     0.96915   0.40406   0.14234   0.00000  Uiso   1.00
C189   C     0.53084   0.59594   0.19089   0.00000  Uiso   1.00
C190   C     0.69100   0.41254   0.32130   0.00000  Uiso   1.00
C191   C     0.80901   0.58745   0.01203   0.00000  Uiso   1.00
C192   C     0.51565   0.40302   0.14368   0.00000  Uiso   1.00
C193   C     0.98435   0.59698   0.18954   0.00000  Uiso   1.00
C194   C     0.74660   0.34374   0.14253   0.00000  Uiso   1.00
C195   C     0.75340   0.65626   0.19080   0.00000  Uiso   1.00
C196   C     0.66466   0.49933   0.16741   0.00000  Uiso   1.00
C197   C     0.83534   0.50067   0.16593   0.00000  Uiso   1.00
C198   C     0.90977   0.54999   0.17599   0.00000  Uiso   1.00
Cu199  Cu    0.75501   0.50579   0.22813   0.00000  Uiso   1.00
Cu200  Cu    0.74500   0.49421   0.10521   0.00000  Uiso   1.00
H201   H     0.88190   0.41662   0.14380   0.00000  Uiso   1.00
H202   H     0.86659   0.59902   0.14907   0.00000  Uiso   1.00
H203   H     0.62905   0.39745   0.10820   0.00000  Uiso   1.00
H204   H     0.63327   0.40093   0.18440   0.00000  Uiso   1.00
H205   H     0.67436   0.41489   0.03069   0.00000  Uiso   1.00
H206   H     0.72178   0.39058   0.32145   0.00000  Uiso   1.00
H207   H     0.66728   0.38930   0.28328   0.00000  Uiso   1.00
H208   H     0.77823   0.60942   0.01190   0.00000  Uiso   1.00
H209   H     0.82564   0.58510   0.30264   0.00000  Uiso   1.00
H210   H     0.83274   0.61069   0.05005   0.00000  Uiso   1.00
H211   H     0.61810   0.58338   0.18950   0.00000  Uiso   1.00
H212   H     0.94855   0.36698   0.13257   0.00000  Uiso   1.00
H213   H     0.55145   0.63302   0.20067   0.00000  Uiso   1.00
H214   H     0.52975   0.36492   0.13466   0.00000  Uiso   1.00
H215   H     0.97024   0.63508   0.19856   0.00000  Uiso   1.00
H216   H     0.73931   0.65276   0.09633   0.00000  Uiso   1.00
H217   H     0.76069   0.34724   0.23701   0.00000  Uiso   1.00
H218   H     0.87111   0.60262   0.22528   0.00000  Uiso   1.00
N219   N     0.73745   0.48547   0.01284   0.00000  Uiso   1.00
N220   N     0.76256   0.51453   0.32049   0.00000  Uiso   1.00
N221   N     0.88916   0.59939   0.18674   0.00000  Uiso   1.00
N222   N     0.61083   0.40061   0.14659   0.00000  Uiso   1.00
O223   O     0.75326   0.42871   0.20659   0.00000  Uiso   1.00
O224   O     0.80007   0.53687   0.02226   0.00000  Uiso   1.00
O225   O     0.74675   0.57129   0.12674   0.00000  Uiso   1.00
O226   O     0.74480   0.41892   0.10279   0.00000  Uiso   1.00
O227   O     0.75520   0.58108   0.23055   0.00000  Uiso   1.00
O228   O     0.68936   0.50488   0.21857   0.00000  Uiso   1.00
O229   O     0.81065   0.49512   0.11476   0.00000  Uiso   1.00
O230   O     0.68090   0.49510   0.11477   0.00000  Uiso   1.00
O231   O     0.81910   0.50490   0.21857   0.00000  Uiso   1.00
O232   O     0.69993   0.46312   0.31107   0.00000  Uiso   1.00
C233   C     0.24832   0.73325   0.15102   0.00000  Uiso   1.00
C234   C     0.09022   0.78334   0.15729   0.00000  Uiso   1.00
C235   C     0.38346   0.83490   0.16425   0.00000  Uiso   1.00
C236   C     0.11654   0.83176   0.16907   0.00000  Uiso   1.00
C237   C     0.40301   0.78670   0.15269   0.00000  Uiso   1.00
C238   C     0.09699   0.87997   0.18060   0.00000  Uiso   1.00
C239   C     0.44944   0.78574   0.15344   0.00000  Uiso   1.00
C240   C     0.05056   0.88093   0.17980   0.00000  Uiso   1.00
C241   C     0.47652   0.83384   0.16592   0.00000  Uiso   1.00
C242   C     0.02348   0.83283   0.16731   0.00000  Uiso   1.00
C243   C     0.45671   0.88289   0.17708   0.00000  Uiso   1.00
C244   C     0.25168   0.93342   0.18232   0.00000  Uiso   1.00
C245   C     0.04328   0.78377   0.15616   0.00000  Uiso   1.00
C246   C     0.46915   0.73739   0.14234   0.00000  Uiso   1.00
C247   C     0.03084   0.92927   0.19089   0.00000  Uiso   1.00
C248   C     0.19100   0.74587   0.32130   0.00000  Uiso   1.00
C249   C     0.30901   0.92079   0.01203   0.00000  Uiso   1.00
C250   C     0.01565   0.73635   0.14368   0.00000  Uiso   1.00
C251   C     0.48435   0.93031   0.18954   0.00000  Uiso   1.00
C252   C     0.24660   0.67707   0.14253   0.00000  Uiso   1.00
C253   C     0.25340   0.98959   0.19080   0.00000  Uiso   1.00
C254   C     0.16466   0.83266   0.16741   0.00000  Uiso   1.00
C255   C     0.33534   0.83400   0.16593   0.00000  Uiso   1.00
C256   C     0.40977   0.88333   0.17599   0.00000  Uiso   1.00
Cu257  Cu    0.25501   0.83913   0.22813   0.00000  Uiso   1.00
Cu258  Cu    0.24500   0.82754   0.10521   0.00000  Uiso   1.00
H259   H     0.38190   0.74995   0.14380   0.00000  Uiso   1.00
H260   H     0.36659   0.93235   0.14907   0.00000  Uiso   1.00
H261   H     0.12905   0.73078   0.10820   0.00000  Uiso   1.00
H262   H     0.13327   0.73427   0.18440   0.00000  Uiso   1.00
H263   H     0.17436   0.74823   0.03069   0.00000  Uiso   1.00
H264   H     0.22178   0.72391   0.32145   0.00000  Uiso   1.00
H265   H     0.16728   0.72263   0.28328   0.00000  Uiso   1.00
H266   H     0.27823   0.94275   0.01190   0.00000  Uiso   1.00
H267   H     0.32564   0.91843   0.30264   0.00000  Uiso   1.00
H268   H     0.33274   0.94402   0.05005   0.00000  Uiso   1.00
H269   H     0.11810   0.91671   0.18950   0.00000  Uiso   1.00
H270   H     0.44855   0.70032   0.13257   0.00000  Uiso   1.00
H271   H     0.05145   0.96635   0.20067   0.00000  Uiso   1.00
H272   H     0.02975   0.69825   0.13466   0.00000  Uiso   1.00
H273   H     0.47024   0.96842   0.19856   0.00000  Uiso   1.00
H274   H     0.23931   0.98609   0.09633   0.00000  Uiso   1.00
H275   H     0.26069   0.68058   0.23701   0.00000  Uiso   1.00
H276   H     0.37111   0.93596   0.22528   0.00000  Uiso   1.00
N277   N     0.23745   0.81881   0.01284   0.00000  Uiso   1.00
N278   N     0.26256   0.84786   0.32049   0.00000  Uiso   1.00
N279   N     0.38916   0.93273   0.18674   0.00000  Uiso   1.00
N280   N     0.11083   0.73394   0.14659   0.00000  Uiso   1.00
O281   O     0.25326   0.76204   0.20659   0.00000  Uiso   1.00
O282   O     0.30007   0.87020   0.02226   0.00000  Uiso   1.00
O283   O     0.24675   0.90462   0.12674   0.00000  Uiso   1.00
O284   O     0.24480   0.75226   0.10279   0.00000  Uiso   1.00
O285   O     0.25520   0.91441   0.23055   0.00000  Uiso   1.00
O286   O     0.18936   0.83821   0.21857   0.00000  Uiso   1.00
O287   O     0.31065   0.82845   0.11476   0.00000  Uiso   1.00
O288   O     0.18090   0.82843   0.11477   0.00000  Uiso   1.00
O289   O     0.31910   0.83824   0.21857   0.00000  Uiso   1.00
O290   O     0.19993   0.79646   0.31107   0.00000  Uiso   1.00
C291   C     0.74832   0.73325   0.15102   0.00000  Uiso   1.00
C292   C     0.59022   0.78334   0.15729   0.00000  Uiso   1.00
C293   C     0.88346   0.83490   0.16425   0.00000  Uiso   1.00
C294   C     0.61654   0.83176   0.16907   0.00000  Uiso   1.00
C295   C     0.90301   0.78670   0.15269   0.00000  Uiso   1.00
C296   C     0.59699   0.87997   0.18060   0.00000  Uiso   1.00
C297   C     0.94944   0.78574   0.15344   0.00000  Uiso   1.00
C298   C     0.55056   0.88093   0.17980   0.00000  Uiso   1.00
C299   C     0.97652   0.83384   0.16592   0.00000  Uiso   1.00
C300   C     0.52348   0.83283   0.16731   0.00000  Uiso   1.00
C301   C     0.95671   0.88289   0.17708   0.00000  Uiso   1.00
C302   C     0.75168   0.93342   0.18232   0.00000  Uiso   1.00
C303   C     0.54328   0.78377   0.15616   0.00000  Uiso   1.00
C304   C     0.96915   0.73739   0.14234   0.00000  Uiso   1.00
C305   C     0.53084   0.92927   0.19089   0.00000  Uiso   1.00
C306   C     0.69100   0.74587   0.32130   0.00000  Uiso   1.00
C307   C     0.80901   0.92079   0.01203   0.00000  Uiso   1.00
C308   C     0.51565   0.73635   0.14368   0.00000  Uiso   1.00
C309   C     0.98435   0.93031   0.18954   0.00000  Uiso   1.00
C310   C     0.74660   0.67707   0.14253   0.00000  Uiso   1.00
C311   C     0.75340   0.98959   0.19080   0.00000  Uiso   1.00
C312   C     0.66466   0.83266   0.16741   0.00000  Uiso   1.00
C313   C     0.83534   0.83400   0.16593   0.00000  Uiso   1.00
C314   C     0.90977   0.88333   0.17599   0.00000  Uiso   1.00
Cu315  Cu    0.75501   0.83913   0.22813   0.00000  Uiso   1.00
Cu316  Cu    0.74500   0.82754   0.10521   0.00000  Uiso   1.00
H317   H     0.88190   0.74995   0.14380   0.00000  Uiso   1.00
H318   H     0.86659   0.93235   0.14907   0.00000  Uiso   1.00
H319   H     0.62905   0.73078   0.10820   0.00000  Uiso   1.00
H320   H     0.63327   0.73427   0.18440   0.00000  Uiso   1.00
H321   H     0.67436   0.74823   0.03069   0.00000  Uiso   1.00
H322   H     0.72178   0.72391   0.32145   0.00000  Uiso   1.00
H323   H     0.66728   0.72263   0.28328   0.00000  Uiso   1.00
H324   H     0.77823   0.94275   0.01190   0.00000  Uiso   1.00
H325   H     0.82564   0.91843   0.30264   0.00000  Uiso   1.00
H326   H     0.83274   0.94402   0.05005   0.00000  Uiso   1.00
H327   H     0.61810   0.91671   0.18950   0.00000  Uiso   1.00
H328   H     0.94855   0.70032   0.13257   0.00000  Uiso   1.00
H329   H     0.55145   0.96635   0.20067   0.00000  Uiso   1.00
H330   H     0.52975   0.69825   0.13466   0.00000  Uiso   1.00
H331   H     0.97024   0.96842   0.19856   0.00000  Uiso   1.00
H332   H     0.73931   0.98609   0.09633   0.00000  Uiso   1.00
H333   H     0.76069   0.68058   0.23701   0.00000  Uiso   1.00
H334   H     0.87111   0.93596   0.22528   0.00000  Uiso   1.00
N335   N     0.73745   0.81881   0.01284   0.00000  Uiso   1.00
N336   N     0.76256   0.84786   0.32049   0.00000  Uiso   1.00
N337   N     0.88916   0.93273   0.18674   0.00000  Uiso   1.00
N338   N     0.61083   0.73394   0.14659   0.00000  Uiso   1.00
O339   O     0.75326   0.76204   0.20659   0.00000  Uiso   1.00
O340   O     0.80007   0.87020   0.02226   0.00000  Uiso   1.00
O341   O     0.74675   0.90462   0.12674   0.00000  Uiso   1.00
O342   O     0.74480   0.75226   0.10279   0.00000  Uiso   1.00
O343   O     0.75520   0.91441   0.23055   0.00000  Uiso   1.00
O344   O     0.68936   0.83821   0.21857   0.00000  Uiso   1.00
O345   O     0.81065   0.82845   0.11476   0.00000  Uiso   1.00
O346   O     0.68090   0.82843   0.11477   0.00000  Uiso   1.00
O347   O     0.81910   0.83824   0.21857   0.00000  Uiso   1.00
O348   O     0.69993   0.79646   0.31107   0.00000  Uiso   1.00
C349   C     0.24832   0.06658   0.48435   0.00000  Uiso   1.00
C350   C     0.09022   0.11667   0.49062   0.00000  Uiso   1.00
C351   C     0.38346   0.16824   0.49759   0.00000  Uiso   1.00
C352   C     0.11654   0.16510   0.50240   0.00000  Uiso   1.00
C353   C     0.40301   0.12003   0.48602   0.00000  Uiso   1.00
C354   C     0.09699   0.21330   0.51394   0.00000  Uiso   1.00
C355   C     0.44944   0.11907   0.48678   0.00000  Uiso   1.00
C356   C     0.05056   0.21426   0.51314   0.00000  Uiso   1.00
C357   C     0.47652   0.16717   0.49925   0.00000  Uiso   1.00
C358   C     0.02348   0.16616   0.50065   0.00000  Uiso   1.00
C359   C     0.45671   0.21623   0.51041   0.00000  Uiso   1.00
C360   C     0.25168   0.26675   0.51565   0.00000  Uiso   1.00
C361   C     0.04328   0.11711   0.48949   0.00000  Uiso   1.00
C362   C     0.46915   0.07073   0.47567   0.00000  Uiso   1.00
C363   C     0.03084   0.26261   0.52422   0.00000  Uiso   1.00
C364   C     0.19100   0.07921   0.65464   0.00000  Uiso   1.00
C365   C     0.30901   0.25412   0.34536   0.00000  Uiso   1.00
C366   C     0.01565   0.06969   0.47701   0.00000  Uiso   1.00
C367   C     0.48435   0.26365   0.52288   0.00000  Uiso   1.00
C368   C     0.24660   0.01041   0.47587   0.00000  Uiso   1.00
C369   C     0.25340   0.32293   0.52413   0.00000  Uiso   1.00
C370   C     0.16466   0.16600   0.50074   0.00000  Uiso   1.00
C371   C     0.33534   0.16733   0.49926   0.00000  Uiso   1.00
C372   C     0.40977   0.21666   0.50933   0.00000  Uiso   1.00
Cu373  Cu    0.25501   0.17246   0.56146   0.00000  Uiso   1.00
Cu374  Cu    0.24500   0.16087   0.43854   0.00000  Uiso   1.00
H375   H     0.38190   0.08329   0.47714   0.00000  Uiso   1.00
H376   H     0.36659   0.26569   0.48241   0.00000  Uiso   1.00
H377   H     0.12905   0.06411   0.44154   0.00000  Uiso   1.00
H378   H     0.13327   0.06760   0.51773   0.00000  Uiso   1.00
H379   H     0.17436   0.08156   0.36402   0.00000  Uiso   1.00
H380   H     0.22178   0.05725   0.65478   0.00000  Uiso   1.00
H381   H     0.16728   0.05597   0.61661   0.00000  Uiso   1.00
H382   H     0.27823   0.27609   0.34523   0.00000  Uiso   1.00
H383   H     0.32564   0.25177   0.63597   0.00000  Uiso   1.00
H384   H     0.33274   0.27735   0.38339   0.00000  Uiso   1.00
H385   H     0.11810   0.25005   0.52283   0.00000  Uiso   1.00
H386   H     0.44855   0.03365   0.46590   0.00000  Uiso   1.00
H387   H     0.05145   0.29968   0.53400   0.00000  Uiso   1.00
H388   H     0.02975   0.03158   0.46800   0.00000  Uiso   1.00
H389   H     0.47024   0.30175   0.53190   0.00000  Uiso   1.00
H390   H     0.23931   0.31942   0.42966   0.00000  Uiso   1.00
H391   H     0.26069   0.01391   0.57034   0.00000  Uiso   1.00
H392   H     0.37111   0.26929   0.55862   0.00000  Uiso   1.00
N393   N     0.23745   0.15214   0.34617   0.00000  Uiso   1.00
N394   N     0.26256   0.18119   0.65383   0.00000  Uiso   1.00
N395   N     0.38916   0.26606   0.52007   0.00000  Uiso   1.00
N396   N     0.11083   0.06727   0.47992   0.00000  Uiso   1.00
O397   O     0.25326   0.09538   0.53992   0.00000  Uiso   1.00
O398   O     0.30007   0.20354   0.35559   0.00000  Uiso   1.00
O399   O     0.24675   0.23796   0.46008   0.00000  Uiso   1.00
O400   O     0.24480   0.08559   0.43612   0.00000  Uiso   1.00
O401   O     0.25520   0.24774   0.56388   0.00000  Uiso   1.00
O402   O     0.18936   0.17155   0.55191   0.00000  Uiso   1.00
O403   O     0.31065   0.16179   0.44809   0.00000  Uiso   1.00
O404   O     0.18090   0.16176   0.44810   0.00000  Uiso   1.00
O405   O     0.31910   0.17157   0.55190   0.00000  Uiso   1.00
O406   O     0.19993   0.12979   0.64440   0.00000  Uiso   1.00
C407   C     0.74832   0.06658   0.48435   0.00000  Uiso   1.00
C408   C     0.59022   0.11667   0.49062   0.00000  Uiso   1.00
C409   C     0.88346   0.16824   0.49759   0.00000  Uiso   1.00
C410   C     0.61654   0.16510   0.50240   0.00000  Uiso   1.00
C411   C     0.90301   0.12003   0.48602   0.00000  Uiso   1.00
C412   C     0.59699   0.21330   0.51394   0.00000  Uiso   1.00
C413   C     0.94944   0.11907   0.48678   0.00000  Uiso   1.00
C414   C     0.55056   0.21426   0.51314   0.00000  Uiso   1.00
C415   C     0.97652   0.16717   0.49925   0.00000  Uiso   1.00
C416   C     0.52348   0.16616   0.50065   0.00000  Uiso   1.00
C417   C     0.95671   0.21623   0.51041   0.00000  Uiso   1.00
C418   C     0.75168   0.26675   0.51565   0.00000  Uiso   1.00
C419   C     0.54328   0.11711   0.48949   0.00000  Uiso   1.00
C420   C     0.96915   0.07073   0.47567   0.00000  Uiso   1.00
C421   C     0.53084   0.26261   0.52422   0.00000  Uiso   1.00
C422   C     0.69100   0.07921   0.65464   0.00000  Uiso   1.00
C423   C     0.80901   0.25412   0.34536   0.00000  Uiso   1.00
C424   C     0.51565   0.06969   0.47701   0.00000  Uiso   1.00
C425   C     0.98435   0.26365   0.52288   0.00000  Uiso   1.00
C426   C     0.74660   0.01041   0.47587   0.00000  Uiso   1.00
C427   C     0.75340   0.32293   0.52413   0.00000  Uiso   1.00
C428   C     0.66466   0.16600   0.50074   0.00000  Uiso   1.00
C429   C     0.83534   0.16733   0.49926   0.00000  Uiso   1.00
C430   C     0.90977   0.21666   0.50933   0.00000  Uiso   1.00
Cu431  Cu    0.75501   0.17246   0.56146   0.00000  Uiso   1.00
Cu432  Cu    0.74500   0.16087   0.43854   0.00000  Uiso   1.00
H433   H     0.88190   0.08329   0.47714   0.00000  Uiso   1.00
H434   H     0.86659   0.26569   0.48241   0.00000  Uiso   1.00
H435   H     0.62905   0.06411   0.44154   0.00000  Uiso   1.00
H436   H     0.63327   0.06760   0.51773   0.00000  Uiso   1.00
H437   H     0.67436   0.08156   0.36402   0.00000  Uiso   1.00
H438   H     0.72178   0.05725   0.65478   0.00000  Uiso   1.00
H439   H     0.66728   0.05597   0.61661   0.00000  Uiso   1.00
H440   H     0.77823   0.27609   0.34523   0.00000  Uiso   1.00
H441   H     0.82564   0.25177   0.63597   0.00000  Uiso   1.00
H442   H     0.83274   0.27735   0.38339   0.00000  Uiso   1.00
H443   H     0.61810   0.25005   0.52283   0.00000  Uiso   1.00
H444   H     0.94855   0.03365   0.46590   0.00000  Uiso   1.00
H445   H     0.55145   0.29968   0.53400   0.00000  Uiso   1.00
H446   H     0.52975   0.03158   0.46800   0.00000  Uiso   1.00
H447   H     0.97024   0.30175   0.53190   0.00000  Uiso   1.00
H448   H     0.73931   0.31942   0.42966   0.00000  Uiso   1.00
H449   H     0.76069   0.01391   0.57034   0.00000  Uiso   1.00
H450   H     0.87111   0.26929   0.55862   0.00000  Uiso   1.00
N451   N     0.73745   0.15214   0.34617   0.00000  Uiso   1.00
N452   N     0.76256   0.18119   0.65383   0.00000  Uiso   1.00
N453   N     0.88916   0.26606   0.52007   0.00000  Uiso   1.00
N454   N     0.61083   0.06727   0.47992   0.00000  Uiso   1.00
O455   O     0.75326   0.09538   0.53992   0.00000  Uiso   1.00
O456   O     0.80007   0.20354   0.35559   0.00000  Uiso   1.00
O457   O     0.74675   0.23796   0.46008   0.00000  Uiso   1.00
O458   O     0.74480   0.08559   0.43612   0.00000  Uiso   1.00
O459   O     0.75520   0.24774   0.56388   0.00000  Uiso   1.00
O460   O     0.68936   0.17155   0.55191   0.00000  Uiso   1.00
O461   O     0.81065   0.16179   0.44809   0.00000  Uiso   1.00
O462   O     0.68090   0.16176   0.44810   0.00000  Uiso   1.00
O463   O     0.81910   0.17157   0.55190   0.00000  Uiso   1.00
O464   O     0.69993   0.12979   0.64440   0.00000  Uiso   1.00
C465   C     0.24832   0.39992   0.48435   0.00000  Uiso   1.00
C466   C     0.09022   0.45001   0.49062   0.00000  Uiso   1.00
C467   C     0.38346   0.50157   0.49759   0.00000  Uiso   1.00
C468   C     0.11654   0.49843   0.50240   0.00000  Uiso   1.00
C469   C     0.40301   0.45336   0.48602   0.00000  Uiso   1.00
C470   C     0.09699   0.54664   0.51394   0.00000  Uiso   1.00
C471   C     0.44944   0.45240   0.48678   0.00000  Uiso   1.00
C472   C     0.05056   0.54759   0.51314   0.00000  Uiso   1.00
C473   C     0.47652   0.50050   0.49925   0.00000  Uiso   1.00
C474   C     0.02348   0.49950   0.50065   0.00000  Uiso   1.00
C475   C     0.45671   0.54956   0.51041   0.00000  Uiso   1.00
C476   C     0.25168   0.60008   0.51565   0.00000  Uiso   1.00
C477   C     0.04328   0.45044   0.48949   0.00000  Uiso   1.00
C478   C     0.46915   0.40406   0.47567   0.00000  Uiso   1.00
C479   C     0.03084   0.59594   0.52422   0.00000  Uiso   1.00
C480   C     0.19100   0.41254   0.65464   0.00000  Uiso   1.00
C481   C     0.30901   0.58745   0.34536   0.00000  Uiso   1.00
C482   C     0.01565   0.40302   0.47701   0.00000  Uiso   1.00
C483   C     0.48435   0.59698   0.52288   0.00000  Uiso   1.00
C484   C     0.24660   0.34374   0.47587   0.00000  Uiso   1.00
C485   C     0.25340   0.65626   0.52413   0.00000  Uiso   1.00
C486   C     0.16466   0.49933   0.50074   0.00000  Uiso   1.00
C487   C     0.33534   0.50067   0.49926   0.00000  Uiso   1.00
C488   C     0.40977   0.54999   0.50933   0.00000  Uiso   1.00
Cu489  Cu    0.25501   0.50579   0.56146   0.00000  Uiso   1.00
Cu490  Cu    0.24500   0.49421   0.43854   0.00000  Uiso   1.00
H491   H     0.38190   0.41662   0.47714   0.00000  Uiso   1.00
H492   H     0.36659   0.59902   0.48241   0.00000  Uiso   1.00
H493   H     0.12905   0.39745   0.44154   0.00000  Uiso   1.00
H494   H     0.13327   0.40093   0.51773   0.00000  Uiso   1.00
H495   H     0.17436   0.41489   0.36402   0.00000  Uiso   1.00
H496   H     0.22178   0.39058   0.65478   0.00000  Uiso   1.00
H497   H     0.16728   0.38930   0.61661   0.00000  Uiso   1.00
H498   H     0.27823   0.60942   0.34523   0.00000  Uiso   1.00
H499   H     0.32564   0.58510   0.63597   0.00000  Uiso   1.00
H500   H     0.33274   0.61069   0.38339   0.00000  Uiso   1.00
H501   H     0.11810   0.58338   0.52283   0.00000  Uiso   1.00
H502   H     0.44855   0.36698   0.46590   0.00000  Uiso   1.00
H503   H     0.05145   0.63302   0.53400   0.00000  Uiso   1.00
H504   H     0.02975   0.36492   0.46800   0.00000  Uiso   1.00
H505   H     0.47024   0.63508   0.53190   0.00000  Uiso   1.00
H506   H     0.23931   0.65276   0.42966   0.00000  Uiso   1.00
H507   H     0.26069   0.34724   0.57034   0.00000  Uiso   1.00
H508   H     0.37111   0.60262   0.55862   0.00000  Uiso   1.00
N509   N     0.23745   0.48547   0.34617   0.00000  Uiso   1.00
N510   N     0.26256   0.51453   0.65383   0.00000  Uiso   1.00
N511   N     0.38916   0.59939   0.52007   0.00000  Uiso   1.00
N512   N     0.11083   0.40061   0.47992   0.00000  Uiso   1.00
O513   O     0.25326   0.42871   0.53992   0.00000  Uiso   1.00
O514   O     0.30007   0.53687   0.35559   0.00000  Uiso   1.00
O515   O     0.24675   0.57129   0.46008   0.00000  Uiso   1.00
O516   O     0.24480   0.41892   0.43612   0.00000  Uiso   1.00
O517   O     0.25520   0.58108   0.56388   0.00000  Uiso   1.00
O518   O     0.18936   0.50488   0.55191   0.00000  Uiso   1.00
O519   O     0.31065   0.49512   0.44809   0.00000  Uiso   1.00
O520   O     0.18090   0.49510   0.44810   0.00000  Uiso   1.00
O521   O     0.31910   0.50490   0.55190   0.00000  Uiso   1.00
O522   O     0.19993   0.46312   0.64440   0.00000  Uiso   1.00
C523   C     0.74832   0.39992   0.48435   0.00000  Uiso   1.00
C524   C     0.59022   0.45001   0.49062   0.00000  Uiso   1.00
C525   C     0.88346   0.50157   0.49759   0.00000  Uiso   1.00
C526   C     0.61654   0.49843   0.50240   0.00000  Uiso   1.00
C527   C     0.90301   0.45336   0.48602   0.00000  Uiso   1.00
C528   C     0.59699   0.54664   0.51394   0.00000  Uiso   1.00
C529   C     0.94944   0.45240   0.48678   0.00000  Uiso   1.00
C530   C     0.55056   0.54759   0.51314   0.00000  Uiso   1.00
C531   C     0.97652   0.50050   0.49925   0.00000  Uiso   1.00
C532   C     0.52348   0.49950   0.50065   0.00000  Uiso   1.00
C533   C     0.95671   0.54956   0.51041   0.00000  Uiso   1.00
C534   C     0.75168   0.60008   0.51565   0.00000  Uiso   1.00
C535   C     0.54328   0.45044   0.48949   0.00000  Uiso   1.00
C536   C     0.96915   0.40406   0.47567   0.00000  Uiso   1.00
C537   C     0.53084   0.59594   0.52422   0.00000  Uiso   1.00
C538   C     0.69100   0.41254   0.65464   0.00000  Uiso   1.00
C539   C     0.80901   0.58745   0.34536   0.00000  Uiso   1.00
C540   C     0.51565   0.40302   0.47701   0.00000  Uiso   1.00
C541   C     0.98435   0.59698   0.52288   0.00000  Uiso   1.00
C542   C     0.74660   0.34374   0.47587   0.00000  Uiso   1.00
C543   C     0.75340   0.65626   0.52413   0.00000  Uiso   1.00
C544   C     0.66466   0.49933   0.50074   0.00000  Uiso   1.00
C545   C     0.83534   0.50067   0.49926   0.00000  Uiso   1.00
C546   C     0.90977   0.54999   0.50933   0.00000  Uiso   1.00
Cu547  Cu    0.75501   0.50579   0.56146   0.00000  Uiso   1.00
Cu548  Cu    0.74500   0.49421   0.43854   0.00000  Uiso   1.00
H549   H     0.88190   0.41662   0.47714   0.00000  Uiso   1.00
H550   H     0.86659   0.59902   0.48241   0.00000  Uiso   1.00
H551   H     0.62905   0.39745   0.44154   0.00000  Uiso   1.00
H552   H     0.63327   0.40093   0.51773   0.00000  Uiso   1.00
H553   H     0.67436   0.41489   0.36402   0.00000  Uiso   1.00
H554   H     0.72178   0.39058   0.65478   0.00000  Uiso   1.00
H555   H     0.66728   0.38930   0.61661   0.00000  Uiso   1.00
H556   H     0.77823   0.60942   0.34523   0.00000  Uiso   1.00
H557   H     0.82564   0.58510   0.63597   0.00000  Uiso   1.00
H558   H     0.83274   0.61069   0.38339   0.00000  Uiso   1.00
H559   H     0.61810   0.58338   0.52283   0.00000  Uiso   1.00
H560   H     0.94855   0.36698   0.46590   0.00000  Uiso   1.00
H561   H     0.55145   0.63302   0.53400   0.00000  Uiso   1.00
H562   H     0.52975   0.36492   0.46800   0.00000  Uiso   1.00
H563   H     0.97024   0.63508   0.53190   0.00000  Uiso   1.00
H564   H     0.73931   0.65276   0.42966   0.00000  Uiso   1.00
H565   H     0.76069   0.34724   0.57034   0.00000  Uiso   1.00
H566   H     0.87111   0.60262   0.55862   0.00000  Uiso   1.00
N567   N     0.73745   0.48547   0.34617   0.00000  Uiso   1.00
N568   N     0.76256   0.51453   0.65383   0.00000  Uiso   1.00
N569   N     0.88916   0.59939   0.52007   0.00000  Uiso   1.00
N570   N     0.61083   0.40061   0.47992   0.00000  Uiso   1.00
O571   O     0.75326   0.42871   0.53992   0.00000  Uiso   1.00
O572   O     0.80007   0.53687   0.35559   0.00000  Uiso   1.00
O573   O     0.74675   0.57129   0.46008   0.00000  Uiso   1.00
O574   O     0.74480   0.41892   0.43612   0.00000  Uiso   1.00
O575   O     0.75520   0.58108   0.56388   0.00000  Uiso   1.00
O576   O     0.68936   0.50488   0.55191   0.00000  Uiso   1.00
O577   O     0.81065   0.49512   0.44809   0.00000  Uiso   1.00
O578   O     0.68090   0.49510   0.44810   0.00000  Uiso   1.00
O579   O     0.81910   0.50490   0.55190   0.00000  Uiso   1.00
O580   O     0.69993   0.46312   0.64440   0.00000  Uiso   1.00
C581   C     0.24832   0.73325   0.48435   0.00000  Uiso   1.00
C582   C     0.09022   0.78334   0.49062   0.00000  Uiso   1.00
C583   C     0.38346   0.83490   0.49759   0.00000  Uiso   1.00
C584   C     0.11654   0.83176   0.50240   0.00000  Uiso   1.00
C585   C     0.40301   0.78670   0.48602   0.00000  Uiso   1.00
C586   C     0.09699   0.87997   0.51394   0.00000  Uiso   1.00
C587   C     0.44944   0.78574   0.48678   0.00000  Uiso   1.00
C588   C     0.05056   0.88093   0.51314   0.00000  Uiso   1.00
C589   C     0.47652   0.83384   0.49925   0.00000  Uiso   1.00
C590   C     0.02348   0.83283   0.50065   0.00000  Uiso   1.00
C591   C     0.45671   0.88289   0.51041   0.00000  Uiso   1.00
C592   C     0.25168   0.93342   0.51565   0.00000  Uiso   1.00
C593   C     0.04328   0.78377   0.48949   0.00000  Uiso   1.00
C594   C     0.46915   0.73739   0.47567   0.00000  Uiso   1.00
C595   C     0.03084   0.92927   0.52422   0.00000  Uiso   1.00
C596   C     0.19100   0.74587   0.65464   0.00000  Uiso   1.00
C597   C     0.30901   0.92079   0.34536   0.00000  Uiso   1.00
C598   C     0.01565   0.73635   0.47701   0.00000  Uiso   1.00
C599   C     0.48435   0.93031   0.52288   0.00000  Uiso   1.00
C600   C     0.24660   0.67707   0.47587   0.00000  Uiso   1.00
C601   C     0.25340   0.98959   0.52413   0.00000  Uiso   1.00
C602   C     0.16466   0.83266   0.50074   0.00000  Uiso   1.00
C603   C     0.33534   0.83400   0.49926   0.00000  Uiso   1.00
C604   C     0.40977   0.88333   0.50933   0.00000  Uiso   1.00
Cu605  Cu    0.25501   0.83913   0.56146   0.00000  Uiso   1.00
Cu606  Cu    0.24500   0.82754   0.43854   0.00000  Uiso   1.00
H607   H     0.38190   0.74995   0.47714   0.00000  Uiso   1.00
H608   H     0.36659   0.93235   0.48241   0.00000  Uiso   1.00
H609   H     0.12905   0.73078   0.44154   0.00000  Uiso   1.00
H610   H     0.13327   0.73427   0.51773   0.00000  Uiso   1.00
H611   H     0.17436   0.74823   0.36402   0.00000  Uiso   1.00
H612   H     0.22178   0.72391   0.65478   0.00000  Uiso   1.00
H613   H     0.16728   0.72263   0.61661   0.00000  Uiso   1.00
H614   H     0.27823   0.94275   0.34523   0.00000  Uiso   1.00
H615   H     0.32564   0.91843   0.63597   0.00000  Uiso   1.00
H616   H     0.33274   0.94402   0.38339   0.00000  Uiso   1.00
H617   H     0.11810   0.91671   0.52283   0.00000  Uiso   1.00
H618   H     0.44855   0.70032   0.46590   0.00000  Uiso   1.00
H619   H     0.05145   0.96635   0.53400   0.00000  Uiso   1.00
H620   H     0.02975   0.69825   0.46800   0.00000  Uiso   1.00
H621   H     0.47024   0.96842   0.53190   0.00000  Uiso   1.00
H622   H     0.23931   0.98609   0.42966   0.00000  Uiso   1.00
H623   H     0.26069   0.68058   0.57034   0.00000  Uiso   1.00
H624   H     0.37111   0.93596   0.55862   0.00000  Uiso   1.00
N625   N     0.23745   0.81881   0.34617   0.00000  Uiso   1.00
N626   N     0.26256   0.84786   0.65383   0.00000  Uiso   1.00
N627   N     0.38916   0.93273   0.52007   0.00000  Uiso   1.00
N628   N     0.11083   0.73394   0.47992   0.00000  Uiso   1.00
O629   O     0.25326   0.76204   0.53992   0.00000  Uiso   1.00
O630   O     0.30007   0.87020   0.35559   0.00000  Uiso   1.00
O631   O     0.24675   0.90462   0.46008   0.00000  Uiso   1.00
O632   O     0.24480   0.75226   0.43612   0.00000  Uiso   1.00
O633   O     0.25520   0.91441   0.56388   0.00000  Uiso   1.00
O634   O     0.18936   0.83821   0.55191   0.00000  Uiso   1.00
O635   O     0.31065   0.82845   0.44809   0.00000  Uiso   1.00
O636   O     0.18090   0.82843   0.44810   0.00000  Uiso   1.00
O637   O     0.31910   0.83824   0.55190   0.00000  Uiso   1.00
O638   O     0.19993   0.79646   0.64440   0.00000  Uiso   1.00
C639   C     0.74832   0.73325   0.48435   0.00000  Uiso   1.00
C640   C     0.59022   0.78334   0.49062   0.00000  Uiso   1.00
C641   C     0.88346   0.83490   0.49759   0.00000  Uiso   1.00
C642   C     0.61654   0.83176   0.50240   0.00000  Uiso   1.00
C643   C     0.90301   0.78670   0.48602   0.00000  Uiso   1.00
C644   C     0.59699   0.87997   0.51394   0.00000  Uiso   1.00
C645   C     0.94944   0.78574   0.48678   0.00000  Uiso   1.00
C646   C     0.55056   0.88093   0.51314   0.00000  Uiso   1.00
C647   C     0.97652   0.83384   0.49925   0.00000  Uiso   1.00
C648   C     0.52348   0.83283   0.50065   0.00000  Uiso   1.00
C649   C     0.95671   0.88289   0.51041   0.00000  Uiso   1.00
C650   C     0.75168   0.93342   0.51565   0.00000  Uiso   1.00
C651   C     0.54328   0.78377   0.48949   0.00000  Uiso   1.00
C652   C     0.96915   0.73739   0.47567   0.00000  Uiso   1.00
C653   C     0.53084   0.92927   0.52422   0.00000  Uiso   1.00
C654   C     0.69100   0.74587   0.65464   0.00000  Uiso   1.00
C655   C     0.80901   0.92079   0.34536   0.00000  Uiso   1.00
C656   C     0.51565   0.73635   0.47701   0.00000  Uiso   1.00
C657   C     0.98435   0.93031   0.52288   0.00000  Uiso   1.00
C658   C     0.74660   0.67707   0.47587   0.00000  Uiso   1.00
C659   C     0.75340   0.98959   0.52413   0.00000  Uiso   1.00
C660   C     0.66466   0.83266   0.50074   0.00000  Uiso   1.00
C661   C     0.83534   0.83400   0.49926   0.00000  Uiso   1.00
C662   C     0.90977   0.88333   0.50933   0.00000  Uiso   1.00
Cu663  Cu    0.75501   0.83913   0.56146   0.00000  Uiso   1.00
Cu664  Cu    0.74500   0.82754   0.43854   0.00000  Uiso   1.00
H665   H     0.88190   0.74995   0.47714   0.00000  Uiso   1.00
H666   H     0.86659   0.93235   0.48241   0.00000  Uiso   1.00
H667   H     0.62905   0.73078   0.44154   0.00000  Uiso   1.00
H668   H     0.63327   0.73427   0.51773   0.00000  Uiso   1.00
H669   H     0.67436   0.74823   0.36402   0.00000  Uiso   1.00
H670   H     0.72178   0.72391   0.65478   0.00000  Uiso   1.00
H671   H     0.66728   0.72263   0.61661   0.00000  Uiso   1.00
H672   H     0.77823   0.94275   0.34523   0.00000  Uiso   1.00
H673   H     0.82564   0.91843   0.63597   0.00000  Uiso   1.00
H674   H     0.83274   0.94402   0.38339   0.00000  Uiso   1.00
H675   H     0.61810   0.91671   0.52283   0.00000  Uiso   1.00
H676   H     0.94855   0.70032   0.46590   0.00000  Uiso   1.00
H677   H     0.55145   0.96635   0.53400   0.00000  Uiso   1.00
H678   H     0.52975   0.69825   0.46800   0.00000  Uiso   1.00
H679   H     0.97024   0.96842   0.53190   0.00000  Uiso   1.00
H680   H     0.73931   0.98609   0.42966   0.00000  Uiso   1.00
H681   H     0.76069   0.68058   0.57034   0.00000  Uiso   1.00
H682   H     0.87111   0.93596   0.55862   0.00000  Uiso   1.00
N683   N     0.73745   0.81881   0.34617   0.00000  Uiso   1.00
N684   N     0.76256   0.84786   0.65383   0.00000  Uiso   1.00
N685   N     0.88916   0.93273   0.52007   0.00000  Uiso   1.00
N686   N     0.61083   0.73394   0.47992   0.00000  Uiso   1.00
O687   O     0.75326   0.76204   0.53992   0.00000  Uiso   1.00
O688   O     0.80007   0.87020   0.35559   0.00000  Uiso   1.00
O689   O     0.74675   0.90462   0.46008   0.00000  Uiso   1.00
O690   O     0.74480   0.75226   0.43612   0.00000  Uiso   1.00
O691   O     0.75520   0.91441   0.56388   0.00000  Uiso   1.00
O692   O     0.68936   0.83821   0.55191   0.00000  Uiso   1.00
O693   O     0.81065   0.82845   0.44809   0.00000  Uiso   1.00
O694   O     0.68090   0.82843   0.44810   0.00000  Uiso   1.00
O695   O     0.81910   0.83824   0.55190   0.00000  Uiso   1.00
O696   O     0.69993   0.79646   0.64440   0.00000  Uiso   1.00
C697   C     0.24832   0.06658   0.81768   0.00000  Uiso   1.00
C698   C     0.09022   0.11667   0.82396   0.00000  Uiso   1.00
C699   C     0.38346   0.16824   0.83092   0.00000  Uiso   1.00
C700   C     0.11654   0.16510   0.83574   0.00000  Uiso   1.00
C701   C     0.40301   0.12003   0.81935   0.00000  Uiso   1.00
C702   C     0.09699   0.21330   0.84727   0.00000  Uiso   1.00
C703   C     0.44944   0.11907   0.82011   0.00000  Uiso   1.00
C704   C     0.05056   0.21426   0.84647   0.00000  Uiso   1.00
C705   C     0.47652   0.16717   0.83258   0.00000  Uiso   1.00
C706   C     0.02348   0.16616   0.83398   0.00000  Uiso   1.00
C707   C     0.45671   0.21623   0.84374   0.00000  Uiso   1.00
C708   C     0.25168   0.26675   0.84898   0.00000  Uiso   1.00
C709   C     0.04328   0.11711   0.82283   0.00000  Uiso   1.00
C710   C     0.46915   0.07073   0.80901   0.00000  Uiso   1.00
C711   C     0.03084   0.26261   0.85756   0.00000  Uiso   1.00
C712   C     0.19100   0.07921   0.98797   0.00000  Uiso   1.00
C713   C     0.30901   0.25412   0.67870   0.00000  Uiso   1.00
C714   C     0.01565   0.06969   0.81035   0.00000  Uiso   1.00
C715   C     0.48435   0.26365   0.85621   0.00000  Uiso   1.00
C716   C     0.24660   0.01041   0.80920   0.00000  Uiso   1.00
C717   C     0.25340   0.32293   0.85747   0.00000  Uiso   1.00
C718   C     0.16466   0.16600   0.83407   0.00000  Uiso   1.00
C719   C     0.33534   0.16733   0.83259   0.00000  Uiso   1.00
C720   C     0.40977   0.21666   0.84266   0.00000  Uiso   1.00
Cu721  Cu    0.25501   0.17246   0.89479   0.00000  Uiso   1.00
Cu722  Cu    0.24500   0.16087   0.77187   0.00000  Uiso   1.00
H723   H     0.38190   0.08329   0.81047   0.00000  Uiso   1.00
H724   H     0.36659   0.26569   0.81574   0.00000  Uiso   1.00
H725   H     0.12905   0.06411   0.77487   0.00000  Uiso   1.00
H726   H     0.13327   0.06760   0.85106   0.00000  Uiso   1.00
H727   H     0.17436   0.08156   0.69735   0.00000  Uiso   1.00
H728   H     0.22178   0.05725   0.98811   0.00000  Uiso   1.00
H729   H     0.16728   0.05597   0.94994   0.00000  Uiso   1.00
H730   H     0.27823   0.27609   0.67856   0.00000  Uiso   1.00
H731   H     0.32564   0.25177   0.96931   0.00000  Uiso   1.00
H732   H     0.33274   0.27735   0.71672   0.00000  Uiso   1.00
H733   H     0.11810   0.25005   0.85617   0.00000  Uiso   1.00
H734   H     0.44855   0.03365   0.79923   0.00000  Uiso   1.00
H735   H     0.05145   0.29968   0.86734   0.00000  Uiso   1.00
H736   H     0.02975   0.03158   0.80133   0.00000  Uiso   1.00
H737   H     0.47024   0.30175   0.86523   0.00000  Uiso   1.00
H738   H     0.23931   0.31942   0.76299   0.00000  Uiso   1.00
H739   H     0.26069   0.01391   0.90367   0.00000  Uiso   1.00
H740   H     0.37111   0.26929   0.89195   0.00000  Uiso   1.00
N741   N     0.23745   0.15214   0.67951   0.00000  Uiso   1.00
N742   N     0.26256   0.18119   0.98716   0.00000  Uiso   1.00
N743   N     0.38916   0.26606   0.85340   0.00000  Uiso   1.00
N744   N     0.11083   0.06727   0.81326   0.00000  Uiso   1.00
O745   O     0.25326   0.09538   0.87326   0.00000  Uiso   1.00
O746   O     0.30007   0.20354   0.68893   0.00000  Uiso   1.00
O747   O     0.24675   0.23796   0.79341   0.00000  Uiso   1.00
O748   O     0.24480   0.08559   0.76945   0.00000  Uiso   1.00
O749   O     0.25520   0.24774   0.89721   0.00000  Uiso   1.00
O750   O     0.18936   0.17155   0.88524   0.00000  Uiso   1.00
O751   O     0.31065   0.16179   0.78143   0.00000  Uiso   1.00
O752   O     0.18090   0.16176   0.78143   0.00000  Uiso   1.00
O753   O     0.31910   0.17157   0.88523   0.00000  Uiso   1.00
O754   O     0.19993   0.12979   0.97774   0.00000  Uiso   1.00
C755   C     0.74832   0.06658   0.81768   0.00000  Uiso   1.00
C756   C     0.59022   0.11667   0.82396   0.00000  Uiso   1.00
C757   C     0.88346   0.16824   0.83092   0.00000  Uiso   1.00
C758   C     0.61654   0.16510   0.83574   0.00000  Uiso   1.00
C759   C     0.90301   0.12003   0.81935   0.00000  Uiso   1.00
C760   C     0.59699   0.21330   0.84727   0.00000  Uiso   1.00
C761   C     0.94944   0.11907   0.82011   0.00000  Uiso   1.00
C762   C     0.55056   0.21426   0.84647   0.00000  Uiso   1.00
C763   C     0.97652   0.16717   0.83258   0.00000  Uiso   1.00
C764   C     0.52348   0.16616   0.83398   0.00000  Uiso   1.00
C765   C     0.95671   0.21623   0.84374   0.00000  Uiso   1.00
C766   C     0.75168   0.26675   0.84898   0.00000  Uiso   1.00
C767   C     0.54328   0.11711   0.82283   0.00000  Uiso   1.00
C768   C     0.96915   0.07073   0.80901   0.00000  Uiso   1.00
C769   C     0.53084   0.26261   0.85756   0.00000  Uiso   1.00
C770   C     0.69100   0.07921   0.98797   0.00000  Uiso   1.00
C771   C     0.80901   0.25412   0.67870   0.00000  Uiso   1.00
C772   C     0.51565   0.06969   0.81035   0.00000  Uiso   1.00
C773   C     0.98435   0.26365   0.85621   0.00000  Uiso   1.00
C774   C     0.74660   0.01041   0.80920   0.00000  Uiso   1.00
C775   C     0.75340   0.32293   0.85747   0.00000  Uiso   1.00
C776   C     0.66466   0.16600   0.83407   0.00000  Uiso   1.00
C777   C     0.83534   0.16733   0.83259   0.00000  Uiso   1.00
C778   C     0.90977   0.21666   0.84266   0.00000  Uiso   1.00
Cu779  Cu    0.75501   0.17246   0.89479   0.00000  Uiso   1.00
Cu780  Cu    0.74500   0.16087   0.77187   0.00000  Uiso   1.00
H781   H     0.88190   0.08329   0.81047   0.00000  Uiso   1.00
H782   H     0.86659   0.26569   0.81574   0.00000  Uiso   1.00
H783   H     0.62905   0.06411   0.77487   0.00000  Uiso   1.00
H784   H     0.63327   0.06760   0.85106   0.00000  Uiso   1.00
H785   H     0.67436   0.08156   0.69735   0.00000  Uiso   1.00
H786   H     0.72178   0.05725   0.98811   0.00000  Uiso   1.00
H787   H     0.66728   0.05597   0.94994   0.00000  Uiso   1.00
H788   H     0.77823   0.27609   0.67856   0.00000  Uiso   1.00
H789   H     0.82564   0.25177   0.96931   0.00000  Uiso   1.00
H790   H     0.83274   0.27735   0.71672   0.00000  Uiso   1.00
H791   H     0.61810   0.25005   0.85617   0.00000  Uiso   1.00
H792   H     0.94855   0.03365   0.79923   0.00000  Uiso   1.00
H793   H     0.55145   0.29968   0.86734   0.00000  Uiso   1.00
H794   H     0.52975   0.03158   0.80133   0.00000  Uiso   1.00
H795   H     0.97024   0.30175   0.86523   0.00000  Uiso   1.00
H796   H     0.73931   0.31942   0.76299   0.00000  Uiso   1.00
H797   H     0.76069   0.01391   0.90367   0.00000  Uiso   1.00
H798   H     0.87111   0.26929   0.89195   0.00000  Uiso   1.00
N799   N     0.73745   0.15214   0.67951   0.00000  Uiso   1.00
N800   N     0.76256   0.18119   0.98716   0.00000  Uiso   1.00
N801   N     0.88916   0.26606   0.85340   0.00000  Uiso   1.00
N802   N     0.61083   0.06727   0.81326   0.00000  Uiso   1.00
O803   O     0.75326   0.09538   0.87326   0.00000  Uiso   1.00
O804   O     0.80007   0.20354   0.68893   0.00000  Uiso   1.00
O805   O     0.74675   0.23796   0.79341   0.00000  Uiso   1.00
O806   O     0.74480   0.08559   0.76945   0.00000  Uiso   1.00
O807   O     0.75520   0.24774   0.89721   0.00000  Uiso   1.00
O808   O     0.68936   0.17155   0.88524   0.00000  Uiso   1.00
O809   O     0.81065   0.16179   0.78143   0.00000  Uiso   1.00
O810   O     0.68090   0.16176   0.78143   0.00000  Uiso   1.00
O811   O     0.81910   0.17157   0.88523   0.00000  Uiso   1.00
O812   O     0.69993   0.12979   0.97774   0.00000  Uiso   1.00
C813   C     0.24832   0.39992   0.81768   0.00000  Uiso   1.00
C814   C     0.09022   0.45001   0.82396   0.00000  Uiso   1.00
C815   C     0.38346   0.50157   0.83092   0.00000  Uiso   1.00
C816   C     0.11654   0.49843   0.83574   0.00000  Uiso   1.00
C817   C     0.40301   0.45336   0.81935   0.00000  Uiso   1.00
C818   C     0.09699   0.54664   0.84727   0.00000  Uiso   1.00
C819   C     0.44944   0.45240   0.82011   0.00000  Uiso   1.00
C820   C     0.05056   0.54759   0.84647   0.00000  Uiso   1.00
C821   C     0.47652   0.50050   0.83258   0.00000  Uiso   1.00
C822   C     0.02348   0.49950   0.83398   0.00000  Uiso   1.00
C823   C     0.45671   0.54956   0.84374   0.00000  Uiso   1.00
C824   C     0.25168   0.60008   0.84898   0.00000  Uiso   1.00
C825   C     0.04328   0.45044   0.82283   0.00000  Uiso   1.00
C826   C     0.46915   0.40406   0.80901   0.00000  Uiso   1.00
C827   C     0.03084   0.59594   0.85756   0.00000  Uiso   1.00
C828   C     0.19100   0.41254   0.98797   0.00000  Uiso   1.00
C829   C     0.30901   0.58745   0.67870   0.00000  Uiso   1.00
C830   C     0.01565   0.40302   0.81035   0.00000  Uiso   1.00
C831   C     0.48435   0.59698   0.85621   0.00000  Uiso   1.00
C832   C     0.24660   0.34374   0.80920   0.00000  Uiso   1.00
C833   C     0.25340   0.65626   0.85747   0.00000  Uiso   1.00
C834   C     0.16466   0.49933   0.83407   0.00000  Uiso   1.00
C835   C     0.33534   0.50067   0.83259   0.00000  Uiso   1.00
C836   C     0.40977   0.54999   0.84266   0.00000  Uiso   1.00
Cu837  Cu    0.25501   0.50579   0.89479   0.00000  Uiso   1.00
Cu838  Cu    0.24500   0.49421   0.77187   0.00000  Uiso   1.00
H839   H     0.38190   0.41662   0.81047   0.00000  Uiso   1.00
H840   H     0.36659   0.59902   0.81574   0.00000  Uiso   1.00
H841   H     0.12905   0.39745   0.77487   0.00000  Uiso   1.00
H842   H     0.13327   0.40093   0.85106   0.00000  Uiso   1.00
H843   H     0.17436   0.41489   0.69735   0.00000  Uiso   1.00
H844   H     0.22178   0.39058   0.98811   0.00000  Uiso   1.00
H845   H     0.16728   0.38930   0.94994   0.00000  Uiso   1.00
H846   H     0.27823   0.60942   0.67856   0.00000  Uiso   1.00
H847   H     0.32564   0.58510   0.96931   0.00000  Uiso   1.00
H848   H     0.33274   0.61069   0.71672   0.00000  Uiso   1.00
H849   H     0.11810   0.58338   0.85617   0.00000  Uiso   1.00
H850   H     0.44855   0.36698   0.79923   0.00000  Uiso   1.00
H851   H     0.05145   0.63302   0.86734   0.00000  Uiso   1.00
H852   H     0.02975   0.36492   0.80133   0.00000  Uiso   1.00
H853   H     0.47024   0.63508   0.86523   0.00000  Uiso   1.00
H854   H     0.23931   0.65276   0.76299   0.00000  Uiso   1.00
H855   H     0.26069   0.34724   0.90367   0.00000  Uiso   1.00
H856   H     0.37111   0.60262   0.89195   0.00000  Uiso   1.00
N857   N     0.23745   0.48547   0.67951   0.00000  Uiso   1.00
N858   N     0.26256   0.51453   0.98716   0.00000  Uiso   1.00
N859   N     0.38916   0.59939   0.85340   0.00000  Uiso   1.00
N860   N     0.11083   0.40061   0.81326   0.00000  Uiso   1.00
O861   O     0.25326   0.42871   0.87326   0.00000  Uiso   1.00
O862   O     0.30007   0.53687   0.68893   0.00000  Uiso   1.00
O863   O     0.24675   0.57129   0.79341   0.00000  Uiso   1.00
O864   O     0.24480   0.41892   0.76945   0.00000  Uiso   1.00
O865   O     0.25520   0.58108   0.89721   0.00000  Uiso   1.00
O866   O     0.18936   0.50488   0.88524   0.00000  Uiso   1.00
O867   O     0.31065   0.49512   0.78143   0.00000  Uiso   1.00
O868   O     0.18090   0.49510   0.78143   0.00000  Uiso   1.00
O869   O     0.31910   0.50490   0.88523   0.00000  Uiso   1.00
O870   O     0.19993   0.46312   0.97774   0.00000  Uiso   1.00
C871   C     0.74832   0.39992   0.81768   0.00000  Uiso   1.00
C872   C     0.59022   0.45001   0.82396   0.00000  Uiso   1.00
C873   C     0.88346   0.50157   0.83092   0.00000  Uiso   1.00
C874   C     0.61654   0.49843   0.83574   0.00000  Uiso   1.00
C875   C     0.90301   0.45336   0.81935   0.00000  Uiso   1.00
C876   C     0.59699   0.54664   0.84727   0.00000  Uiso   1.00
C877   C     0.94944   0.45240   0.82011   0.00000  Uiso   1.00
C878   C     0.55056   0.54759   0.84647   0.00000  Uiso   1.00
C879   C     0.97652   0.50050   0.83258   0.00000  Uiso   1.00
C880   C     0.52348   0.49950   0.83398   0.00000  Uiso   1.00
C881   C     0.95671   0.54956   0.84374   0.00000  Uiso   1.00
C882   C     0.75168   0.60008   0.84898   0.00000  Uiso   1.00
C883   C     0.54328   0.45044   0.82283   0.00000  Uiso   1.00
C884   C     0.96915   0.40406   0.80901   0.00000  Uiso   1.00
C885   C     0.53084   0.59594   0.85756   0.00000  Uiso   1.00
C886   C     0.69100   0.41254   0.98797   0.00000  Uiso   1.00
C887   C     0.80901   0.58745   0.67870   0.00000  Uiso   1.00
C888   C     0.51565   0.40302   0.81035   0.00000  Uiso   1.00
C889   C     0.98435   0.59698   0.85621   0.00000  Uiso   1.00
C890   C     0.74660   0.34374   0.80920   0.00000  Uiso   1.00
C891   C     0.75340   0.65626   0.85747   0.00000  Uiso   1.00
C892   C     0.66466   0.49933   0.83407   0.00000  Uiso   1.00
C893   C     0.83534   0.50067   0.83259   0.00000  Uiso   1.00
C894   C     0.90977   0.54999   0.84266   0.00000  Uiso   1.00
Cu895  Cu    0.75501   0.50579   0.89479   0.00000  Uiso   1.00
Cu896  Cu    0.74500   0.49421   0.77187   0.00000  Uiso   1.00
H897   H     0.88190   0.41662   0.81047   0.00000  Uiso   1.00
H898   H     0.86659   0.59902   0.81574   0.00000  Uiso   1.00
H899   H     0.62905   0.39745   0.77487   0.00000  Uiso   1.00
H900   H     0.63327   0.40093   0.85106   0.00000  Uiso   1.00
H901   H     0.67436   0.41489   0.69735   0.00000  Uiso   1.00
H902   H     0.72178   0.39058   0.98811   0.00000  Uiso   1.00
H903   H     0.66728   0.38930   0.94994   0.00000  Uiso   1.00
H904   H     0.77823   0.60942   0.67856   0.00000  Uiso   1.00
H905   H     0.82564   0.58510   0.96931   0.00000  Uiso   1.00
H906   H     0.83274   0.61069   0.71672   0.00000  Uiso   1.00
H907   H     0.61810   0.58338   0.85617   0.00000  Uiso   1.00
H908   H     0.94855   0.36698   0.79923   0.00000  Uiso   1.00
H909   H     0.55145   0.63302   0.86734   0.00000  Uiso   1.00
H910   H     0.52975   0.36492   0.80133   0.00000  Uiso   1.00
H911   H     0.97024   0.63508   0.86523   0.00000  Uiso   1.00
H912   H     0.73931   0.65276   0.76299   0.00000  Uiso   1.00
H913   H     0.76069   0.34724   0.90367   0.00000  Uiso   1.00
H914   H     0.87111   0.60262   0.89195   0.00000  Uiso   1.00
N915   N     0.73745   0.48547   0.67951   0.00000  Uiso   1.00
N916   N     0.76256   0.51453   0.98716   0.00000  Uiso   1.00
N917   N     0.88916   0.59939   0.85340   0.00000  Uiso   1.00
N918   N     0.61083   0.40061   0.81326   0.00000  Uiso   1.00
O919   O     0.75326   0.42871   0.87326   0.00000  Uiso   1.00
O920   O     0.80007   0.53687   0.68893   0.00000  Uiso   1.00
O921   O     0.74675   0.57129   0.79341   0.00000  Uiso   1.00
O922   O     0.74480   0.41892   0.76945   0.00000  Uiso   1.00
O923   O     0.75520   0.58108   0.89721   0.00000  Uiso   1.00
O924   O     0.68936   0.50488   0.88524   0.00000  Uiso   1.00
O925   O     0.81065   0.49512   0.78143   0.00000  Uiso   1.00
O926   O     0.68090   0.49510   0.78143   0.00000  Uiso   1.00
O927   O     0.81910   0.50490   0.88523   0.00000  Uiso   1.00
O928   O     0.69993   0.46312   0.97774   0.00000  Uiso   1.00
C929   C     0.24832   0.73325   0.81768   0.00000  Uiso   1.00
C930   C     0.09022   0.78334   0.82396   0.00000  Uiso   1.00
C931   C     0.38346   0.83490   0.83092   0.00000  Uiso   1.00
C932   C     0.11654   0.83176   0.83574   0.00000  Uiso   1.00
C933   C     0.40301   0.78670   0.81935   0.00000  Uiso   1.00
C934   C     0.09699   0.87997   0.84727   0.00000  Uiso   1.00
C935   C     0.44944   0.78574   0.82011   0.00000  Uiso   1.00
C936   C     0.05056   0.88093   0.84647   0.00000  Uiso   1.00
C937   C     0.47652   0.83384   0.83258   0.00000  Uiso   1.00
C938   C     0.02348   0.83283   0.83398   0.00000  Uiso   1.00
C939   C     0.45671   0.88289   0.84374   0.00000  Uiso   1.00
C940   C     0.25168   0.93342   0.84898   0.00000  Uiso   1.00
C941   C     0.04328   0.78377   0.82283   0.00000  Uiso   1.00
C942   C     0.46915   0.73739   0.80901   0.00000  Uiso   1.00
C943   C     0.03084   0.92927   0.85756   0.00000  Uiso   1.00
C944   C     0.19100   0.74587   0.98797   0.00000  Uiso   1.00
C945   C     0.30901   0.92079   0.67870   0.00000  Uiso   1.00
C946   C     0.01565   0.73635   0.81035   0.00000  Uiso   1.00
C947   C     0.48435   0.93031   0.85621   0.00000  Uiso   1.00
C948   C     0.24660   0.67707   0.80920   0.00000  Uiso   1.00
C949   C     0.25340   0.98959   0.85747   0.00000  Uiso   1.00
C950   C     0.16466   0.83266   0.83407   0.00000  Uiso   1.00
C951   C     0.33534   0.83400   0.83259   0.00000  Uiso   1.00
C952   C     0.40977   0.88333   0.84266   0.00000  Uiso   1.00
Cu953  Cu    0.25501   0.83913   0.89479   0.00000  Uiso   1.00
Cu954  Cu    0.24500   0.82754   0.77187   0.00000  Uiso   1.00
H955   H     0.38190   0.74995   0.81047   0.00000  Uiso   1.00
H956   H     0.36659   0.93235   0.81574   0.00000  Uiso   1.00
H957   H     0.12905   0.73078   0.77487   0.00000  Uiso   1.00
H958   H     0.13327   0.73427   0.85106   0.00000  Uiso   1.00
H959   H     0.17436   0.74823   0.69735   0.00000  Uiso   1.00
H960   H     0.22178   0.72391   0.98811   0.00000  Uiso   1.00
H961   H     0.16728   0.72263   0.94994   0.00000  Uiso   1.00
H962   H     0.27823   0.94275   0.67856   0.00000  Uiso   1.00
H963   H     0.32564   0.91843   0.96931   0.00000  Uiso   1.00
H964   H     0.33274   0.94402   0.71672   0.00000  Uiso   1.00
H965   H     0.11810   0.91671   0.85617   0.00000  Uiso   1.00
H966   H     0.44855   0.70032   0.79923   0.00000  Uiso   1.00
H967   H     0.05145   0.96635   0.86734   0.00000  Uiso   1.00
H968   H     0.02975   0.69825   0.80133   0.00000  Uiso   1.00
H969   H     0.47024   0.96842   0.86523   0.00000  Uiso   1.00
H970   H     0.23931   0.98609   0.76299   0.00000  Uiso   1.00
H971   H     0.26069   0.68058   0.90367   0.00000  Uiso   1.00
H972   H     0.37111   0.93596   0.89195   0.00000  Uiso   1.00
N973   N     0.23745   0.81881   0.67951   0.00000  Uiso   1.00
N974   N     0.26256   0.84786   0.98716   0.00000  Uiso   1.00
N975   N     0.38916   0.93273   0.85340   0.00000  Uiso   1.00
N976   N     0.11083   0.73394   0.81326   0.00000  Uiso   1.00
O977   O     0.25326   0.76204   0.87326   0.00000  Uiso   1.00
O978   O     0.30007   0.87020   0.68893   0.00000  Uiso   1.00
O979   O     0.24675   0.90462   0.79341   0.00000  Uiso   1.00
O980   O     0.24480   0.75226   0.76945   0.00000  Uiso   1.00
O981   O     0.25520   0.91441   0.89721   0.00000  Uiso   1.00
O982   O     0.18936   0.83821   0.88524   0.00000  Uiso   1.00
O983   O     0.31065   0.82845   0.78143   0.00000  Uiso   1.00
O984   O     0.18090   0.82843   0.78143   0.00000  Uiso   1.00
O985   O     0.31910   0.83824   0.88523   0.00000  Uiso   1.00
O986   O     0.19993   0.79646   0.97774   0.00000  Uiso   1.00
C987   C     0.74832   0.73325   0.81768   0.00000  Uiso   1.00
C988   C     0.59022   0.78334   0.82396   0.00000  Uiso   1.00
C989   C     0.88346   0.83490   0.83092   0.00000  Uiso   1.00
C990   C     0.61654   0.83176   0.83574   0.00000  Uiso   1.00
C991   C     0.90301   0.78670   0.81935   0.00000  Uiso   1.00
C992   C     0.59699   0.87997   0.84727   0.00000  Uiso   1.00
C993   C     0.94944   0.78574   0.82011   0.00000  Uiso   1.00
C994   C     0.55056   0.88093   0.84647   0.00000  Uiso   1.00
C995   C     0.97652   0.83384   0.83258   0.00000  Uiso   1.00
C996   C     0.52348   0.83283   0.83398   0.00000  Uiso   1.00
C997   C     0.95671   0.88289   0.84374   0.00000  Uiso   1.00
C998   C     0.75168   0.93342   0.84898   0.00000  Uiso   1.00
C999   C     0.54328   0.78377   0.82283   0.00000  Uiso   1.00
C1000  C     0.96915   0.73739   0.80901   0.00000  Uiso   1.00
C1001  C     0.53084   0.92927   0.85756   0.00000  Uiso   1.00
C1002  C     0.69100   0.74587   0.98797   0.00000  Uiso   1.00
C1003  C     0.80901   0.92079   0.67870   0.00000  Uiso   1.00
C1004  C     0.51565   0.73635   0.81035   0.00000  Uiso   1.00
C1005  C     0.98435   0.93031   0.85621   0.00000  Uiso   1.00
C1006  C     0.74660   0.67707   0.80920   0.00000  Uiso   1.00
C1007  C     0.75340   0.98959   0.85747   0.00000  Uiso   1.00
C1008  C     0.66466   0.83266   0.83407   0.00000  Uiso   1.00
C1009  C     0.83534   0.83400   0.83259   0.00000  Uiso   1.00
C1010  C     0.90977   0.88333   0.84266   0.00000  Uiso   1.00
Cu1011 Cu    0.75501   0.83913   0.89479   0.00000  Uiso   1.00
Cu1012 Cu    0.74500   0.82754   0.77187   0.00000  Uiso   1.00
H1013  H     0.88190   0.74995   0.81047   0.00000  Uiso   1.00
H1014  H     0.86659   0.93235   0.81574   0.00000  Uiso   1.00
H1015  H     0.62905   0.73078   0.77487   0.00000  Uiso   1.00
H1016  H     0.63327   0.73427   0.85106   0.00000  Uiso   1.00
H1017  H     0.67436   0.74823   0.69735   0.00000  Uiso   1.00
H1018  H     0.72178   0.72391   0.98811   0.00000  Uiso   1.00
H1019  H     0.66728   0.72263   0.94994   0.00000  Uiso   1.00
H1020  H     0.77823   0.94275   0.67856   0.00000  Uiso   1.00
H1021  H     0.82564   0.91843   0.96931   0.00000  Uiso   1.00
H1022  H     0.83274   0.94402   0.71672   0.00000  Uiso   1.00
H1023  H     0.61810   0.91671   0.85617   0.00000  Uiso   1.00
H1024  H     0.94855   0.70032   0.79923   0.00000  Uiso   1.00
H1025  H     0.55145   0.96635   0.86734   0.00000  Uiso   1.00
H1026  H     0.52975   0.69825   0.80133   0.00000  Uiso   1.00
H1027  H     0.97024   0.96842   0.86523   0.00000  Uiso   1.00
H1028  H     0.73931   0.98609   0.76299   0.00000  Uiso   1.00
H1029  H     0.76069   0.68058   0.90367   0.00000  Uiso   1.00
H1030  H     0.87111   0.93596   0.89195   0.00000  Uiso   1.00
N1031  N     0.73745   0.81881   0.67951   0.00000  Uiso   1.00
N1032  N     0.76256   0.84786   0.98716   0.00000  Uiso   1.00
N1033  N     0.88916   0.93273   0.85340   0.00000  Uiso   1.00
N1034  N     0.61083   0.73394   0.81326   0.00000  Uiso   1.00
O1035  O     0.75326   0.76204   0.87326   0.00000  Uiso   1.00
O1036  O     0.80007   0.87020   0.68893   0.00000  Uiso   1.00
O1037  O     0.74675   0.90462   0.79341   0.00000  Uiso   1.00
O1038  O     0.74480   0.75226   0.76945   0.00000  Uiso   1.00
O1039  O     0.75520   0.91441   0.89721   0.00000  Uiso   1.00
O1040  O     0.68936   0.83821   0.88524   0.00000  Uiso   1.00
O1041  O     0.81065   0.82845   0.78143   0.00000  Uiso   1.00
O1042  O     0.68090   0.82843   0.78143   0.00000  Uiso   1.00
O1043  O     0.81910   0.83824   0.88523   0.00000  Uiso   1.00
O1044  O     0.69993   0.79646   0.97774   0.00000  Uiso   1.00
loop_
_geom_bond_atom_site_label_1
_geom_bond_atom_site_label_2
_geom_bond_distance
_geom_bond_site_symmetry_2
_ccdc_geom_bond_type
C1     O52     1.295   .     A
C1     C20     1.429   .     S
C1     O49     1.295   .     A
C2     C4      1.408   .     A
C2     C13     1.404   .     A
C2     N48     1.437   .     S
C3     C24     1.408   .     A
C3     C23     1.442   .     S
C3     C5      1.394   .     A
C4     C22     1.442   .     S
C4     C6      1.394   .     A
C5     H27     1.086   .     S
C5     C7      1.390   .     A
C6     H37     1.086   .     S
C6     C8      1.390   .     A
C7     C9      1.412   .     A
C7     C14     1.399   .     A
C8     C15     1.399   .     A
C8     C10     1.412   .     A
C9     C11     1.417   .     A
C9     C68     1.405   .     S
C10    C13     1.417   .     A
C10    C67     1.405   1_455 S
C11    C19     1.406   .     A
C11    C24     1.404   .     A
C12    O53     1.295   .     A
C12    C21     1.429   .     S
C12    O51     1.295   .     A
C13    C18     1.406   .     A
C14    H38     1.084   .     S
C14    C76     1.392   .     S
C15    H39     1.084   .     S
C15    C77     1.392   1_455 S
C16    H33     1.109   .     S
C16    O58     1.403   .     S
C16    H32     1.112   .     S
C16    H379    1.105   .     S
C17    O50     1.403   .     S
C17    H36     1.109   .     S
C17    H34     1.112   .     S
C17    H731    1.105   1_554 S
C18    H40     1.083   .     S
C18    C72     1.392   1_455 S
C19    H41     1.083   .     S
C19    C73     1.392   .     S
C20    C253    1.331   1_545 S
C20    H274    1.086   1_545 S
C21    C136    1.331   .     S
C21    H159    1.086   .     S
C22    O54     1.299   .     A
C22    O56     1.297   .     A
C23    O55     1.299   .     A
C23    O57     1.297   .     A
C24    N47     1.437   .     S
Cu25   O54     1.959   .     S
Cu25   O57     1.946   .     S
Cu25   O53     1.949   .     S
Cu25   O49     1.950   .     S
Cu25   Cu26    2.709   .     S
Cu25   N46     2.035   .     S
Cu26   O52     1.949   .     S
Cu26   O55     1.959   .     S
Cu26   N45     2.035   .     S
Cu26   O51     1.950   .     S
Cu26   O56     1.946   .     S
H28    N47     1.045   .     S
H29    N48     1.044   .     S
H30    N48     1.045   .     S
H31    C712    1.105   1_554 S
H35    C365    1.105   .     S
H42    C136    1.086   .     S
H43    C253    1.086   1_545 S
H44    N47     1.044   .     S
N45    N742    1.292   1_554 S
N45    O754    1.346   1_554 S
N46    N393    1.292   .     S
N46    O398    1.346   .     S
O50    N742    1.346   1_554 S
O58    N393    1.346   .     S
C59    O110    1.295   .     A
C59    C78     1.429   .     S
C59    O107    1.295   .     A
C60    C62     1.408   .     A
C60    C71     1.404   .     A
C60    N106    1.437   .     S
C61    C82     1.408   .     A
C61    C81     1.442   .     S
C61    C63     1.394   .     A
C62    C80     1.442   .     S
C62    C64     1.394   .     A
C63    H85     1.086   .     S
C63    C65     1.390   .     A
C64    H95     1.086   .     S
C64    C66     1.390   .     A
C65    C67     1.412   .     A
C65    C72     1.399   .     A
C66    C73     1.399   .     A
C66    C68     1.412   .     A
C67    C69     1.417   .     A
C67    C10     1.405   1_655 S
C68    C71     1.417   .     A
C69    C77     1.406   .     A
C69    C82     1.404   .     A
C70    O111    1.295   .     A
C70    C79     1.429   .     S
C70    O109    1.295   .     A
C71    C76     1.406   .     A
C72    H96     1.084   .     S
C72    C18     1.392   1_655 S
C73    H97     1.084   .     S
C74    H91     1.109   .     S
C74    O116    1.403   .     S
C74    H90     1.112   .     S
C74    H437    1.105   .     S
C75    O108    1.403   .     S
C75    H94     1.109   .     S
C75    H92     1.112   .     S
C75    H789    1.105   1_554 S
C76    H98     1.083   .     S
C77    H99     1.083   .     S
C77    C15     1.392   1_655 S
C78    C311    1.331   1_545 S
C78    H332    1.086   1_545 S
C79    C194    1.331   .     S
C79    H217    1.086   .     S
C80    O112    1.299   .     A
C80    O114    1.297   .     A
C81    O113    1.299   .     A
C81    O115    1.297   .     A
C82    N105    1.437   .     S
Cu83   O112    1.959   .     S
Cu83   O115    1.946   .     S
Cu83   O111    1.949   .     S
Cu83   O107    1.950   .     S
Cu83   Cu84    2.709   .     S
Cu83   N104    2.035   .     S
Cu84   O110    1.949   .     S
Cu84   O113    1.959   .     S
Cu84   N103    2.035   .     S
Cu84   O109    1.950   .     S
Cu84   O114    1.946   .     S
H86    N105    1.045   .     S
H87    N106    1.044   .     S
H88    N106    1.045   .     S
H89    C770    1.105   1_554 S
H93    C423    1.105   .     S
H100   C194    1.086   .     S
H101   C311    1.086   1_545 S
H102   N105    1.044   .     S
N103   N800    1.292   1_554 S
N103   O812    1.346   1_554 S
N104   N451    1.292   .     S
N104   O456    1.346   .     S
O108   N800    1.346   1_554 S
O116   N451    1.346   .     S
C117   O168    1.295   .     A
C117   C136    1.429   .     S
C117   O165    1.295   .     A
C118   C120    1.408   .     A
C118   C129    1.404   .     A
C118   N164    1.437   .     S
C119   C140    1.408   .     A
C119   C139    1.442   .     S
C119   C121    1.394   .     A
C120   C138    1.442   .     S
C120   C122    1.394   .     A
C121   H143    1.086   .     S
C121   C123    1.390   .     A
C122   H153    1.086   .     S
C122   C124    1.390   .     A
C123   C125    1.412   .     A
C123   C130    1.399   .     A
C124   C131    1.399   .     A
C124   C126    1.412   .     A
C125   C127    1.417   .     A
C125   C184    1.405   .     S
C126   C129    1.417   .     A
C126   C183    1.405   1_455 S
C127   C135    1.406   .     A
C127   C140    1.404   .     A
C128   O169    1.295   .     A
C128   C137    1.429   .     S
C128   O167    1.295   .     A
C129   C134    1.406   .     A
C130   H154    1.084   .     S
C130   C192    1.392   .     S
C131   H155    1.084   .     S
C131   C193    1.392   1_455 S
C132   H149    1.109   .     S
C132   O174    1.403   .     S
C132   H148    1.112   .     S
C132   H495    1.105   .     S
C133   O166    1.403   .     S
C133   H152    1.109   .     S
C133   H150    1.112   .     S
C133   H847    1.105   1_554 S
C134   H156    1.083   .     S
C134   C188    1.392   1_455 S
C135   H157    1.083   .     S
C135   C189    1.392   .     S
C137   C252    1.331   .     S
C137   H275    1.086   .     S
C138   O170    1.299   .     A
C138   O172    1.297   .     A
C139   O171    1.299   .     A
C139   O173    1.297   .     A
C140   N163    1.437   .     S
Cu141  O170    1.959   .     S
Cu141  O173    1.946   .     S
Cu141  O169    1.949   .     S
Cu141  O165    1.950   .     S
Cu141  Cu142   2.709   .     S
Cu141  N162    2.035   .     S
Cu142  O168    1.949   .     S
Cu142  O171    1.959   .     S
Cu142  N161    2.035   .     S
Cu142  O167    1.950   .     S
Cu142  O172    1.946   .     S
H144   N163    1.045   .     S
H145   N164    1.044   .     S
H146   N164    1.045   .     S
H147   C828    1.105   1_554 S
H151   C481    1.105   .     S
H158   C252    1.086   .     S
H160   N163    1.044   .     S
N161   N858    1.292   1_554 S
N161   O870    1.346   1_554 S
N162   N509    1.292   .     S
N162   O514    1.346   .     S
O166   N858    1.346   1_554 S
O174   N509    1.346   .     S
C175   O226    1.295   .     A
C175   C194    1.429   .     S
C175   O223    1.295   .     A
C176   C178    1.408   .     A
C176   C187    1.404   .     A
C176   N222    1.437   .     S
C177   C198    1.408   .     A
C177   C197    1.442   .     S
C177   C179    1.394   .     A
C178   C196    1.442   .     S
C178   C180    1.394   .     A
C179   H201    1.086   .     S
C179   C181    1.390   .     A
C180   H211    1.086   .     S
C180   C182    1.390   .     A
C181   C183    1.412   .     A
C181   C188    1.399   .     A
C182   C189    1.399   .     A
C182   C184    1.412   .     A
C183   C185    1.417   .     A
C183   C126    1.405   1_655 S
C184   C187    1.417   .     A
C185   C193    1.406   .     A
C185   C198    1.404   .     A
C186   O227    1.295   .     A
C186   C195    1.429   .     S
C186   O225    1.295   .     A
C187   C192    1.406   .     A
C188   H212    1.084   .     S
C188   C134    1.392   1_655 S
C189   H213    1.084   .     S
C190   H207    1.109   .     S
C190   O232    1.403   .     S
C190   H206    1.112   .     S
C190   H553    1.105   .     S
C191   O224    1.403   .     S
C191   H210    1.109   .     S
C191   H208    1.112   .     S
C191   H905    1.105   1_554 S
C192   H214    1.083   .     S
C193   H215    1.083   .     S
C193   C131    1.392   1_655 S
C195   C310    1.331   .     S
C195   H333    1.086   .     S
C196   O228    1.299   .     A
C196   O230    1.297   .     A
C197   O229    1.299   .     A
C197   O231    1.297   .     A
C198   N221    1.437   .     S
Cu199  O228    1.959   .     S
Cu199  O231    1.946   .     S
Cu199  O227    1.949   .     S
Cu199  O223    1.950   .     S
Cu199  Cu200   2.709   .     S
Cu199  N220    2.035   .     S
Cu200  O226    1.949   .     S
Cu200  O229    1.959   .     S
Cu200  N219    2.035   .     S
Cu200  O225    1.950   .     S
Cu200  O230    1.946   .     S
H202   N221    1.045   .     S
H203   N222    1.044   .     S
H204   N222    1.045   .     S
H205   C886    1.105   1_554 S
H209   C539    1.105   .     S
H216   C310    1.086   .     S
H218   N221    1.044   .     S
N219   N916    1.292   1_554 S
N219   O928    1.346   1_554 S
N220   N567    1.292   .     S
N220   O572    1.346   .     S
O224   N916    1.346   1_554 S
O232   N567    1.346   .     S
C233   O284    1.295   .     A
C233   C252    1.429   .     S
C233   O281    1.295   .     A
C234   C236    1.408   .     A
C234   C245    1.404   .     A
C234   N280    1.437   .     S
C235   C256    1.408   .     A
C235   C255    1.442   .     S
C235   C237    1.394   .     A
C236   C254    1.442   .     S
C236   C238    1.394   .     A
C237   H259    1.086   .     S
C237   C239    1.390   .     A
C238   H269    1.086   .     S
C238   C240    1.390   .     A
C239   C241    1.412   .     A
C239   C246    1.399   .     A
C240   C247    1.399   .     A
C240   C242    1.412   .     A
C241   C243    1.417   .     A
C241   C300    1.405   .     S
C242   C245    1.417   .     A
C242   C299    1.405   1_455 S
C243   C251    1.406   .     A
C243   C256    1.404   .     A
C244   O285    1.295   .     A
C244   C253    1.429   .     S
C244   O283    1.295   .     A
C245   C250    1.406   .     A
C246   H270    1.084   .     S
C246   C308    1.392   .     S
C247   H271    1.084   .     S
C247   C309    1.392   1_455 S
C248   H265    1.109   .     S
C248   O290    1.403   .     S
C248   H264    1.112   .     S
C248   H611    1.105   .     S
C249   O282    1.403   .     S
C249   H268    1.109   .     S
C249   H266    1.112   .     S
C249   H963    1.105   1_554 S
C250   H272    1.083   .     S
C250   C304    1.392   1_455 S
C251   H273    1.083   .     S
C251   C305    1.392   .     S
C253   C20     1.331   1_565 S
C253   H43     1.086   1_565 S
C254   O286    1.299   .     A
C254   O288    1.297   .     A
C255   O287    1.299   .     A
C255   O289    1.297   .     A
C256   N279    1.437   .     S
Cu257  O286    1.959   .     S
Cu257  O289    1.946   .     S
Cu257  O285    1.949   .     S
Cu257  O281    1.950   .     S
Cu257  Cu258   2.709   .     S
Cu257  N278    2.035   .     S
Cu258  O284    1.949   .     S
Cu258  O287    1.959   .     S
Cu258  N277    2.035   .     S
Cu258  O283    1.950   .     S
Cu258  O288    1.946   .     S
H260   N279    1.045   .     S
H261   N280    1.044   .     S
H262   N280    1.045   .     S
H263   C944    1.105   1_554 S
H267   C597    1.105   .     S
H274   C20     1.086   1_565 S
H276   N279    1.044   .     S
N277   N974    1.292   1_554 S
N277   O986    1.346   1_554 S
N278   N625    1.292   .     S
N278   O630    1.346   .     S
O282   N974    1.346   1_554 S
O290   N625    1.346   .     S
C291   O342    1.295   .     A
C291   C310    1.429   .     S
C291   O339    1.295   .     A
C292   C294    1.408   .     A
C292   C303    1.404   .     A
C292   N338    1.437   .     S
C293   C314    1.408   .     A
C293   C313    1.442   .     S
C293   C295    1.394   .     A
C294   C312    1.442   .     S
C294   C296    1.394   .     A
C295   H317    1.086   .     S
C295   C297    1.390   .     A
C296   H327    1.086   .     S
C296   C298    1.390   .     A
C297   C299    1.412   .     A
C297   C304    1.399   .     A
C298   C305    1.399   .     A
C298   C300    1.412   .     A
C299   C301    1.417   .     A
C299   C242    1.405   1_655 S
C300   C303    1.417   .     A
C301   C309    1.406   .     A
C301   C314    1.404   .     A
C302   O343    1.295   .     A
C302   C311    1.429   .     S
C302   O341    1.295   .     A
C303   C308    1.406   .     A
C304   H328    1.084   .     S
C304   C250    1.392   1_655 S
C305   H329    1.084   .     S
C306   H323    1.109   .     S
C306   O348    1.403   .     S
C306   H322    1.112   .     S
C306   H669    1.105   .     S
C307   O340    1.403   .     S
C307   H326    1.109   .     S
C307   H324    1.112   .     S
C307   H1021   1.105   1_554 S
C308   H330    1.083   .     S
C309   H331    1.083   .     S
C309   C247    1.392   1_655 S
C311   C78     1.331   1_565 S
C311   H101    1.086   1_565 S
C312   O344    1.299   .     A
C312   O346    1.297   .     A
C313   O345    1.299   .     A
C313   O347    1.297   .     A
C314   N337    1.437   .     S
Cu315  O344    1.959   .     S
Cu315  O347    1.946   .     S
Cu315  O343    1.949   .     S
Cu315  O339    1.950   .     S
Cu315  Cu316   2.709   .     S
Cu315  N336    2.035   .     S
Cu316  O342    1.949   .     S
Cu316  O345    1.959   .     S
Cu316  N335    2.035   .     S
Cu316  O341    1.950   .     S
Cu316  O346    1.946   .     S
H318   N337    1.045   .     S
H319   N338    1.044   .     S
H320   N338    1.045   .     S
H321   C1002   1.105   1_554 S
H325   C655    1.105   .     S
H332   C78     1.086   1_565 S
H334   N337    1.044   .     S
N335   N1032   1.292   1_554 S
N335   O1044   1.346   1_554 S
N336   N683    1.292   .     S
N336   O688    1.346   .     S
O340   N1032   1.346   1_554 S
O348   N683    1.346   .     S
C349   O400    1.295   .     A
C349   C368    1.429   .     S
C349   O397    1.295   .     A
C350   C352    1.408   .     A
C350   C361    1.404   .     A
C350   N396    1.437   .     S
C351   C372    1.408   .     A
C351   C371    1.442   .     S
C351   C353    1.394   .     A
C352   C370    1.442   .     S
C352   C354    1.394   .     A
C353   H375    1.086   .     S
C353   C355    1.390   .     A
C354   H385    1.086   .     S
C354   C356    1.390   .     A
C355   C357    1.412   .     A
C355   C362    1.399   .     A
C356   C363    1.399   .     A
C356   C358    1.412   .     A
C357   C359    1.417   .     A
C357   C416    1.405   .     S
C358   C361    1.417   .     A
C358   C415    1.405   1_455 S
C359   C367    1.406   .     A
C359   C372    1.404   .     A
C360   O401    1.295   .     A
C360   C369    1.429   .     S
C360   O399    1.295   .     A
C361   C366    1.406   .     A
C362   H386    1.084   .     S
C362   C424    1.392   .     S
C363   H387    1.084   .     S
C363   C425    1.392   1_455 S
C364   H381    1.109   .     S
C364   O406    1.403   .     S
C364   H380    1.112   .     S
C364   H727    1.105   .     S
C365   O398    1.403   .     S
C365   H384    1.109   .     S
C365   H382    1.112   .     S
C366   H388    1.083   .     S
C366   C420    1.392   1_455 S
C367   H389    1.083   .     S
C367   C421    1.392   .     S
C368   C601    1.331   1_545 S
C368   H622    1.086   1_545 S
C369   C484    1.331   .     S
C369   H507    1.086   .     S
C370   O402    1.299   .     A
C370   O404    1.297   .     A
C371   O403    1.299   .     A
C371   O405    1.297   .     A
C372   N395    1.437   .     S
Cu373  O402    1.959   .     S
Cu373  O405    1.946   .     S
Cu373  O401    1.949   .     S
Cu373  O397    1.950   .     S
Cu373  Cu374   2.709   .     S
Cu373  N394    2.035   .     S
Cu374  O400    1.949   .     S
Cu374  O403    1.959   .     S
Cu374  N393    2.035   .     S
Cu374  O399    1.950   .     S
Cu374  O404    1.946   .     S
H376   N395    1.045   .     S
H377   N396    1.044   .     S
H378   N396    1.045   .     S
H383   C713    1.105   .     S
H390   C484    1.086   .     S
H391   C601    1.086   1_545 S
H392   N395    1.044   .     S
N394   N741    1.292   .     S
N394   O746    1.346   .     S
O406   N741    1.346   .     S
C407   O458    1.295   .     A
C407   C426    1.429   .     S
C407   O455    1.295   .     A
C408   C410    1.408   .     A
C408   C419    1.404   .     A
C408   N454    1.437   .     S
C409   C430    1.408   .     A
C409   C429    1.442   .     S
C409   C411    1.394   .     A
C410   C428    1.442   .     S
C410   C412    1.394   .     A
C411   H433    1.086   .     S
C411   C413    1.390   .     A
C412   H443    1.086   .     S
C412   C414    1.390   .     A
C413   C415    1.412   .     A
C413   C420    1.399   .     A
C414   C421    1.399   .     A
C414   C416    1.412   .     A
C415   C417    1.417   .     A
C415   C358    1.405   1_655 S
C416   C419    1.417   .     A
C417   C425    1.406   .     A
C417   C430    1.404   .     A
C418   O459    1.295   .     A
C418   C427    1.429   .     S
C418   O457    1.295   .     A
C419   C424    1.406   .     A
C420   H444    1.084   .     S
C420   C366    1.392   1_655 S
C421   H445    1.084   .     S
C422   H439    1.109   .     S
C422   O464    1.403   .     S
C422   H438    1.112   .     S
C422   H785    1.105   .     S
C423   O456    1.403   .     S
C423   H442    1.109   .     S
C423   H440    1.112   .     S
C424   H446    1.083   .     S
C425   H447    1.083   .     S
C425   C363    1.392   1_655 S
C426   C659    1.331   1_545 S
C426   H680    1.086   1_545 S
C427   C542    1.331   .     S
C427   H565    1.086   .     S
C428   O460    1.299   .     A
C428   O462    1.297   .     A
C429   O461    1.299   .     A
C429   O463    1.297   .     A
C430   N453    1.437   .     S
Cu431  O460    1.959   .     S
Cu431  O463    1.946   .     S
Cu431  O459    1.949   .     S
Cu431  O455    1.950   .     S
Cu431  Cu432   2.709   .     S
Cu431  N452    2.035   .     S
Cu432  O458    1.949   .     S
Cu432  O461    1.959   .     S
Cu432  N451    2.035   .     S
Cu432  O457    1.950   .     S
Cu432  O462    1.946   .     S
H434   N453    1.045   .     S
H435   N454    1.044   .     S
H436   N454    1.045   .     S
H441   C771    1.105   .     S
H448   C542    1.086   .     S
H449   C659    1.086   1_545 S
H450   N453    1.044   .     S
N452   N799    1.292   .     S
N452   O804    1.346   .     S
O464   N799    1.346   .     S
C465   O516    1.295   .     A
C465   C484    1.429   .     S
C465   O513    1.295   .     A
C466   C468    1.408   .     A
C466   C477    1.404   .     A
C466   N512    1.437   .     S
C467   C488    1.408   .     A
C467   C487    1.442   .     S
C467   C469    1.394   .     A
C468   C486    1.442   .     S
C468   C470    1.394   .     A
C469   H491    1.086   .     S
C469   C471    1.390   .     A
C470   H501    1.086   .     S
C470   C472    1.390   .     A
C471   C473    1.412   .     A
C471   C478    1.399   .     A
C472   C479    1.399   .     A
C472   C474    1.412   .     A
C473   C475    1.417   .     A
C473   C532    1.405   .     S
C474   C477    1.417   .     A
C474   C531    1.405   1_455 S
C475   C483    1.406   .     A
C475   C488    1.404   .     A
C476   O517    1.295   .     A
C476   C485    1.429   .     S
C476   O515    1.295   .     A
C477   C482    1.406   .     A
C478   H502    1.084   .     S
C478   C540    1.392   .     S
C479   H503    1.084   .     S
C479   C541    1.392   1_455 S
C480   H497    1.109   .     S
C480   O522    1.403   .     S
C480   H496    1.112   .     S
C480   H843    1.105   .     S
C481   O514    1.403   .     S
C481   H500    1.109   .     S
C481   H498    1.112   .     S
C482   H504    1.083   .     S
C482   C536    1.392   1_455 S
C483   H505    1.083   .     S
C483   C537    1.392   .     S
C485   C600    1.331   .     S
C485   H623    1.086   .     S
C486   O518    1.299   .     A
C486   O520    1.297   .     A
C487   O519    1.299   .     A
C487   O521    1.297   .     A
C488   N511    1.437   .     S
Cu489  O518    1.959   .     S
Cu489  O521    1.946   .     S
Cu489  O517    1.949   .     S
Cu489  O513    1.950   .     S
Cu489  Cu490   2.709   .     S
Cu489  N510    2.035   .     S
Cu490  O516    1.949   .     S
Cu490  O519    1.959   .     S
Cu490  N509    2.035   .     S
Cu490  O515    1.950   .     S
Cu490  O520    1.946   .     S
H492   N511    1.045   .     S
H493   N512    1.044   .     S
H494   N512    1.045   .     S
H499   C829    1.105   .     S
H506   C600    1.086   .     S
H508   N511    1.044   .     S
N510   N857    1.292   .     S
N510   O862    1.346   .     S
O522   N857    1.346   .     S
C523   O574    1.295   .     A
C523   C542    1.429   .     S
C523   O571    1.295   .     A
C524   C526    1.408   .     A
C524   C535    1.404   .     A
C524   N570    1.437   .     S
C525   C546    1.408   .     A
C525   C545    1.442   .     S
C525   C527    1.394   .     A
C526   C544    1.442   .     S
C526   C528    1.394   .     A
C527   H549    1.086   .     S
C527   C529    1.390   .     A
C528   H559    1.086   .     S
C528   C530    1.390   .     A
C529   C531    1.412   .     A
C529   C536    1.399   .     A
C530   C537    1.399   .     A
C530   C532    1.412   .     A
C531   C533    1.417   .     A
C531   C474    1.405   1_655 S
C532   C535    1.417   .     A
C533   C541    1.406   .     A
C533   C546    1.404   .     A
C534   O575    1.295   .     A
C534   C543    1.429   .     S
C534   O573    1.295   .     A
C535   C540    1.406   .     A
C536   H560    1.084   .     S
C536   C482    1.392   1_655 S
C537   H561    1.084   .     S
C538   H555    1.109   .     S
C538   O580    1.403   .     S
C538   H554    1.112   .     S
C538   H901    1.105   .     S
C539   O572    1.403   .     S
C539   H558    1.109   .     S
C539   H556    1.112   .     S
C540   H562    1.083   .     S
C541   H563    1.083   .     S
C541   C479    1.392   1_655 S
C543   C658    1.331   .     S
C543   H681    1.086   .     S
C544   O576    1.299   .     A
C544   O578    1.297   .     A
C545   O577    1.299   .     A
C545   O579    1.297   .     A
C546   N569    1.437   .     S
Cu547  O576    1.959   .     S
Cu547  O579    1.946   .     S
Cu547  O575    1.949   .     S
Cu547  O571    1.950   .     S
Cu547  Cu548   2.709   .     S
Cu547  N568    2.035   .     S
Cu548  O574    1.949   .     S
Cu548  O577    1.959   .     S
Cu548  N567    2.035   .     S
Cu548  O573    1.950   .     S
Cu548  O578    1.946   .     S
H550   N569    1.045   .     S
H551   N570    1.044   .     S
H552   N570    1.045   .     S
H557   C887    1.105   .     S
H564   C658    1.086   .     S
H566   N569    1.044   .     S
N568   N915    1.292   .     S
N568   O920    1.346   .     S
O580   N915    1.346   .     S
C581   O632    1.295   .     A
C581   C600    1.429   .     S
C581   O629    1.295   .     A
C582   C584    1.408   .     A
C582   C593    1.404   .     A
C582   N628    1.437   .     S
C583   C604    1.408   .     A
C583   C603    1.442   .     S
C583   C585    1.394   .     A
C584   C602    1.442   .     S
C584   C586    1.394   .     A
C585   H607    1.086   .     S
C585   C587    1.390   .     A
C586   H617    1.086   .     S
C586   C588    1.390   .     A
C587   C589    1.412   .     A
C587   C594    1.399   .     A
C588   C595    1.399   .     A
C588   C590    1.412   .     A
C589   C591    1.417   .     A
C589   C648    1.405   .     S
C590   C593    1.417   .     A
C590   C647    1.405   1_455 S
C591   C599    1.406   .     A
C591   C604    1.404   .     A
C592   O633    1.295   .     A
C592   C601    1.429   .     S
C592   O631    1.295   .     A
C593   C598    1.406   .     A
C594   H618    1.084   .     S
C594   C656    1.392   .     S
C595   H619    1.084   .     S
C595   C657    1.392   1_455 S
C596   H613    1.109   .     S
C596   O638    1.403   .     S
C596   H612    1.112   .     S
C596   H959    1.105   .     S
C597   O630    1.403   .     S
C597   H616    1.109   .     S
C597   H614    1.112   .     S
C598   H620    1.083   .     S
C598   C652    1.392   1_455 S
C599   H621    1.083   .     S
C599   C653    1.392   .     S
C601   C368    1.331   1_565 S
C601   H391    1.086   1_565 S
C602   O634    1.299   .     A
C602   O636    1.297   .     A
C603   O635    1.299   .     A
C603   O637    1.297   .     A
C604   N627    1.437   .     S
Cu605  O634    1.959   .     S
Cu605  O637    1.946   .     S
Cu605  O633    1.949   .     S
Cu605  O629    1.950   .     S
Cu605  Cu606   2.709   .     S
Cu605  N626    2.035   .     S
Cu606  O632    1.949   .     S
Cu606  O635    1.959   .     S
Cu606  N625    2.035   .     S
Cu606  O631    1.950   .     S
Cu606  O636    1.946   .     S
H608   N627    1.045   .     S
H609   N628    1.044   .     S
H610   N628    1.045   .     S
H615   C945    1.105   .     S
H622   C368    1.086   1_565 S
H624   N627    1.044   .     S
N626   N973    1.292   .     S
N626   O978    1.346   .     S
O638   N973    1.346   .     S
C639   O690    1.295   .     A
C639   C658    1.429   .     S
C639   O687    1.295   .     A
C640   C642    1.408   .     A
C640   C651    1.404   .     A
C640   N686    1.437   .     S
C641   C662    1.408   .     A
C641   C661    1.442   .     S
C641   C643    1.394   .     A
C642   C660    1.442   .     S
C642   C644    1.394   .     A
C643   H665    1.086   .     S
C643   C645    1.390   .     A
C644   H675    1.086   .     S
C644   C646    1.390   .     A
C645   C647    1.412   .     A
C645   C652    1.399   .     A
C646   C653    1.399   .     A
C646   C648    1.412   .     A
C647   C649    1.417   .     A
C647   C590    1.405   1_655 S
C648   C651    1.417   .     A
C649   C657    1.406   .     A
C649   C662    1.404   .     A
C650   O691    1.295   .     A
C650   C659    1.429   .     S
C650   O689    1.295   .     A
C651   C656    1.406   .     A
C652   H676    1.084   .     S
C652   C598    1.392   1_655 S
C653   H677    1.084   .     S
C654   H671    1.109   .     S
C654   O696    1.403   .     S
C654   H670    1.112   .     S
C654   H1017   1.105   .     S
C655   O688    1.403   .     S
C655   H674    1.109   .     S
C655   H672    1.112   .     S
C656   H678    1.083   .     S
C657   H679    1.083   .     S
C657   C595    1.392   1_655 S
C659   C426    1.331   1_565 S
C659   H449    1.086   1_565 S
C660   O692    1.299   .     A
C660   O694    1.297   .     A
C661   O693    1.299   .     A
C661   O695    1.297   .     A
C662   N685    1.437   .     S
Cu663  O692    1.959   .     S
Cu663  O695    1.946   .     S
Cu663  O691    1.949   .     S
Cu663  O687    1.950   .     S
Cu663  Cu664   2.709   .     S
Cu663  N684    2.035   .     S
Cu664  O690    1.949   .     S
Cu664  O693    1.959   .     S
Cu664  N683    2.035   .     S
Cu664  O689    1.950   .     S
Cu664  O694    1.946   .     S
H666   N685    1.045   .     S
H667   N686    1.044   .     S
H668   N686    1.045   .     S
H673   C1003   1.105   .     S
H680   C426    1.086   1_565 S
H682   N685    1.044   .     S
N684   N1031   1.292   .     S
N684   O1036   1.346   .     S
O696   N1031   1.346   .     S
C697   O748    1.295   .     A
C697   C716    1.429   .     S
C697   O745    1.295   .     A
C698   C700    1.408   .     A
C698   C709    1.404   .     A
C698   N744    1.437   .     S
C699   C720    1.408   .     A
C699   C719    1.442   .     S
C699   C701    1.394   .     A
C700   C718    1.442   .     S
C700   C702    1.394   .     A
C701   H723    1.086   .     S
C701   C703    1.390   .     A
C702   H733    1.086   .     S
C702   C704    1.390   .     A
C703   C705    1.412   .     A
C703   C710    1.399   .     A
C704   C711    1.399   .     A
C704   C706    1.412   .     A
C705   C707    1.417   .     A
C705   C764    1.405   .     S
C706   C709    1.417   .     A
C706   C763    1.405   1_455 S
C707   C715    1.406   .     A
C707   C720    1.404   .     A
C708   O749    1.295   .     A
C708   C717    1.429   .     S
C708   O747    1.295   .     A
C709   C714    1.406   .     A
C710   H734    1.084   .     S
C710   C772    1.392   .     S
C711   H735    1.084   .     S
C711   C773    1.392   1_455 S
C712   H729    1.109   .     S
C712   O754    1.403   .     S
C712   H728    1.112   .     S
C712   H31     1.105   1_556 S
C713   O746    1.403   .     S
C713   H732    1.109   .     S
C713   H730    1.112   .     S
C714   H736    1.083   .     S
C714   C768    1.392   1_455 S
C715   H737    1.083   .     S
C715   C769    1.392   .     S
C716   C949    1.331   1_545 S
C716   H970    1.086   1_545 S
C717   C832    1.331   .     S
C717   H855    1.086   .     S
C718   O750    1.299   .     A
C718   O752    1.297   .     A
C719   O751    1.299   .     A
C719   O753    1.297   .     A
C720   N743    1.437   .     S
Cu721  O750    1.959   .     S
Cu721  O753    1.946   .     S
Cu721  O749    1.949   .     S
Cu721  O745    1.950   .     S
Cu721  Cu722   2.709   .     S
Cu721  N742    2.035   .     S
Cu722  O748    1.949   .     S
Cu722  O751    1.959   .     S
Cu722  N741    2.035   .     S
Cu722  O747    1.950   .     S
Cu722  O752    1.946   .     S
H724   N743    1.045   .     S
H725   N744    1.044   .     S
H726   N744    1.045   .     S
H731   C17     1.105   1_556 S
H738   C832    1.086   .     S
H739   C949    1.086   1_545 S
H740   N743    1.044   .     S
N742   N45     1.292   1_556 S
N742   O50     1.346   1_556 S
O754   N45     1.346   1_556 S
C755   O806    1.295   .     A
C755   C774    1.429   .     S
C755   O803    1.295   .     A
C756   C758    1.408   .     A
C756   C767    1.404   .     A
C756   N802    1.437   .     S
C757   C778    1.408   .     A
C757   C777    1.442   .     S
C757   C759    1.394   .     A
C758   C776    1.442   .     S
C758   C760    1.394   .     A
C759   H781    1.086   .     S
C759   C761    1.390   .     A
C760   H791    1.086   .     S
C760   C762    1.390   .     A
C761   C763    1.412   .     A
C761   C768    1.399   .     A
C762   C769    1.399   .     A
C762   C764    1.412   .     A
C763   C765    1.417   .     A
C763   C706    1.405   1_655 S
C764   C767    1.417   .     A
C765   C773    1.406   .     A
C765   C778    1.404   .     A
C766   O807    1.295   .     A
C766   C775    1.429   .     S
C766   O805    1.295   .     A
C767   C772    1.406   .     A
C768   H792    1.084   .     S
C768   C714    1.392   1_655 S
C769   H793    1.084   .     S
C770   H787    1.109   .     S
C770   O812    1.403   .     S
C770   H786    1.112   .     S
C770   H89     1.105   1_556 S
C771   O804    1.403   .     S
C771   H790    1.109   .     S
C771   H788    1.112   .     S
C772   H794    1.083   .     S
C773   H795    1.083   .     S
C773   C711    1.392   1_655 S
C774   C1007   1.331   1_545 S
C774   H1028   1.086   1_545 S
C775   C890    1.331   .     S
C775   H913    1.086   .     S
C776   O808    1.299   .     A
C776   O810    1.297   .     A
C777   O809    1.299   .     A
C777   O811    1.297   .     A
C778   N801    1.437   .     S
Cu779  O808    1.959   .     S
Cu779  O811    1.946   .     S
Cu779  O807    1.949   .     S
Cu779  O803    1.950   .     S
Cu779  Cu780   2.709   .     S
Cu779  N800    2.035   .     S
Cu780  O806    1.949   .     S
Cu780  O809    1.959   .     S
Cu780  N799    2.035   .     S
Cu780  O805    1.950   .     S
Cu780  O810    1.946   .     S
H782   N801    1.045   .     S
H783   N802    1.044   .     S
H784   N802    1.045   .     S
H789   C75     1.105   1_556 S
H796   C890    1.086   .     S
H797   C1007   1.086   1_545 S
H798   N801    1.044   .     S
N800   N103    1.292   1_556 S
N800   O108    1.346   1_556 S
O812   N103    1.346   1_556 S
C813   O864    1.295   .     A
C813   C832    1.429   .     S
C813   O861    1.295   .     A
C814   C816    1.408   .     A
C814   C825    1.404   .     A
C814   N860    1.437   .     S
C815   C836    1.408   .     A
C815   C835    1.442   .     S
C815   C817    1.394   .     A
C816   C834    1.442   .     S
C816   C818    1.394   .     A
C817   H839    1.086   .     S
C817   C819    1.390   .     A
C818   H849    1.086   .     S
C818   C820    1.390   .     A
C819   C821    1.412   .     A
C819   C826    1.399   .     A
C820   C827    1.399   .     A
C820   C822    1.412   .     A
C821   C823    1.417   .     A
C821   C880    1.405   .     S
C822   C825    1.417   .     A
C822   C879    1.405   1_455 S
C823   C831    1.406   .     A
C823   C836    1.404   .     A
C824   O865    1.295   .     A
C824   C833    1.429   .     S
C824   O863    1.295   .     A
C825   C830    1.406   .     A
C826   H850    1.084   .     S
C826   C888    1.392   .     S
C827   H851    1.084   .     S
C827   C889    1.392   1_455 S
C828   H845    1.109   .     S
C828   O870    1.403   .     S
C828   H844    1.112   .     S
C828   H147    1.105   1_556 S
C829   O862    1.403   .     S
C829   H848    1.109   .     S
C829   H846    1.112   .     S
C830   H852    1.083   .     S
C830   C884    1.392   1_455 S
C831   H853    1.083   .     S
C831   C885    1.392   .     S
C833   C948    1.331   .     S
C833   H971    1.086   .     S
C834   O866    1.299   .     A
C834   O868    1.297   .     A
C835   O867    1.299   .     A
C835   O869    1.297   .     A
C836   N859    1.437   .     S
Cu837  O866    1.959   .     S
Cu837  O869    1.946   .     S
Cu837  O865    1.949   .     S
Cu837  O861    1.950   .     S
Cu837  Cu838   2.709   .     S
Cu837  N858    2.035   .     S
Cu838  O864    1.949   .     S
Cu838  O867    1.959   .     S
Cu838  N857    2.035   .     S
Cu838  O863    1.950   .     S
Cu838  O868    1.946   .     S
H840   N859    1.045   .     S
H841   N860    1.044   .     S
H842   N860    1.045   .     S
H847   C133    1.105   1_556 S
H854   C948    1.086   .     S
H856   N859    1.044   .     S
N858   N161    1.292   1_556 S
N858   O166    1.346   1_556 S
O870   N161    1.346   1_556 S
C871   O922    1.295   .     A
C871   C890    1.429   .     S
C871   O919    1.295   .     A
C872   C874    1.408   .     A
C872   C883    1.404   .     A
C872   N918    1.437   .     S
C873   C894    1.408   .     A
C873   C893    1.442   .     S
C873   C875    1.394   .     A
C874   C892    1.442   .     S
C874   C876    1.394   .     A
C875   H897    1.086   .     S
C875   C877    1.390   .     A
C876   H907    1.086   .     S
C876   C878    1.390   .     A
C877   C879    1.412   .     A
C877   C884    1.399   .     A
C878   C885    1.399   .     A
C878   C880    1.412   .     A
C879   C881    1.417   .     A
C879   C822    1.405   1_655 S
C880   C883    1.417   .     A
C881   C889    1.406   .     A
C881   C894    1.404   .     A
C882   O923    1.295   .     A
C882   C891    1.429   .     S
C882   O921    1.295   .     A
C883   C888    1.406   .     A
C884   H908    1.084   .     S
C884   C830    1.392   1_655 S
C885   H909    1.084   .     S
C886   H903    1.109   .     S
C886   O928    1.403   .     S
C886   H902    1.112   .     S
C886   H205    1.105   1_556 S
C887   O920    1.403   .     S
C887   H906    1.109   .     S
C887   H904    1.112   .     S
C888   H910    1.083   .     S
C889   H911    1.083   .     S
C889   C827    1.392   1_655 S
C891   C1006   1.331   .     S
C891   H1029   1.086   .     S
C892   O924    1.299   .     A
C892   O926    1.297   .     A
C893   O925    1.299   .     A
C893   O927    1.297   .     A
C894   N917    1.437   .     S
Cu895  O924    1.959   .     S
Cu895  O927    1.946   .     S
Cu895  O923    1.949   .     S
Cu895  O919    1.950   .     S
Cu895  Cu896   2.709   .     S
Cu895  N916    2.035   .     S
Cu896  O922    1.949   .     S
Cu896  O925    1.959   .     S
Cu896  N915    2.035   .     S
Cu896  O921    1.950   .     S
Cu896  O926    1.946   .     S
H898   N917    1.045   .     S
H899   N918    1.044   .     S
H900   N918    1.045   .     S
H905   C191    1.105   1_556 S
H912   C1006   1.086   .     S
H914   N917    1.044   .     S
N916   N219    1.292   1_556 S
N916   O224    1.346   1_556 S
O928   N219    1.346   1_556 S
C929   O980    1.295   .     A
C929   C948    1.429   .     S
C929   O977    1.295   .     A
C930   C932    1.408   .     A
C930   C941    1.404   .     A
C930   N976    1.437   .     S
C931   C952    1.408   .     A
C931   C951    1.442   .     S
C931   C933    1.394   .     A
C932   C950    1.442   .     S
C932   C934    1.394   .     A
C933   H955    1.086   .     S
C933   C935    1.390   .     A
C934   H965    1.086   .     S
C934   C936    1.390   .     A
C935   C937    1.412   .     A
C935   C942    1.399   .     A
C936   C943    1.399   .     A
C936   C938    1.412   .     A
C937   C939    1.417   .     A
C937   C996    1.405   .     S
C938   C941    1.417   .     A
C938   C995    1.405   1_455 S
C939   C947    1.406   .     A
C939   C952    1.404   .     A
C940   O981    1.295   .     A
C940   C949    1.429   .     S
C940   O979    1.295   .     A
C941   C946    1.406   .     A
C942   H966    1.084   .     S
C942   C1004   1.392   .     S
C943   H967    1.084   .     S
C943   C1005   1.392   1_455 S
C944   H961    1.109   .     S
C944   O986    1.403   .     S
C944   H960    1.112   .     S
C944   H263    1.105   1_556 S
C945   O978    1.403   .     S
C945   H964    1.109   .     S
C945   H962    1.112   .     S
C946   H968    1.083   .     S
C946   C1000   1.392   1_455 S
C947   H969    1.083   .     S
C947   C1001   1.392   .     S
C949   C716    1.331   1_565 S
C949   H739    1.086   1_565 S
C950   O982    1.299   .     A
C950   O984    1.297   .     A
C951   O983    1.299   .     A
C951   O985    1.297   .     A
C952   N975    1.437   .     S
Cu953  O982    1.959   .     S
Cu953  O985    1.946   .     S
Cu953  O981    1.949   .     S
Cu953  O977    1.950   .     S
Cu953  Cu954   2.709   .     S
Cu953  N974    2.035   .     S
Cu954  O980    1.949   .     S
Cu954  O983    1.959   .     S
Cu954  N973    2.035   .     S
Cu954  O979    1.950   .     S
Cu954  O984    1.946   .     S
H956   N975    1.045   .     S
H957   N976    1.044   .     S
H958   N976    1.045   .     S
H963   C249    1.105   1_556 S
H970   C716    1.086   1_565 S
H972   N975    1.044   .     S
N974   N277    1.292   1_556 S
N974   O282    1.346   1_556 S
O986   N277    1.346   1_556 S
C987   O1038   1.295   .     A
C987   C1006   1.429   .     S
C987   O1035   1.295   .     A
C988   C990    1.408   .     A
C988   C999    1.404   .     A
C988   N1034   1.437   .     S
C989   C1010   1.408   .     A
C989   C1009   1.442   .     S
C989   C991    1.394   .     A
C990   C1008   1.442   .     S
C990   C992    1.394   .     A
C991   H1013   1.086   .     S
C991   C993    1.390   .     A
C992   H1023   1.086   .     S
C992   C994    1.390   .     A
C993   C995    1.412   .     A
C993   C1000   1.399   .     A
C994   C1001   1.399   .     A
C994   C996    1.412   .     A
C995   C997    1.417   .     A
C995   C938    1.405   1_655 S
C996   C999    1.417   .     A
C997   C1005   1.406   .     A
C997   C1010   1.404   .     A
C998   O1039   1.295   .     A
C998   C1007   1.429   .     S
C998   O1037   1.295   .     A
C999   C1004   1.406   .     A
C1000  H1024   1.084   .     S
C1000  C946    1.392   1_655 S
C1001  H1025   1.084   .     S
C1002  H1019   1.109   .     S
C1002  O1044   1.403   .     S
C1002  H1018   1.112   .     S
C1002  H321    1.105   1_556 S
C1003  O1036   1.403   .     S
C1003  H1022   1.109   .     S
C1003  H1020   1.112   .     S
C1004  H1026   1.083   .     S
C1005  H1027   1.083   .     S
C1005  C943    1.392   1_655 S
C1007  C774    1.331   1_565 S
C1007  H797    1.086   1_565 S
C1008  O1040   1.299   .     A
C1008  O1042   1.297   .     A
C1009  O1041   1.299   .     A
C1009  O1043   1.297   .     A
C1010  N1033   1.437   .     S
Cu1011 O1040   1.959   .     S
Cu1011 O1043   1.946   .     S
Cu1011 O1039   1.949   .     S
Cu1011 O1035   1.950   .     S
Cu1011 Cu1012  2.709   .     S
Cu1011 N1032   2.035   .     S
Cu1012 O1038   1.949   .     S
Cu1012 O1041   1.959   .     S
Cu1012 N1031   2.035   .     S
Cu1012 O1037   1.950   .     S
Cu1012 O1042   1.946   .     S
H1014  N1033   1.045   .     S
H1015  N1034   1.044   .     S
H1016  N1034   1.045   .     S
H1021  C307    1.105   1_556 S
H1028  C774    1.086   1_565 S
H1030  N1033   1.044   .     S
N1032  N335    1.292   1_556 S
N1032  O340    1.346   1_556 S
O1044  N335    1.346   1_556 S
