data_str_m1_o10_o16_pcu_sym.88
_audit_creation_date              2020-01-03
_audit_creation_method            'Materials Studio'
_symmetry_space_group_name_H-M    'P1'
_symmetry_Int_Tables_number       1
_symmetry_cell_setting            triclinic
loop_
_symmetry_equiv_pos_as_xyz
  x,y,z
_cell_length_a                    32.5608
_cell_length_b                    32.7508
_cell_length_c                    31.0065
_cell_angle_alpha                 96.3961
_cell_angle_beta                  74.1312
_cell_angle_gamma                 98.5955
loop_
_atom_site_label
_atom_site_type_symbol
_atom_site_fract_x
_atom_site_fract_y
_atom_site_fract_z
_atom_site_U_iso_or_equiv
_atom_site_adp_type
_atom_site_occupancy
C1     C     0.05273   0.15950   0.26048   0.00000  Uiso   1.00
C2     C     0.16677   0.15531   0.05946   0.00000  Uiso   1.00
C3     C     0.23419   0.13089   0.05585   0.00000  Uiso   1.00
C4     C     0.28092   0.17381   0.23967   0.00000  Uiso   1.00
C5     C     0.13836   0.18986   0.42032   0.00000  Uiso   1.00
C6     C     0.32713   0.17609   0.23436   0.00000  Uiso   1.00
C7     C     0.00757   0.15814   0.26375   0.00000  Uiso   1.00
C8     C     0.18061   0.32264   0.23729   0.00000  Uiso   1.00
C9     C     0.15119   0.01258   0.26425   0.00000  Uiso   1.00
C10    C     0.15612   0.05624   0.26020   0.00000  Uiso   1.00
C11    C     0.17657   0.27798   0.24025   0.00000  Uiso   1.00
C12    C     0.07864   0.18362   0.48646   0.00000  Uiso   1.00
C13    C     0.18554   0.14846   0.12930   0.00000  Uiso   1.00
C14    C     0.14913   0.18527   0.37082   0.00000  Uiso   1.00
C15    C     0.24769   0.13503   0.00972   0.00000  Uiso   1.00
C16    C     0.19454   0.14246   0.08072   0.00000  Uiso   1.00
C17    C     0.09571   0.19483   0.44283   0.00000  Uiso   1.00
C18    C     0.21758   0.00809   0.20442   0.00000  Uiso   1.00
C19    C     0.11265   0.33000   0.29698   0.00000  Uiso   1.00
C20    C     0.29007   0.12475   0.48574   0.00000  Uiso   1.00
C21    C     0.07988   0.14477   0.04717   0.00000  Uiso   1.00
C22    C     0.23431   0.20643   0.38725   0.00000  Uiso   1.00
C23    C     0.10369   0.16729   0.00863   0.00000  Uiso   1.00
C24    C     0.02359   0.19733   0.19738   0.00000  Uiso   1.00
C25    C     0.14919   0.16841   0.48952   0.00000  Uiso   1.00
C26    C     0.16668   0.18061   0.44460   0.00000  Uiso   1.00
C27    C     0.17784   0.15692   0.01247   0.00000  Uiso   1.00
C28    C     0.22066   0.15060   0.48829   0.00000  Uiso   1.00
C29    C     0.23704   0.16404   0.44498   0.00000  Uiso   1.00
C30    C     0.21178   0.18239   0.42511   0.00000  Uiso   1.00
H31    H     0.25564   0.12113   0.07293   0.00000  Uiso   1.00
H32    H     0.31856   0.14285   0.29184   0.00000  Uiso   1.00
H33    H     0.27083   0.16365   0.42786   0.00000  Uiso   1.00
H34    H     0.13892   0.16823   0.08076   0.00000  Uiso   1.00
H35    H     0.07400   0.20302   0.42513   0.00000  Uiso   1.00
H36    H     0.04446   0.18414   0.00148   0.00000  Uiso   1.00
N37    N     0.24700   0.02307   0.17826   0.00000  Uiso   1.00
N38    N     0.08182   0.31747   0.32315   0.00000  Uiso   1.00
N39    N     0.32394   0.11644   0.46654   0.00000  Uiso   1.00
N40    N     0.06056   0.12669   0.07789   0.00000  Uiso   1.00
N41    N     0.25247   0.22569   0.35708   0.00000  Uiso   1.00
N42    N     0.04738   0.21421   0.16789   0.00000  Uiso   1.00
O43    O     0.16667   0.16667   0.25000   0.00000  Uiso   1.00
O44    O     0.15451   0.12637   0.15459   0.00000  Uiso   1.00
O45    O     0.12940   0.20391   0.34968   0.00000  Uiso   1.00
O46    O     0.20824   0.17759   0.14606   0.00000  Uiso   1.00
O47    O     0.17451   0.15880   0.34968   0.00000  Uiso   1.00
O48    O     0.17930   0.08019   0.28214   0.00000  Uiso   1.00
O49    O     0.14632   0.26085   0.27013   0.00000  Uiso   1.00
O50    O     0.07412   0.13291   0.23413   0.00000  Uiso   1.00
O51    O     0.26693   0.19272   0.21361   0.00000  Uiso   1.00
O52    O     0.07071   0.18878   0.28213   0.00000  Uiso   1.00
O53    O     0.25491   0.15226   0.27014   0.00000  Uiso   1.00
O54    O     0.13760   0.06944   0.23413   0.00000  Uiso   1.00
O55    O     0.20345   0.25620   0.21360   0.00000  Uiso   1.00
Zn56   Zn    0.19338   0.13994   0.28734   0.00000  Uiso   1.00
Zn57   Zn    0.13379   0.12458   0.21875   0.00000  Uiso   1.00
Zn58   Zn    0.21056   0.19775   0.20657   0.00000  Uiso   1.00
Zn59   Zn    0.12893   0.20439   0.28733   0.00000  Uiso   1.00
C60    C     0.38606   0.15950   0.26048   0.00000  Uiso   1.00
C61    C     0.50011   0.15531   0.05946   0.00000  Uiso   1.00
C62    C     0.56752   0.13089   0.05585   0.00000  Uiso   1.00
C63    C     0.61426   0.17381   0.23967   0.00000  Uiso   1.00
C64    C     0.47169   0.18986   0.42032   0.00000  Uiso   1.00
C65    C     0.66046   0.17609   0.23436   0.00000  Uiso   1.00
C66    C     0.34090   0.15814   0.26375   0.00000  Uiso   1.00
C67    C     0.51394   0.32264   0.23729   0.00000  Uiso   1.00
C68    C     0.48453   0.01258   0.26425   0.00000  Uiso   1.00
C69    C     0.48946   0.05624   0.26020   0.00000  Uiso   1.00
C70    C     0.50991   0.27798   0.24025   0.00000  Uiso   1.00
C71    C     0.41197   0.18362   0.48646   0.00000  Uiso   1.00
C72    C     0.51887   0.14846   0.12930   0.00000  Uiso   1.00
C73    C     0.48246   0.18527   0.37082   0.00000  Uiso   1.00
C74    C     0.58102   0.13503   0.00972   0.00000  Uiso   1.00
C75    C     0.52787   0.14246   0.08072   0.00000  Uiso   1.00
C76    C     0.42904   0.19483   0.44283   0.00000  Uiso   1.00
C77    C     0.55091   0.00809   0.20442   0.00000  Uiso   1.00
C78    C     0.44598   0.33000   0.29698   0.00000  Uiso   1.00
C79    C     0.62340   0.12475   0.48574   0.00000  Uiso   1.00
C80    C     0.41322   0.14477   0.04717   0.00000  Uiso   1.00
C81    C     0.56764   0.20643   0.38725   0.00000  Uiso   1.00
C82    C     0.43703   0.16729   0.00863   0.00000  Uiso   1.00
C83    C     0.35693   0.19733   0.19738   0.00000  Uiso   1.00
C84    C     0.48252   0.16841   0.48952   0.00000  Uiso   1.00
C85    C     0.50002   0.18061   0.44460   0.00000  Uiso   1.00
C86    C     0.51117   0.15692   0.01247   0.00000  Uiso   1.00
C87    C     0.55399   0.15060   0.48829   0.00000  Uiso   1.00
C88    C     0.57037   0.16404   0.44498   0.00000  Uiso   1.00
C89    C     0.54511   0.18239   0.42511   0.00000  Uiso   1.00
H90    H     0.58898   0.12113   0.07293   0.00000  Uiso   1.00
H91    H     0.65190   0.14285   0.29184   0.00000  Uiso   1.00
H92    H     0.60417   0.16365   0.42786   0.00000  Uiso   1.00
H93    H     0.47226   0.16823   0.08076   0.00000  Uiso   1.00
H94    H     0.40734   0.20302   0.42513   0.00000  Uiso   1.00
H95    H     0.37779   0.18414   0.00148   0.00000  Uiso   1.00
N96    N     0.58033   0.02307   0.17826   0.00000  Uiso   1.00
N97    N     0.41515   0.31747   0.32315   0.00000  Uiso   1.00
N98    N     0.65727   0.11644   0.46654   0.00000  Uiso   1.00
N99    N     0.39389   0.12669   0.07789   0.00000  Uiso   1.00
N100   N     0.58580   0.22569   0.35708   0.00000  Uiso   1.00
N101   N     0.38071   0.21421   0.16789   0.00000  Uiso   1.00
O102   O     0.50000   0.16667   0.25000   0.00000  Uiso   1.00
O103   O     0.48784   0.12637   0.15459   0.00000  Uiso   1.00
O104   O     0.46274   0.20391   0.34968   0.00000  Uiso   1.00
O105   O     0.54157   0.17759   0.14606   0.00000  Uiso   1.00
O106   O     0.50785   0.15880   0.34968   0.00000  Uiso   1.00
O107   O     0.51264   0.08019   0.28214   0.00000  Uiso   1.00
O108   O     0.47965   0.26085   0.27013   0.00000  Uiso   1.00
O109   O     0.40745   0.13291   0.23413   0.00000  Uiso   1.00
O110   O     0.60026   0.19272   0.21361   0.00000  Uiso   1.00
O111   O     0.40405   0.18878   0.28213   0.00000  Uiso   1.00
O112   O     0.58824   0.15226   0.27014   0.00000  Uiso   1.00
O113   O     0.47093   0.06944   0.23413   0.00000  Uiso   1.00
O114   O     0.53678   0.25620   0.21360   0.00000  Uiso   1.00
Zn115  Zn    0.52672   0.13994   0.28734   0.00000  Uiso   1.00
Zn116  Zn    0.46713   0.12458   0.21875   0.00000  Uiso   1.00
Zn117  Zn    0.54389   0.19775   0.20657   0.00000  Uiso   1.00
Zn118  Zn    0.46226   0.20439   0.28733   0.00000  Uiso   1.00
C119   C     0.71939   0.15950   0.26048   0.00000  Uiso   1.00
C120   C     0.83344   0.15531   0.05946   0.00000  Uiso   1.00
C121   C     0.90086   0.13089   0.05585   0.00000  Uiso   1.00
C122   C     0.94759   0.17381   0.23967   0.00000  Uiso   1.00
C123   C     0.80503   0.18986   0.42032   0.00000  Uiso   1.00
C124   C     0.99379   0.17609   0.23436   0.00000  Uiso   1.00
C125   C     0.67423   0.15814   0.26375   0.00000  Uiso   1.00
C126   C     0.84728   0.32264   0.23729   0.00000  Uiso   1.00
C127   C     0.81786   0.01258   0.26425   0.00000  Uiso   1.00
C128   C     0.82279   0.05624   0.26020   0.00000  Uiso   1.00
C129   C     0.84324   0.27798   0.24025   0.00000  Uiso   1.00
C130   C     0.74530   0.18362   0.48646   0.00000  Uiso   1.00
C131   C     0.85220   0.14846   0.12930   0.00000  Uiso   1.00
C132   C     0.81580   0.18527   0.37082   0.00000  Uiso   1.00
C133   C     0.91435   0.13503   0.00972   0.00000  Uiso   1.00
C134   C     0.86121   0.14246   0.08072   0.00000  Uiso   1.00
C135   C     0.76237   0.19483   0.44283   0.00000  Uiso   1.00
C136   C     0.88424   0.00809   0.20442   0.00000  Uiso   1.00
C137   C     0.77931   0.33000   0.29698   0.00000  Uiso   1.00
C138   C     0.95673   0.12475   0.48574   0.00000  Uiso   1.00
C139   C     0.74655   0.14477   0.04717   0.00000  Uiso   1.00
C140   C     0.90097   0.20643   0.38725   0.00000  Uiso   1.00
C141   C     0.77036   0.16729   0.00863   0.00000  Uiso   1.00
C142   C     0.69026   0.19733   0.19738   0.00000  Uiso   1.00
C143   C     0.81585   0.16841   0.48952   0.00000  Uiso   1.00
C144   C     0.83335   0.18061   0.44460   0.00000  Uiso   1.00
C145   C     0.84451   0.15692   0.01247   0.00000  Uiso   1.00
C146   C     0.88733   0.15060   0.48829   0.00000  Uiso   1.00
C147   C     0.90370   0.16404   0.44498   0.00000  Uiso   1.00
C148   C     0.87844   0.18239   0.42511   0.00000  Uiso   1.00
H149   H     0.92231   0.12113   0.07293   0.00000  Uiso   1.00
H150   H     0.98523   0.14285   0.29184   0.00000  Uiso   1.00
H151   H     0.93750   0.16365   0.42786   0.00000  Uiso   1.00
H152   H     0.80559   0.16823   0.08076   0.00000  Uiso   1.00
H153   H     0.74067   0.20302   0.42513   0.00000  Uiso   1.00
H154   H     0.71112   0.18414   0.00148   0.00000  Uiso   1.00
N155   N     0.91366   0.02307   0.17826   0.00000  Uiso   1.00
N156   N     0.74849   0.31747   0.32315   0.00000  Uiso   1.00
N157   N     0.99060   0.11644   0.46654   0.00000  Uiso   1.00
N158   N     0.72723   0.12669   0.07789   0.00000  Uiso   1.00
N159   N     0.91913   0.22569   0.35708   0.00000  Uiso   1.00
N160   N     0.71404   0.21421   0.16789   0.00000  Uiso   1.00
O161   O     0.83333   0.16667   0.25000   0.00000  Uiso   1.00
O162   O     0.82118   0.12637   0.15459   0.00000  Uiso   1.00
O163   O     0.79607   0.20391   0.34968   0.00000  Uiso   1.00
O164   O     0.87491   0.17759   0.14606   0.00000  Uiso   1.00
O165   O     0.84118   0.15880   0.34968   0.00000  Uiso   1.00
O166   O     0.84597   0.08019   0.28214   0.00000  Uiso   1.00
O167   O     0.81298   0.26085   0.27013   0.00000  Uiso   1.00
O168   O     0.74078   0.13291   0.23413   0.00000  Uiso   1.00
O169   O     0.93360   0.19272   0.21361   0.00000  Uiso   1.00
O170   O     0.73738   0.18878   0.28213   0.00000  Uiso   1.00
O171   O     0.92158   0.15226   0.27014   0.00000  Uiso   1.00
O172   O     0.80426   0.06944   0.23413   0.00000  Uiso   1.00
O173   O     0.87012   0.25620   0.21360   0.00000  Uiso   1.00
Zn174  Zn    0.86005   0.13994   0.28734   0.00000  Uiso   1.00
Zn175  Zn    0.80046   0.12458   0.21875   0.00000  Uiso   1.00
Zn176  Zn    0.87723   0.19775   0.20657   0.00000  Uiso   1.00
Zn177  Zn    0.79560   0.20439   0.28733   0.00000  Uiso   1.00
C178   C     0.05273   0.49283   0.26048   0.00000  Uiso   1.00
C179   C     0.16677   0.48864   0.05946   0.00000  Uiso   1.00
C180   C     0.23419   0.46423   0.05585   0.00000  Uiso   1.00
C181   C     0.28092   0.50714   0.23967   0.00000  Uiso   1.00
C182   C     0.13836   0.52319   0.42032   0.00000  Uiso   1.00
C183   C     0.32713   0.50943   0.23436   0.00000  Uiso   1.00
C184   C     0.00757   0.49147   0.26375   0.00000  Uiso   1.00
C185   C     0.18061   0.65597   0.23729   0.00000  Uiso   1.00
C186   C     0.15119   0.34591   0.26425   0.00000  Uiso   1.00
C187   C     0.15612   0.38957   0.26020   0.00000  Uiso   1.00
C188   C     0.17657   0.61131   0.24025   0.00000  Uiso   1.00
C189   C     0.07864   0.51695   0.48646   0.00000  Uiso   1.00
C190   C     0.18554   0.48179   0.12930   0.00000  Uiso   1.00
C191   C     0.14913   0.51861   0.37082   0.00000  Uiso   1.00
C192   C     0.24769   0.46837   0.00972   0.00000  Uiso   1.00
C193   C     0.19454   0.47579   0.08072   0.00000  Uiso   1.00
C194   C     0.09571   0.52816   0.44283   0.00000  Uiso   1.00
C195   C     0.21758   0.34143   0.20442   0.00000  Uiso   1.00
C196   C     0.11265   0.66333   0.29698   0.00000  Uiso   1.00
C197   C     0.29007   0.45808   0.48574   0.00000  Uiso   1.00
C198   C     0.07988   0.47811   0.04717   0.00000  Uiso   1.00
C199   C     0.23431   0.53977   0.38725   0.00000  Uiso   1.00
C200   C     0.10369   0.50063   0.00863   0.00000  Uiso   1.00
C201   C     0.02359   0.53066   0.19738   0.00000  Uiso   1.00
C202   C     0.14919   0.50174   0.48952   0.00000  Uiso   1.00
C203   C     0.16668   0.51395   0.44460   0.00000  Uiso   1.00
C204   C     0.17784   0.49025   0.01247   0.00000  Uiso   1.00
C205   C     0.22066   0.48393   0.48829   0.00000  Uiso   1.00
C206   C     0.23704   0.49737   0.44498   0.00000  Uiso   1.00
C207   C     0.21178   0.51573   0.42511   0.00000  Uiso   1.00
H208   H     0.25564   0.45446   0.07293   0.00000  Uiso   1.00
H209   H     0.31856   0.47618   0.29184   0.00000  Uiso   1.00
H210   H     0.27083   0.49698   0.42786   0.00000  Uiso   1.00
H211   H     0.13892   0.50157   0.08076   0.00000  Uiso   1.00
H212   H     0.07400   0.53636   0.42513   0.00000  Uiso   1.00
H213   H     0.04446   0.51747   0.00148   0.00000  Uiso   1.00
N214   N     0.24700   0.35640   0.17826   0.00000  Uiso   1.00
N215   N     0.08182   0.65080   0.32315   0.00000  Uiso   1.00
N216   N     0.32394   0.44977   0.46654   0.00000  Uiso   1.00
N217   N     0.06056   0.46003   0.07789   0.00000  Uiso   1.00
N218   N     0.25247   0.55902   0.35708   0.00000  Uiso   1.00
N219   N     0.04738   0.54755   0.16789   0.00000  Uiso   1.00
O220   O     0.16667   0.50000   0.25000   0.00000  Uiso   1.00
O221   O     0.15451   0.45970   0.15459   0.00000  Uiso   1.00
O222   O     0.12940   0.53724   0.34968   0.00000  Uiso   1.00
O223   O     0.20824   0.51092   0.14606   0.00000  Uiso   1.00
O224   O     0.17451   0.49213   0.34968   0.00000  Uiso   1.00
O225   O     0.17930   0.41352   0.28214   0.00000  Uiso   1.00
O226   O     0.14632   0.59418   0.27013   0.00000  Uiso   1.00
O227   O     0.07412   0.46625   0.23413   0.00000  Uiso   1.00
O228   O     0.26693   0.52605   0.21361   0.00000  Uiso   1.00
O229   O     0.07071   0.52211   0.28213   0.00000  Uiso   1.00
O230   O     0.25491   0.48559   0.27014   0.00000  Uiso   1.00
O231   O     0.13760   0.40277   0.23413   0.00000  Uiso   1.00
O232   O     0.20345   0.58953   0.21360   0.00000  Uiso   1.00
Zn233  Zn    0.19338   0.47327   0.28734   0.00000  Uiso   1.00
Zn234  Zn    0.13379   0.45791   0.21875   0.00000  Uiso   1.00
Zn235  Zn    0.21056   0.53109   0.20657   0.00000  Uiso   1.00
Zn236  Zn    0.12893   0.53773   0.28733   0.00000  Uiso   1.00
C237   C     0.38606   0.49283   0.26048   0.00000  Uiso   1.00
C238   C     0.50011   0.48864   0.05946   0.00000  Uiso   1.00
C239   C     0.56752   0.46423   0.05585   0.00000  Uiso   1.00
C240   C     0.61426   0.50714   0.23967   0.00000  Uiso   1.00
C241   C     0.47169   0.52319   0.42032   0.00000  Uiso   1.00
C242   C     0.66046   0.50943   0.23436   0.00000  Uiso   1.00
C243   C     0.34090   0.49147   0.26375   0.00000  Uiso   1.00
C244   C     0.51394   0.65597   0.23729   0.00000  Uiso   1.00
C245   C     0.48453   0.34591   0.26425   0.00000  Uiso   1.00
C246   C     0.48946   0.38957   0.26020   0.00000  Uiso   1.00
C247   C     0.50991   0.61131   0.24025   0.00000  Uiso   1.00
C248   C     0.41197   0.51695   0.48646   0.00000  Uiso   1.00
C249   C     0.51887   0.48179   0.12930   0.00000  Uiso   1.00
C250   C     0.48246   0.51861   0.37082   0.00000  Uiso   1.00
C251   C     0.58102   0.46837   0.00972   0.00000  Uiso   1.00
C252   C     0.52787   0.47579   0.08072   0.00000  Uiso   1.00
C253   C     0.42904   0.52816   0.44283   0.00000  Uiso   1.00
C254   C     0.55091   0.34143   0.20442   0.00000  Uiso   1.00
C255   C     0.44598   0.66333   0.29698   0.00000  Uiso   1.00
C256   C     0.62340   0.45808   0.48574   0.00000  Uiso   1.00
C257   C     0.41322   0.47811   0.04717   0.00000  Uiso   1.00
C258   C     0.56764   0.53977   0.38725   0.00000  Uiso   1.00
C259   C     0.43703   0.50063   0.00863   0.00000  Uiso   1.00
C260   C     0.35693   0.53066   0.19738   0.00000  Uiso   1.00
C261   C     0.48252   0.50174   0.48952   0.00000  Uiso   1.00
C262   C     0.50002   0.51395   0.44460   0.00000  Uiso   1.00
C263   C     0.51117   0.49025   0.01247   0.00000  Uiso   1.00
C264   C     0.55399   0.48393   0.48829   0.00000  Uiso   1.00
C265   C     0.57037   0.49737   0.44498   0.00000  Uiso   1.00
C266   C     0.54511   0.51573   0.42511   0.00000  Uiso   1.00
H267   H     0.58898   0.45446   0.07293   0.00000  Uiso   1.00
H268   H     0.65190   0.47618   0.29184   0.00000  Uiso   1.00
H269   H     0.60417   0.49698   0.42786   0.00000  Uiso   1.00
H270   H     0.47226   0.50157   0.08076   0.00000  Uiso   1.00
H271   H     0.40734   0.53636   0.42513   0.00000  Uiso   1.00
H272   H     0.37779   0.51747   0.00148   0.00000  Uiso   1.00
N273   N     0.58033   0.35640   0.17826   0.00000  Uiso   1.00
N274   N     0.41515   0.65080   0.32315   0.00000  Uiso   1.00
N275   N     0.65727   0.44977   0.46654   0.00000  Uiso   1.00
N276   N     0.39389   0.46003   0.07789   0.00000  Uiso   1.00
N277   N     0.58580   0.55902   0.35708   0.00000  Uiso   1.00
N278   N     0.38071   0.54755   0.16789   0.00000  Uiso   1.00
O279   O     0.50000   0.50000   0.25000   0.00000  Uiso   1.00
O280   O     0.48784   0.45970   0.15459   0.00000  Uiso   1.00
O281   O     0.46274   0.53724   0.34968   0.00000  Uiso   1.00
O282   O     0.54157   0.51092   0.14606   0.00000  Uiso   1.00
O283   O     0.50785   0.49213   0.34968   0.00000  Uiso   1.00
O284   O     0.51264   0.41352   0.28214   0.00000  Uiso   1.00
O285   O     0.47965   0.59418   0.27013   0.00000  Uiso   1.00
O286   O     0.40745   0.46625   0.23413   0.00000  Uiso   1.00
O287   O     0.60026   0.52605   0.21361   0.00000  Uiso   1.00
O288   O     0.40405   0.52211   0.28213   0.00000  Uiso   1.00
O289   O     0.58824   0.48559   0.27014   0.00000  Uiso   1.00
O290   O     0.47093   0.40277   0.23413   0.00000  Uiso   1.00
O291   O     0.53678   0.58953   0.21360   0.00000  Uiso   1.00
Zn292  Zn    0.52672   0.47327   0.28734   0.00000  Uiso   1.00
Zn293  Zn    0.46713   0.45791   0.21875   0.00000  Uiso   1.00
Zn294  Zn    0.54389   0.53109   0.20657   0.00000  Uiso   1.00
Zn295  Zn    0.46226   0.53773   0.28733   0.00000  Uiso   1.00
C296   C     0.71939   0.49283   0.26048   0.00000  Uiso   1.00
C297   C     0.83344   0.48864   0.05946   0.00000  Uiso   1.00
C298   C     0.90086   0.46423   0.05585   0.00000  Uiso   1.00
C299   C     0.94759   0.50714   0.23967   0.00000  Uiso   1.00
C300   C     0.80503   0.52319   0.42032   0.00000  Uiso   1.00
C301   C     0.99379   0.50943   0.23436   0.00000  Uiso   1.00
C302   C     0.67423   0.49147   0.26375   0.00000  Uiso   1.00
C303   C     0.84728   0.65597   0.23729   0.00000  Uiso   1.00
C304   C     0.81786   0.34591   0.26425   0.00000  Uiso   1.00
C305   C     0.82279   0.38957   0.26020   0.00000  Uiso   1.00
C306   C     0.84324   0.61131   0.24025   0.00000  Uiso   1.00
C307   C     0.74530   0.51695   0.48646   0.00000  Uiso   1.00
C308   C     0.85220   0.48179   0.12930   0.00000  Uiso   1.00
C309   C     0.81580   0.51861   0.37082   0.00000  Uiso   1.00
C310   C     0.91435   0.46837   0.00972   0.00000  Uiso   1.00
C311   C     0.86121   0.47579   0.08072   0.00000  Uiso   1.00
C312   C     0.76237   0.52816   0.44283   0.00000  Uiso   1.00
C313   C     0.88424   0.34143   0.20442   0.00000  Uiso   1.00
C314   C     0.77931   0.66333   0.29698   0.00000  Uiso   1.00
C315   C     0.95673   0.45808   0.48574   0.00000  Uiso   1.00
C316   C     0.74655   0.47811   0.04717   0.00000  Uiso   1.00
C317   C     0.90097   0.53977   0.38725   0.00000  Uiso   1.00
C318   C     0.77036   0.50063   0.00863   0.00000  Uiso   1.00
C319   C     0.69026   0.53066   0.19738   0.00000  Uiso   1.00
C320   C     0.81585   0.50174   0.48952   0.00000  Uiso   1.00
C321   C     0.83335   0.51395   0.44460   0.00000  Uiso   1.00
C322   C     0.84451   0.49025   0.01247   0.00000  Uiso   1.00
C323   C     0.88733   0.48393   0.48829   0.00000  Uiso   1.00
C324   C     0.90370   0.49737   0.44498   0.00000  Uiso   1.00
C325   C     0.87844   0.51573   0.42511   0.00000  Uiso   1.00
H326   H     0.92231   0.45446   0.07293   0.00000  Uiso   1.00
H327   H     0.98523   0.47618   0.29184   0.00000  Uiso   1.00
H328   H     0.93750   0.49698   0.42786   0.00000  Uiso   1.00
H329   H     0.80559   0.50157   0.08076   0.00000  Uiso   1.00
H330   H     0.74067   0.53636   0.42513   0.00000  Uiso   1.00
H331   H     0.71112   0.51747   0.00148   0.00000  Uiso   1.00
N332   N     0.91366   0.35640   0.17826   0.00000  Uiso   1.00
N333   N     0.74849   0.65080   0.32315   0.00000  Uiso   1.00
N334   N     0.99060   0.44977   0.46654   0.00000  Uiso   1.00
N335   N     0.72723   0.46003   0.07789   0.00000  Uiso   1.00
N336   N     0.91913   0.55902   0.35708   0.00000  Uiso   1.00
N337   N     0.71404   0.54755   0.16789   0.00000  Uiso   1.00
O338   O     0.83333   0.50000   0.25000   0.00000  Uiso   1.00
O339   O     0.82118   0.45970   0.15459   0.00000  Uiso   1.00
O340   O     0.79607   0.53724   0.34968   0.00000  Uiso   1.00
O341   O     0.87491   0.51092   0.14606   0.00000  Uiso   1.00
O342   O     0.84118   0.49213   0.34968   0.00000  Uiso   1.00
O343   O     0.84597   0.41352   0.28214   0.00000  Uiso   1.00
O344   O     0.81298   0.59418   0.27013   0.00000  Uiso   1.00
O345   O     0.74078   0.46625   0.23413   0.00000  Uiso   1.00
O346   O     0.93360   0.52605   0.21361   0.00000  Uiso   1.00
O347   O     0.73738   0.52211   0.28213   0.00000  Uiso   1.00
O348   O     0.92158   0.48559   0.27014   0.00000  Uiso   1.00
O349   O     0.80426   0.40277   0.23413   0.00000  Uiso   1.00
O350   O     0.87012   0.58953   0.21360   0.00000  Uiso   1.00
Zn351  Zn    0.86005   0.47327   0.28734   0.00000  Uiso   1.00
Zn352  Zn    0.80046   0.45791   0.21875   0.00000  Uiso   1.00
Zn353  Zn    0.87723   0.53109   0.20657   0.00000  Uiso   1.00
Zn354  Zn    0.79560   0.53773   0.28733   0.00000  Uiso   1.00
C355   C     0.05273   0.82616   0.26048   0.00000  Uiso   1.00
C356   C     0.16677   0.82197   0.05946   0.00000  Uiso   1.00
C357   C     0.23419   0.79756   0.05585   0.00000  Uiso   1.00
C358   C     0.28092   0.84048   0.23967   0.00000  Uiso   1.00
C359   C     0.13836   0.85653   0.42032   0.00000  Uiso   1.00
C360   C     0.32713   0.84276   0.23436   0.00000  Uiso   1.00
C361   C     0.00757   0.82481   0.26375   0.00000  Uiso   1.00
C362   C     0.18061   0.98931   0.23729   0.00000  Uiso   1.00
C363   C     0.15119   0.67925   0.26425   0.00000  Uiso   1.00
C364   C     0.15612   0.72290   0.26020   0.00000  Uiso   1.00
C365   C     0.17657   0.94464   0.24025   0.00000  Uiso   1.00
C366   C     0.07864   0.85029   0.48646   0.00000  Uiso   1.00
C367   C     0.18554   0.81512   0.12930   0.00000  Uiso   1.00
C368   C     0.14913   0.85194   0.37082   0.00000  Uiso   1.00
C369   C     0.24769   0.80170   0.00972   0.00000  Uiso   1.00
C370   C     0.19454   0.80912   0.08072   0.00000  Uiso   1.00
C371   C     0.09571   0.86150   0.44283   0.00000  Uiso   1.00
C372   C     0.21758   0.67476   0.20442   0.00000  Uiso   1.00
C373   C     0.11265   0.99667   0.29698   0.00000  Uiso   1.00
C374   C     0.29007   0.79141   0.48574   0.00000  Uiso   1.00
C375   C     0.07988   0.81144   0.04717   0.00000  Uiso   1.00
C376   C     0.23431   0.87310   0.38725   0.00000  Uiso   1.00
C377   C     0.10369   0.83396   0.00863   0.00000  Uiso   1.00
C378   C     0.02359   0.86399   0.19738   0.00000  Uiso   1.00
C379   C     0.14919   0.83508   0.48952   0.00000  Uiso   1.00
C380   C     0.16668   0.84728   0.44460   0.00000  Uiso   1.00
C381   C     0.17784   0.82358   0.01247   0.00000  Uiso   1.00
C382   C     0.22066   0.81727   0.48829   0.00000  Uiso   1.00
C383   C     0.23704   0.83070   0.44498   0.00000  Uiso   1.00
C384   C     0.21178   0.84906   0.42511   0.00000  Uiso   1.00
H385   H     0.25564   0.78779   0.07293   0.00000  Uiso   1.00
H386   H     0.31856   0.80952   0.29184   0.00000  Uiso   1.00
H387   H     0.27083   0.83031   0.42786   0.00000  Uiso   1.00
H388   H     0.13892   0.83490   0.08076   0.00000  Uiso   1.00
H389   H     0.07400   0.86969   0.42513   0.00000  Uiso   1.00
H390   H     0.04446   0.85080   0.00148   0.00000  Uiso   1.00
N391   N     0.24700   0.68974   0.17826   0.00000  Uiso   1.00
N392   N     0.08182   0.98413   0.32315   0.00000  Uiso   1.00
N393   N     0.32394   0.78311   0.46654   0.00000  Uiso   1.00
N394   N     0.06056   0.79336   0.07789   0.00000  Uiso   1.00
N395   N     0.25247   0.89235   0.35708   0.00000  Uiso   1.00
N396   N     0.04738   0.88088   0.16789   0.00000  Uiso   1.00
O397   O     0.16667   0.83333   0.25000   0.00000  Uiso   1.00
O398   O     0.15451   0.79304   0.15459   0.00000  Uiso   1.00
O399   O     0.12940   0.87058   0.34968   0.00000  Uiso   1.00
O400   O     0.20824   0.84425   0.14606   0.00000  Uiso   1.00
O401   O     0.17451   0.82546   0.34968   0.00000  Uiso   1.00
O402   O     0.17930   0.74686   0.28214   0.00000  Uiso   1.00
O403   O     0.14632   0.92751   0.27013   0.00000  Uiso   1.00
O404   O     0.07412   0.79958   0.23413   0.00000  Uiso   1.00
O405   O     0.26693   0.85939   0.21361   0.00000  Uiso   1.00
O406   O     0.07071   0.85544   0.28213   0.00000  Uiso   1.00
O407   O     0.25491   0.81892   0.27014   0.00000  Uiso   1.00
O408   O     0.13760   0.73610   0.23413   0.00000  Uiso   1.00
O409   O     0.20345   0.92286   0.21360   0.00000  Uiso   1.00
Zn410  Zn    0.19338   0.80661   0.28734   0.00000  Uiso   1.00
Zn411  Zn    0.13379   0.79124   0.21875   0.00000  Uiso   1.00
Zn412  Zn    0.21056   0.86442   0.20657   0.00000  Uiso   1.00
Zn413  Zn    0.12893   0.87106   0.28733   0.00000  Uiso   1.00
C414   C     0.38606   0.82616   0.26048   0.00000  Uiso   1.00
C415   C     0.50011   0.82197   0.05946   0.00000  Uiso   1.00
C416   C     0.56752   0.79756   0.05585   0.00000  Uiso   1.00
C417   C     0.61426   0.84048   0.23967   0.00000  Uiso   1.00
C418   C     0.47169   0.85653   0.42032   0.00000  Uiso   1.00
C419   C     0.66046   0.84276   0.23436   0.00000  Uiso   1.00
C420   C     0.34090   0.82481   0.26375   0.00000  Uiso   1.00
C421   C     0.51394   0.98931   0.23729   0.00000  Uiso   1.00
C422   C     0.48453   0.67925   0.26425   0.00000  Uiso   1.00
C423   C     0.48946   0.72290   0.26020   0.00000  Uiso   1.00
C424   C     0.50991   0.94464   0.24025   0.00000  Uiso   1.00
C425   C     0.41197   0.85029   0.48646   0.00000  Uiso   1.00
C426   C     0.51887   0.81512   0.12930   0.00000  Uiso   1.00
C427   C     0.48246   0.85194   0.37082   0.00000  Uiso   1.00
C428   C     0.58102   0.80170   0.00972   0.00000  Uiso   1.00
C429   C     0.52787   0.80912   0.08072   0.00000  Uiso   1.00
C430   C     0.42904   0.86150   0.44283   0.00000  Uiso   1.00
C431   C     0.55091   0.67476   0.20442   0.00000  Uiso   1.00
C432   C     0.44598   0.99667   0.29698   0.00000  Uiso   1.00
C433   C     0.62340   0.79141   0.48574   0.00000  Uiso   1.00
C434   C     0.41322   0.81144   0.04717   0.00000  Uiso   1.00
C435   C     0.56764   0.87310   0.38725   0.00000  Uiso   1.00
C436   C     0.43703   0.83396   0.00863   0.00000  Uiso   1.00
C437   C     0.35693   0.86399   0.19738   0.00000  Uiso   1.00
C438   C     0.48252   0.83508   0.48952   0.00000  Uiso   1.00
C439   C     0.50002   0.84728   0.44460   0.00000  Uiso   1.00
C440   C     0.51117   0.82358   0.01247   0.00000  Uiso   1.00
C441   C     0.55399   0.81727   0.48829   0.00000  Uiso   1.00
C442   C     0.57037   0.83070   0.44498   0.00000  Uiso   1.00
C443   C     0.54511   0.84906   0.42511   0.00000  Uiso   1.00
H444   H     0.58898   0.78779   0.07293   0.00000  Uiso   1.00
H445   H     0.65190   0.80952   0.29184   0.00000  Uiso   1.00
H446   H     0.60417   0.83031   0.42786   0.00000  Uiso   1.00
H447   H     0.47226   0.83490   0.08076   0.00000  Uiso   1.00
H448   H     0.40734   0.86969   0.42513   0.00000  Uiso   1.00
H449   H     0.37779   0.85080   0.00148   0.00000  Uiso   1.00
N450   N     0.58033   0.68974   0.17826   0.00000  Uiso   1.00
N451   N     0.41515   0.98413   0.32315   0.00000  Uiso   1.00
N452   N     0.65727   0.78311   0.46654   0.00000  Uiso   1.00
N453   N     0.39389   0.79336   0.07789   0.00000  Uiso   1.00
N454   N     0.58580   0.89235   0.35708   0.00000  Uiso   1.00
N455   N     0.38071   0.88088   0.16789   0.00000  Uiso   1.00
O456   O     0.50000   0.83333   0.25000   0.00000  Uiso   1.00
O457   O     0.48784   0.79304   0.15459   0.00000  Uiso   1.00
O458   O     0.46274   0.87058   0.34968   0.00000  Uiso   1.00
O459   O     0.54157   0.84425   0.14606   0.00000  Uiso   1.00
O460   O     0.50785   0.82546   0.34968   0.00000  Uiso   1.00
O461   O     0.51264   0.74686   0.28214   0.00000  Uiso   1.00
O462   O     0.47965   0.92751   0.27013   0.00000  Uiso   1.00
O463   O     0.40745   0.79958   0.23413   0.00000  Uiso   1.00
O464   O     0.60026   0.85939   0.21361   0.00000  Uiso   1.00
O465   O     0.40405   0.85544   0.28213   0.00000  Uiso   1.00
O466   O     0.58824   0.81892   0.27014   0.00000  Uiso   1.00
O467   O     0.47093   0.73610   0.23413   0.00000  Uiso   1.00
O468   O     0.53678   0.92286   0.21360   0.00000  Uiso   1.00
Zn469  Zn    0.52672   0.80661   0.28734   0.00000  Uiso   1.00
Zn470  Zn    0.46713   0.79124   0.21875   0.00000  Uiso   1.00
Zn471  Zn    0.54389   0.86442   0.20657   0.00000  Uiso   1.00
Zn472  Zn    0.46226   0.87106   0.28733   0.00000  Uiso   1.00
C473   C     0.71939   0.82616   0.26048   0.00000  Uiso   1.00
C474   C     0.83344   0.82197   0.05946   0.00000  Uiso   1.00
C475   C     0.90086   0.79756   0.05585   0.00000  Uiso   1.00
C476   C     0.94759   0.84048   0.23967   0.00000  Uiso   1.00
C477   C     0.80503   0.85653   0.42032   0.00000  Uiso   1.00
C478   C     0.99379   0.84276   0.23436   0.00000  Uiso   1.00
C479   C     0.67423   0.82481   0.26375   0.00000  Uiso   1.00
C480   C     0.84728   0.98931   0.23729   0.00000  Uiso   1.00
C481   C     0.81786   0.67925   0.26425   0.00000  Uiso   1.00
C482   C     0.82279   0.72290   0.26020   0.00000  Uiso   1.00
C483   C     0.84324   0.94464   0.24025   0.00000  Uiso   1.00
C484   C     0.74530   0.85029   0.48646   0.00000  Uiso   1.00
C485   C     0.85220   0.81512   0.12930   0.00000  Uiso   1.00
C486   C     0.81580   0.85194   0.37082   0.00000  Uiso   1.00
C487   C     0.91435   0.80170   0.00972   0.00000  Uiso   1.00
C488   C     0.86121   0.80912   0.08072   0.00000  Uiso   1.00
C489   C     0.76237   0.86150   0.44283   0.00000  Uiso   1.00
C490   C     0.88424   0.67476   0.20442   0.00000  Uiso   1.00
C491   C     0.77931   0.99667   0.29698   0.00000  Uiso   1.00
C492   C     0.95673   0.79141   0.48574   0.00000  Uiso   1.00
C493   C     0.74655   0.81144   0.04717   0.00000  Uiso   1.00
C494   C     0.90097   0.87310   0.38725   0.00000  Uiso   1.00
C495   C     0.77036   0.83396   0.00863   0.00000  Uiso   1.00
C496   C     0.69026   0.86399   0.19738   0.00000  Uiso   1.00
C497   C     0.81585   0.83508   0.48952   0.00000  Uiso   1.00
C498   C     0.83335   0.84728   0.44460   0.00000  Uiso   1.00
C499   C     0.84451   0.82358   0.01247   0.00000  Uiso   1.00
C500   C     0.88733   0.81727   0.48829   0.00000  Uiso   1.00
C501   C     0.90370   0.83070   0.44498   0.00000  Uiso   1.00
C502   C     0.87844   0.84906   0.42511   0.00000  Uiso   1.00
H503   H     0.92231   0.78779   0.07293   0.00000  Uiso   1.00
H504   H     0.98523   0.80952   0.29184   0.00000  Uiso   1.00
H505   H     0.93750   0.83031   0.42786   0.00000  Uiso   1.00
H506   H     0.80559   0.83490   0.08076   0.00000  Uiso   1.00
H507   H     0.74067   0.86969   0.42513   0.00000  Uiso   1.00
H508   H     0.71112   0.85080   0.00148   0.00000  Uiso   1.00
N509   N     0.91366   0.68974   0.17826   0.00000  Uiso   1.00
N510   N     0.74849   0.98413   0.32315   0.00000  Uiso   1.00
N511   N     0.99060   0.78311   0.46654   0.00000  Uiso   1.00
N512   N     0.72723   0.79336   0.07789   0.00000  Uiso   1.00
N513   N     0.91913   0.89235   0.35708   0.00000  Uiso   1.00
N514   N     0.71404   0.88088   0.16789   0.00000  Uiso   1.00
O515   O     0.83333   0.83333   0.25000   0.00000  Uiso   1.00
O516   O     0.82118   0.79304   0.15459   0.00000  Uiso   1.00
O517   O     0.79607   0.87058   0.34968   0.00000  Uiso   1.00
O518   O     0.87491   0.84425   0.14606   0.00000  Uiso   1.00
O519   O     0.84118   0.82546   0.34968   0.00000  Uiso   1.00
O520   O     0.84597   0.74686   0.28214   0.00000  Uiso   1.00
O521   O     0.81298   0.92751   0.27013   0.00000  Uiso   1.00
O522   O     0.74078   0.79958   0.23413   0.00000  Uiso   1.00
O523   O     0.93360   0.85939   0.21361   0.00000  Uiso   1.00
O524   O     0.73738   0.85544   0.28213   0.00000  Uiso   1.00
O525   O     0.92158   0.81892   0.27014   0.00000  Uiso   1.00
O526   O     0.80426   0.73610   0.23413   0.00000  Uiso   1.00
O527   O     0.87012   0.92286   0.21360   0.00000  Uiso   1.00
Zn528  Zn    0.86005   0.80661   0.28734   0.00000  Uiso   1.00
Zn529  Zn    0.80046   0.79124   0.21875   0.00000  Uiso   1.00
Zn530  Zn    0.87723   0.86442   0.20657   0.00000  Uiso   1.00
Zn531  Zn    0.79560   0.87106   0.28733   0.00000  Uiso   1.00
C532   C     0.05273   0.15950   0.76048   0.00000  Uiso   1.00
C533   C     0.16677   0.15531   0.55946   0.00000  Uiso   1.00
C534   C     0.23419   0.13089   0.55585   0.00000  Uiso   1.00
C535   C     0.28092   0.17381   0.73967   0.00000  Uiso   1.00
C536   C     0.13836   0.18986   0.92032   0.00000  Uiso   1.00
C537   C     0.32713   0.17609   0.73436   0.00000  Uiso   1.00
C538   C     0.00757   0.15814   0.76375   0.00000  Uiso   1.00
C539   C     0.18061   0.32264   0.73729   0.00000  Uiso   1.00
C540   C     0.15119   0.01258   0.76425   0.00000  Uiso   1.00
C541   C     0.15612   0.05624   0.76020   0.00000  Uiso   1.00
C542   C     0.17657   0.27798   0.74025   0.00000  Uiso   1.00
C543   C     0.07864   0.18362   0.98646   0.00000  Uiso   1.00
C544   C     0.18554   0.14846   0.62930   0.00000  Uiso   1.00
C545   C     0.14913   0.18527   0.87082   0.00000  Uiso   1.00
C546   C     0.24769   0.13503   0.50972   0.00000  Uiso   1.00
C547   C     0.19454   0.14246   0.58072   0.00000  Uiso   1.00
C548   C     0.09571   0.19483   0.94283   0.00000  Uiso   1.00
C549   C     0.21758   0.00809   0.70442   0.00000  Uiso   1.00
C550   C     0.11265   0.33000   0.79698   0.00000  Uiso   1.00
C551   C     0.29007   0.12475   0.98574   0.00000  Uiso   1.00
C552   C     0.07988   0.14477   0.54717   0.00000  Uiso   1.00
C553   C     0.23431   0.20643   0.88725   0.00000  Uiso   1.00
C554   C     0.10369   0.16729   0.50863   0.00000  Uiso   1.00
C555   C     0.02359   0.19733   0.69738   0.00000  Uiso   1.00
C556   C     0.14919   0.16841   0.98952   0.00000  Uiso   1.00
C557   C     0.16668   0.18061   0.94460   0.00000  Uiso   1.00
C558   C     0.17784   0.15692   0.51247   0.00000  Uiso   1.00
C559   C     0.22066   0.15060   0.98829   0.00000  Uiso   1.00
C560   C     0.23704   0.16404   0.94498   0.00000  Uiso   1.00
C561   C     0.21178   0.18239   0.92511   0.00000  Uiso   1.00
H562   H     0.25564   0.12113   0.57293   0.00000  Uiso   1.00
H563   H     0.31856   0.14285   0.79184   0.00000  Uiso   1.00
H564   H     0.27083   0.16365   0.92786   0.00000  Uiso   1.00
H565   H     0.13892   0.16823   0.58076   0.00000  Uiso   1.00
H566   H     0.07400   0.20302   0.92513   0.00000  Uiso   1.00
H567   H     0.04446   0.18414   0.50148   0.00000  Uiso   1.00
N568   N     0.24700   0.02307   0.67826   0.00000  Uiso   1.00
N569   N     0.08182   0.31747   0.82315   0.00000  Uiso   1.00
N570   N     0.32394   0.11644   0.96654   0.00000  Uiso   1.00
N571   N     0.06056   0.12669   0.57789   0.00000  Uiso   1.00
N572   N     0.25247   0.22569   0.85708   0.00000  Uiso   1.00
N573   N     0.04738   0.21421   0.66789   0.00000  Uiso   1.00
O574   O     0.16667   0.16667   0.75000   0.00000  Uiso   1.00
O575   O     0.15451   0.12637   0.65459   0.00000  Uiso   1.00
O576   O     0.12940   0.20391   0.84968   0.00000  Uiso   1.00
O577   O     0.20824   0.17759   0.64606   0.00000  Uiso   1.00
O578   O     0.17451   0.15880   0.84968   0.00000  Uiso   1.00
O579   O     0.17930   0.08019   0.78214   0.00000  Uiso   1.00
O580   O     0.14632   0.26085   0.77013   0.00000  Uiso   1.00
O581   O     0.07412   0.13291   0.73413   0.00000  Uiso   1.00
O582   O     0.26693   0.19272   0.71361   0.00000  Uiso   1.00
O583   O     0.07071   0.18878   0.78213   0.00000  Uiso   1.00
O584   O     0.25491   0.15226   0.77014   0.00000  Uiso   1.00
O585   O     0.13760   0.06944   0.73413   0.00000  Uiso   1.00
O586   O     0.20345   0.25620   0.71360   0.00000  Uiso   1.00
Zn587  Zn    0.19338   0.13994   0.78734   0.00000  Uiso   1.00
Zn588  Zn    0.13379   0.12458   0.71875   0.00000  Uiso   1.00
Zn589  Zn    0.21056   0.19775   0.70657   0.00000  Uiso   1.00
Zn590  Zn    0.12893   0.20439   0.78733   0.00000  Uiso   1.00
C591   C     0.38606   0.15950   0.76048   0.00000  Uiso   1.00
C592   C     0.50011   0.15531   0.55946   0.00000  Uiso   1.00
C593   C     0.56752   0.13089   0.55585   0.00000  Uiso   1.00
C594   C     0.61426   0.17381   0.73967   0.00000  Uiso   1.00
C595   C     0.47169   0.18986   0.92032   0.00000  Uiso   1.00
C596   C     0.66046   0.17609   0.73436   0.00000  Uiso   1.00
C597   C     0.34090   0.15814   0.76375   0.00000  Uiso   1.00
C598   C     0.51394   0.32264   0.73729   0.00000  Uiso   1.00
C599   C     0.48453   0.01258   0.76425   0.00000  Uiso   1.00
C600   C     0.48946   0.05624   0.76020   0.00000  Uiso   1.00
C601   C     0.50991   0.27798   0.74025   0.00000  Uiso   1.00
C602   C     0.41197   0.18362   0.98646   0.00000  Uiso   1.00
C603   C     0.51887   0.14846   0.62930   0.00000  Uiso   1.00
C604   C     0.48246   0.18527   0.87082   0.00000  Uiso   1.00
C605   C     0.58102   0.13503   0.50972   0.00000  Uiso   1.00
C606   C     0.52787   0.14246   0.58072   0.00000  Uiso   1.00
C607   C     0.42904   0.19483   0.94283   0.00000  Uiso   1.00
C608   C     0.55091   0.00809   0.70442   0.00000  Uiso   1.00
C609   C     0.44598   0.33000   0.79698   0.00000  Uiso   1.00
C610   C     0.62340   0.12475   0.98574   0.00000  Uiso   1.00
C611   C     0.41322   0.14477   0.54717   0.00000  Uiso   1.00
C612   C     0.56764   0.20643   0.88725   0.00000  Uiso   1.00
C613   C     0.43703   0.16729   0.50863   0.00000  Uiso   1.00
C614   C     0.35693   0.19733   0.69738   0.00000  Uiso   1.00
C615   C     0.48252   0.16841   0.98952   0.00000  Uiso   1.00
C616   C     0.50002   0.18061   0.94460   0.00000  Uiso   1.00
C617   C     0.51117   0.15692   0.51247   0.00000  Uiso   1.00
C618   C     0.55399   0.15060   0.98829   0.00000  Uiso   1.00
C619   C     0.57037   0.16404   0.94498   0.00000  Uiso   1.00
C620   C     0.54511   0.18239   0.92511   0.00000  Uiso   1.00
H621   H     0.58898   0.12113   0.57293   0.00000  Uiso   1.00
H622   H     0.65190   0.14285   0.79184   0.00000  Uiso   1.00
H623   H     0.60417   0.16365   0.92786   0.00000  Uiso   1.00
H624   H     0.47226   0.16823   0.58076   0.00000  Uiso   1.00
H625   H     0.40734   0.20302   0.92513   0.00000  Uiso   1.00
H626   H     0.37779   0.18414   0.50148   0.00000  Uiso   1.00
N627   N     0.58033   0.02307   0.67826   0.00000  Uiso   1.00
N628   N     0.41515   0.31747   0.82315   0.00000  Uiso   1.00
N629   N     0.65727   0.11644   0.96654   0.00000  Uiso   1.00
N630   N     0.39389   0.12669   0.57789   0.00000  Uiso   1.00
N631   N     0.58580   0.22569   0.85708   0.00000  Uiso   1.00
N632   N     0.38071   0.21421   0.66789   0.00000  Uiso   1.00
O633   O     0.50000   0.16667   0.75000   0.00000  Uiso   1.00
O634   O     0.48784   0.12637   0.65459   0.00000  Uiso   1.00
O635   O     0.46274   0.20391   0.84968   0.00000  Uiso   1.00
O636   O     0.54157   0.17759   0.64606   0.00000  Uiso   1.00
O637   O     0.50785   0.15880   0.84968   0.00000  Uiso   1.00
O638   O     0.51264   0.08019   0.78214   0.00000  Uiso   1.00
O639   O     0.47965   0.26085   0.77013   0.00000  Uiso   1.00
O640   O     0.40745   0.13291   0.73413   0.00000  Uiso   1.00
O641   O     0.60026   0.19272   0.71361   0.00000  Uiso   1.00
O642   O     0.40405   0.18878   0.78213   0.00000  Uiso   1.00
O643   O     0.58824   0.15226   0.77014   0.00000  Uiso   1.00
O644   O     0.47093   0.06944   0.73413   0.00000  Uiso   1.00
O645   O     0.53678   0.25620   0.71360   0.00000  Uiso   1.00
Zn646  Zn    0.52672   0.13994   0.78734   0.00000  Uiso   1.00
Zn647  Zn    0.46713   0.12458   0.71875   0.00000  Uiso   1.00
Zn648  Zn    0.54389   0.19775   0.70657   0.00000  Uiso   1.00
Zn649  Zn    0.46226   0.20439   0.78733   0.00000  Uiso   1.00
C650   C     0.71939   0.15950   0.76048   0.00000  Uiso   1.00
C651   C     0.83344   0.15531   0.55946   0.00000  Uiso   1.00
C652   C     0.90086   0.13089   0.55585   0.00000  Uiso   1.00
C653   C     0.94759   0.17381   0.73967   0.00000  Uiso   1.00
C654   C     0.80503   0.18986   0.92032   0.00000  Uiso   1.00
C655   C     0.99379   0.17609   0.73436   0.00000  Uiso   1.00
C656   C     0.67423   0.15814   0.76375   0.00000  Uiso   1.00
C657   C     0.84728   0.32264   0.73729   0.00000  Uiso   1.00
C658   C     0.81786   0.01258   0.76425   0.00000  Uiso   1.00
C659   C     0.82279   0.05624   0.76020   0.00000  Uiso   1.00
C660   C     0.84324   0.27798   0.74025   0.00000  Uiso   1.00
C661   C     0.74530   0.18362   0.98646   0.00000  Uiso   1.00
C662   C     0.85220   0.14846   0.62930   0.00000  Uiso   1.00
C663   C     0.81580   0.18527   0.87082   0.00000  Uiso   1.00
C664   C     0.91435   0.13503   0.50972   0.00000  Uiso   1.00
C665   C     0.86121   0.14246   0.58072   0.00000  Uiso   1.00
C666   C     0.76237   0.19483   0.94283   0.00000  Uiso   1.00
C667   C     0.88424   0.00809   0.70442   0.00000  Uiso   1.00
C668   C     0.77931   0.33000   0.79698   0.00000  Uiso   1.00
C669   C     0.95673   0.12475   0.98574   0.00000  Uiso   1.00
C670   C     0.74655   0.14477   0.54717   0.00000  Uiso   1.00
C671   C     0.90097   0.20643   0.88725   0.00000  Uiso   1.00
C672   C     0.77036   0.16729   0.50863   0.00000  Uiso   1.00
C673   C     0.69026   0.19733   0.69738   0.00000  Uiso   1.00
C674   C     0.81585   0.16841   0.98952   0.00000  Uiso   1.00
C675   C     0.83335   0.18061   0.94460   0.00000  Uiso   1.00
C676   C     0.84451   0.15692   0.51247   0.00000  Uiso   1.00
C677   C     0.88733   0.15060   0.98829   0.00000  Uiso   1.00
C678   C     0.90370   0.16404   0.94498   0.00000  Uiso   1.00
C679   C     0.87844   0.18239   0.92511   0.00000  Uiso   1.00
H680   H     0.92231   0.12113   0.57293   0.00000  Uiso   1.00
H681   H     0.98523   0.14285   0.79184   0.00000  Uiso   1.00
H682   H     0.93750   0.16365   0.92786   0.00000  Uiso   1.00
H683   H     0.80559   0.16823   0.58076   0.00000  Uiso   1.00
H684   H     0.74067   0.20302   0.92513   0.00000  Uiso   1.00
H685   H     0.71112   0.18414   0.50148   0.00000  Uiso   1.00
N686   N     0.91366   0.02307   0.67826   0.00000  Uiso   1.00
N687   N     0.74849   0.31747   0.82315   0.00000  Uiso   1.00
N688   N     0.99060   0.11644   0.96654   0.00000  Uiso   1.00
N689   N     0.72723   0.12669   0.57789   0.00000  Uiso   1.00
N690   N     0.91913   0.22569   0.85708   0.00000  Uiso   1.00
N691   N     0.71404   0.21421   0.66789   0.00000  Uiso   1.00
O692   O     0.83333   0.16667   0.75000   0.00000  Uiso   1.00
O693   O     0.82118   0.12637   0.65459   0.00000  Uiso   1.00
O694   O     0.79607   0.20391   0.84968   0.00000  Uiso   1.00
O695   O     0.87491   0.17759   0.64606   0.00000  Uiso   1.00
O696   O     0.84118   0.15880   0.84968   0.00000  Uiso   1.00
O697   O     0.84597   0.08019   0.78214   0.00000  Uiso   1.00
O698   O     0.81298   0.26085   0.77013   0.00000  Uiso   1.00
O699   O     0.74078   0.13291   0.73413   0.00000  Uiso   1.00
O700   O     0.93360   0.19272   0.71361   0.00000  Uiso   1.00
O701   O     0.73738   0.18878   0.78213   0.00000  Uiso   1.00
O702   O     0.92158   0.15226   0.77014   0.00000  Uiso   1.00
O703   O     0.80426   0.06944   0.73413   0.00000  Uiso   1.00
O704   O     0.87012   0.25620   0.71360   0.00000  Uiso   1.00
Zn705  Zn    0.86005   0.13994   0.78734   0.00000  Uiso   1.00
Zn706  Zn    0.80046   0.12458   0.71875   0.00000  Uiso   1.00
Zn707  Zn    0.87723   0.19775   0.70657   0.00000  Uiso   1.00
Zn708  Zn    0.79560   0.20439   0.78733   0.00000  Uiso   1.00
C709   C     0.05273   0.49283   0.76048   0.00000  Uiso   1.00
C710   C     0.16677   0.48864   0.55946   0.00000  Uiso   1.00
C711   C     0.23419   0.46423   0.55585   0.00000  Uiso   1.00
C712   C     0.28092   0.50714   0.73967   0.00000  Uiso   1.00
C713   C     0.13836   0.52319   0.92032   0.00000  Uiso   1.00
C714   C     0.32713   0.50943   0.73436   0.00000  Uiso   1.00
C715   C     0.00757   0.49147   0.76375   0.00000  Uiso   1.00
C716   C     0.18061   0.65597   0.73729   0.00000  Uiso   1.00
C717   C     0.15119   0.34591   0.76425   0.00000  Uiso   1.00
C718   C     0.15612   0.38957   0.76020   0.00000  Uiso   1.00
C719   C     0.17657   0.61131   0.74025   0.00000  Uiso   1.00
C720   C     0.07864   0.51695   0.98646   0.00000  Uiso   1.00
C721   C     0.18554   0.48179   0.62930   0.00000  Uiso   1.00
C722   C     0.14913   0.51861   0.87082   0.00000  Uiso   1.00
C723   C     0.24769   0.46837   0.50972   0.00000  Uiso   1.00
C724   C     0.19454   0.47579   0.58072   0.00000  Uiso   1.00
C725   C     0.09571   0.52816   0.94283   0.00000  Uiso   1.00
C726   C     0.21758   0.34143   0.70442   0.00000  Uiso   1.00
C727   C     0.11265   0.66333   0.79698   0.00000  Uiso   1.00
C728   C     0.29007   0.45808   0.98574   0.00000  Uiso   1.00
C729   C     0.07988   0.47811   0.54717   0.00000  Uiso   1.00
C730   C     0.23431   0.53977   0.88725   0.00000  Uiso   1.00
C731   C     0.10369   0.50063   0.50863   0.00000  Uiso   1.00
C732   C     0.02359   0.53066   0.69738   0.00000  Uiso   1.00
C733   C     0.14919   0.50174   0.98952   0.00000  Uiso   1.00
C734   C     0.16668   0.51395   0.94460   0.00000  Uiso   1.00
C735   C     0.17784   0.49025   0.51247   0.00000  Uiso   1.00
C736   C     0.22066   0.48393   0.98829   0.00000  Uiso   1.00
C737   C     0.23704   0.49737   0.94498   0.00000  Uiso   1.00
C738   C     0.21178   0.51573   0.92511   0.00000  Uiso   1.00
H739   H     0.25564   0.45446   0.57293   0.00000  Uiso   1.00
H740   H     0.31856   0.47618   0.79184   0.00000  Uiso   1.00
H741   H     0.27083   0.49698   0.92786   0.00000  Uiso   1.00
H742   H     0.13892   0.50157   0.58076   0.00000  Uiso   1.00
H743   H     0.07400   0.53636   0.92513   0.00000  Uiso   1.00
H744   H     0.04446   0.51747   0.50148   0.00000  Uiso   1.00
N745   N     0.24700   0.35640   0.67826   0.00000  Uiso   1.00
N746   N     0.08182   0.65080   0.82315   0.00000  Uiso   1.00
N747   N     0.32394   0.44977   0.96654   0.00000  Uiso   1.00
N748   N     0.06056   0.46003   0.57789   0.00000  Uiso   1.00
N749   N     0.25247   0.55902   0.85708   0.00000  Uiso   1.00
N750   N     0.04738   0.54755   0.66789   0.00000  Uiso   1.00
O751   O     0.16667   0.50000   0.75000   0.00000  Uiso   1.00
O752   O     0.15451   0.45970   0.65459   0.00000  Uiso   1.00
O753   O     0.12940   0.53724   0.84968   0.00000  Uiso   1.00
O754   O     0.20824   0.51092   0.64606   0.00000  Uiso   1.00
O755   O     0.17451   0.49213   0.84968   0.00000  Uiso   1.00
O756   O     0.17930   0.41352   0.78214   0.00000  Uiso   1.00
O757   O     0.14632   0.59418   0.77013   0.00000  Uiso   1.00
O758   O     0.07412   0.46625   0.73413   0.00000  Uiso   1.00
O759   O     0.26693   0.52605   0.71361   0.00000  Uiso   1.00
O760   O     0.07071   0.52211   0.78213   0.00000  Uiso   1.00
O761   O     0.25491   0.48559   0.77014   0.00000  Uiso   1.00
O762   O     0.13760   0.40277   0.73413   0.00000  Uiso   1.00
O763   O     0.20345   0.58953   0.71360   0.00000  Uiso   1.00
Zn764  Zn    0.19338   0.47327   0.78734   0.00000  Uiso   1.00
Zn765  Zn    0.13379   0.45791   0.71875   0.00000  Uiso   1.00
Zn766  Zn    0.21056   0.53109   0.70657   0.00000  Uiso   1.00
Zn767  Zn    0.12893   0.53773   0.78733   0.00000  Uiso   1.00
C768   C     0.38606   0.49283   0.76048   0.00000  Uiso   1.00
C769   C     0.50011   0.48864   0.55946   0.00000  Uiso   1.00
C770   C     0.56752   0.46423   0.55585   0.00000  Uiso   1.00
C771   C     0.61426   0.50714   0.73967   0.00000  Uiso   1.00
C772   C     0.47169   0.52319   0.92032   0.00000  Uiso   1.00
C773   C     0.66046   0.50943   0.73436   0.00000  Uiso   1.00
C774   C     0.34090   0.49147   0.76375   0.00000  Uiso   1.00
C775   C     0.51394   0.65597   0.73729   0.00000  Uiso   1.00
C776   C     0.48453   0.34591   0.76425   0.00000  Uiso   1.00
C777   C     0.48946   0.38957   0.76020   0.00000  Uiso   1.00
C778   C     0.50991   0.61131   0.74025   0.00000  Uiso   1.00
C779   C     0.41197   0.51695   0.98646   0.00000  Uiso   1.00
C780   C     0.51887   0.48179   0.62930   0.00000  Uiso   1.00
C781   C     0.48246   0.51861   0.87082   0.00000  Uiso   1.00
C782   C     0.58102   0.46837   0.50972   0.00000  Uiso   1.00
C783   C     0.52787   0.47579   0.58072   0.00000  Uiso   1.00
C784   C     0.42904   0.52816   0.94283   0.00000  Uiso   1.00
C785   C     0.55091   0.34143   0.70442   0.00000  Uiso   1.00
C786   C     0.44598   0.66333   0.79698   0.00000  Uiso   1.00
C787   C     0.62340   0.45808   0.98574   0.00000  Uiso   1.00
C788   C     0.41322   0.47811   0.54717   0.00000  Uiso   1.00
C789   C     0.56764   0.53977   0.88725   0.00000  Uiso   1.00
C790   C     0.43703   0.50063   0.50863   0.00000  Uiso   1.00
C791   C     0.35693   0.53066   0.69738   0.00000  Uiso   1.00
C792   C     0.48252   0.50174   0.98952   0.00000  Uiso   1.00
C793   C     0.50002   0.51395   0.94460   0.00000  Uiso   1.00
C794   C     0.51117   0.49025   0.51247   0.00000  Uiso   1.00
C795   C     0.55399   0.48393   0.98829   0.00000  Uiso   1.00
C796   C     0.57037   0.49737   0.94498   0.00000  Uiso   1.00
C797   C     0.54511   0.51573   0.92511   0.00000  Uiso   1.00
H798   H     0.58898   0.45446   0.57293   0.00000  Uiso   1.00
H799   H     0.65190   0.47618   0.79184   0.00000  Uiso   1.00
H800   H     0.60417   0.49698   0.92786   0.00000  Uiso   1.00
H801   H     0.47226   0.50157   0.58076   0.00000  Uiso   1.00
H802   H     0.40734   0.53636   0.92513   0.00000  Uiso   1.00
H803   H     0.37779   0.51747   0.50148   0.00000  Uiso   1.00
N804   N     0.58033   0.35640   0.67826   0.00000  Uiso   1.00
N805   N     0.41515   0.65080   0.82315   0.00000  Uiso   1.00
N806   N     0.65727   0.44977   0.96654   0.00000  Uiso   1.00
N807   N     0.39389   0.46003   0.57789   0.00000  Uiso   1.00
N808   N     0.58580   0.55902   0.85708   0.00000  Uiso   1.00
N809   N     0.38071   0.54755   0.66789   0.00000  Uiso   1.00
O810   O     0.50000   0.50000   0.75000   0.00000  Uiso   1.00
O811   O     0.48784   0.45970   0.65459   0.00000  Uiso   1.00
O812   O     0.46274   0.53724   0.84968   0.00000  Uiso   1.00
O813   O     0.54157   0.51092   0.64606   0.00000  Uiso   1.00
O814   O     0.50785   0.49213   0.84968   0.00000  Uiso   1.00
O815   O     0.51264   0.41352   0.78214   0.00000  Uiso   1.00
O816   O     0.47965   0.59418   0.77013   0.00000  Uiso   1.00
O817   O     0.40745   0.46625   0.73413   0.00000  Uiso   1.00
O818   O     0.60026   0.52605   0.71361   0.00000  Uiso   1.00
O819   O     0.40405   0.52211   0.78213   0.00000  Uiso   1.00
O820   O     0.58824   0.48559   0.77014   0.00000  Uiso   1.00
O821   O     0.47093   0.40277   0.73413   0.00000  Uiso   1.00
O822   O     0.53678   0.58953   0.71360   0.00000  Uiso   1.00
Zn823  Zn    0.52672   0.47327   0.78734   0.00000  Uiso   1.00
Zn824  Zn    0.46713   0.45791   0.71875   0.00000  Uiso   1.00
Zn825  Zn    0.54389   0.53109   0.70657   0.00000  Uiso   1.00
Zn826  Zn    0.46226   0.53773   0.78733   0.00000  Uiso   1.00
C827   C     0.71939   0.49283   0.76048   0.00000  Uiso   1.00
C828   C     0.83344   0.48864   0.55946   0.00000  Uiso   1.00
C829   C     0.90086   0.46423   0.55585   0.00000  Uiso   1.00
C830   C     0.94759   0.50714   0.73967   0.00000  Uiso   1.00
C831   C     0.80503   0.52319   0.92032   0.00000  Uiso   1.00
C832   C     0.99379   0.50943   0.73436   0.00000  Uiso   1.00
C833   C     0.67423   0.49147   0.76375   0.00000  Uiso   1.00
C834   C     0.84728   0.65597   0.73729   0.00000  Uiso   1.00
C835   C     0.81786   0.34591   0.76425   0.00000  Uiso   1.00
C836   C     0.82279   0.38957   0.76020   0.00000  Uiso   1.00
C837   C     0.84324   0.61131   0.74025   0.00000  Uiso   1.00
C838   C     0.74530   0.51695   0.98646   0.00000  Uiso   1.00
C839   C     0.85220   0.48179   0.62930   0.00000  Uiso   1.00
C840   C     0.81580   0.51861   0.87082   0.00000  Uiso   1.00
C841   C     0.91435   0.46837   0.50972   0.00000  Uiso   1.00
C842   C     0.86121   0.47579   0.58072   0.00000  Uiso   1.00
C843   C     0.76237   0.52816   0.94283   0.00000  Uiso   1.00
C844   C     0.88424   0.34143   0.70442   0.00000  Uiso   1.00
C845   C     0.77931   0.66333   0.79698   0.00000  Uiso   1.00
C846   C     0.95673   0.45808   0.98574   0.00000  Uiso   1.00
C847   C     0.74655   0.47811   0.54717   0.00000  Uiso   1.00
C848   C     0.90097   0.53977   0.88725   0.00000  Uiso   1.00
C849   C     0.77036   0.50063   0.50863   0.00000  Uiso   1.00
C850   C     0.69026   0.53066   0.69738   0.00000  Uiso   1.00
C851   C     0.81585   0.50174   0.98952   0.00000  Uiso   1.00
C852   C     0.83335   0.51395   0.94460   0.00000  Uiso   1.00
C853   C     0.84451   0.49025   0.51247   0.00000  Uiso   1.00
C854   C     0.88733   0.48393   0.98829   0.00000  Uiso   1.00
C855   C     0.90370   0.49737   0.94498   0.00000  Uiso   1.00
C856   C     0.87844   0.51573   0.92511   0.00000  Uiso   1.00
H857   H     0.92231   0.45446   0.57293   0.00000  Uiso   1.00
H858   H     0.98523   0.47618   0.79184   0.00000  Uiso   1.00
H859   H     0.93750   0.49698   0.92786   0.00000  Uiso   1.00
H860   H     0.80559   0.50157   0.58076   0.00000  Uiso   1.00
H861   H     0.74067   0.53636   0.92513   0.00000  Uiso   1.00
H862   H     0.71112   0.51747   0.50148   0.00000  Uiso   1.00
N863   N     0.91366   0.35640   0.67826   0.00000  Uiso   1.00
N864   N     0.74849   0.65080   0.82315   0.00000  Uiso   1.00
N865   N     0.99060   0.44977   0.96654   0.00000  Uiso   1.00
N866   N     0.72723   0.46003   0.57789   0.00000  Uiso   1.00
N867   N     0.91913   0.55902   0.85708   0.00000  Uiso   1.00
N868   N     0.71404   0.54755   0.66789   0.00000  Uiso   1.00
O869   O     0.83333   0.50000   0.75000   0.00000  Uiso   1.00
O870   O     0.82118   0.45970   0.65459   0.00000  Uiso   1.00
O871   O     0.79607   0.53724   0.84968   0.00000  Uiso   1.00
O872   O     0.87491   0.51092   0.64606   0.00000  Uiso   1.00
O873   O     0.84118   0.49213   0.84968   0.00000  Uiso   1.00
O874   O     0.84597   0.41352   0.78214   0.00000  Uiso   1.00
O875   O     0.81298   0.59418   0.77013   0.00000  Uiso   1.00
O876   O     0.74078   0.46625   0.73413   0.00000  Uiso   1.00
O877   O     0.93360   0.52605   0.71361   0.00000  Uiso   1.00
O878   O     0.73738   0.52211   0.78213   0.00000  Uiso   1.00
O879   O     0.92158   0.48559   0.77014   0.00000  Uiso   1.00
O880   O     0.80426   0.40277   0.73413   0.00000  Uiso   1.00
O881   O     0.87012   0.58953   0.71360   0.00000  Uiso   1.00
Zn882  Zn    0.86005   0.47327   0.78734   0.00000  Uiso   1.00
Zn883  Zn    0.80046   0.45791   0.71875   0.00000  Uiso   1.00
Zn884  Zn    0.87723   0.53109   0.70657   0.00000  Uiso   1.00
Zn885  Zn    0.79560   0.53773   0.78733   0.00000  Uiso   1.00
C886   C     0.05273   0.82616   0.76048   0.00000  Uiso   1.00
C887   C     0.16677   0.82197   0.55946   0.00000  Uiso   1.00
C888   C     0.23419   0.79756   0.55585   0.00000  Uiso   1.00
C889   C     0.28092   0.84048   0.73967   0.00000  Uiso   1.00
C890   C     0.13836   0.85653   0.92032   0.00000  Uiso   1.00
C891   C     0.32713   0.84276   0.73436   0.00000  Uiso   1.00
C892   C     0.00757   0.82481   0.76375   0.00000  Uiso   1.00
C893   C     0.18061   0.98931   0.73729   0.00000  Uiso   1.00
C894   C     0.15119   0.67925   0.76425   0.00000  Uiso   1.00
C895   C     0.15612   0.72290   0.76020   0.00000  Uiso   1.00
C896   C     0.17657   0.94464   0.74025   0.00000  Uiso   1.00
C897   C     0.07864   0.85029   0.98646   0.00000  Uiso   1.00
C898   C     0.18554   0.81512   0.62930   0.00000  Uiso   1.00
C899   C     0.14913   0.85194   0.87082   0.00000  Uiso   1.00
C900   C     0.24769   0.80170   0.50972   0.00000  Uiso   1.00
C901   C     0.19454   0.80912   0.58072   0.00000  Uiso   1.00
C902   C     0.09571   0.86150   0.94283   0.00000  Uiso   1.00
C903   C     0.21758   0.67476   0.70442   0.00000  Uiso   1.00
C904   C     0.11265   0.99667   0.79698   0.00000  Uiso   1.00
C905   C     0.29007   0.79141   0.98574   0.00000  Uiso   1.00
C906   C     0.07988   0.81144   0.54717   0.00000  Uiso   1.00
C907   C     0.23431   0.87310   0.88725   0.00000  Uiso   1.00
C908   C     0.10369   0.83396   0.50863   0.00000  Uiso   1.00
C909   C     0.02359   0.86399   0.69738   0.00000  Uiso   1.00
C910   C     0.14919   0.83508   0.98952   0.00000  Uiso   1.00
C911   C     0.16668   0.84728   0.94460   0.00000  Uiso   1.00
C912   C     0.17784   0.82358   0.51247   0.00000  Uiso   1.00
C913   C     0.22066   0.81727   0.98829   0.00000  Uiso   1.00
C914   C     0.23704   0.83070   0.94498   0.00000  Uiso   1.00
C915   C     0.21178   0.84906   0.92511   0.00000  Uiso   1.00
H916   H     0.25564   0.78779   0.57293   0.00000  Uiso   1.00
H917   H     0.31856   0.80952   0.79184   0.00000  Uiso   1.00
H918   H     0.27083   0.83031   0.92786   0.00000  Uiso   1.00
H919   H     0.13892   0.83490   0.58076   0.00000  Uiso   1.00
H920   H     0.07400   0.86969   0.92513   0.00000  Uiso   1.00
H921   H     0.04446   0.85080   0.50148   0.00000  Uiso   1.00
N922   N     0.24700   0.68974   0.67826   0.00000  Uiso   1.00
N923   N     0.08182   0.98413   0.82315   0.00000  Uiso   1.00
N924   N     0.32394   0.78311   0.96654   0.00000  Uiso   1.00
N925   N     0.06056   0.79336   0.57789   0.00000  Uiso   1.00
N926   N     0.25247   0.89235   0.85708   0.00000  Uiso   1.00
N927   N     0.04738   0.88088   0.66789   0.00000  Uiso   1.00
O928   O     0.16667   0.83333   0.75000   0.00000  Uiso   1.00
O929   O     0.15451   0.79304   0.65459   0.00000  Uiso   1.00
O930   O     0.12940   0.87058   0.84968   0.00000  Uiso   1.00
O931   O     0.20824   0.84425   0.64606   0.00000  Uiso   1.00
O932   O     0.17451   0.82546   0.84968   0.00000  Uiso   1.00
O933   O     0.17930   0.74686   0.78214   0.00000  Uiso   1.00
O934   O     0.14632   0.92751   0.77013   0.00000  Uiso   1.00
O935   O     0.07412   0.79958   0.73413   0.00000  Uiso   1.00
O936   O     0.26693   0.85939   0.71361   0.00000  Uiso   1.00
O937   O     0.07071   0.85544   0.78213   0.00000  Uiso   1.00
O938   O     0.25491   0.81892   0.77014   0.00000  Uiso   1.00
O939   O     0.13760   0.73610   0.73413   0.00000  Uiso   1.00
O940   O     0.20345   0.92286   0.71360   0.00000  Uiso   1.00
Zn941  Zn    0.19338   0.80661   0.78734   0.00000  Uiso   1.00
Zn942  Zn    0.13379   0.79124   0.71875   0.00000  Uiso   1.00
Zn943  Zn    0.21056   0.86442   0.70657   0.00000  Uiso   1.00
Zn944  Zn    0.12893   0.87106   0.78733   0.00000  Uiso   1.00
C945   C     0.38606   0.82616   0.76048   0.00000  Uiso   1.00
C946   C     0.50011   0.82197   0.55946   0.00000  Uiso   1.00
C947   C     0.56752   0.79756   0.55585   0.00000  Uiso   1.00
C948   C     0.61426   0.84048   0.73967   0.00000  Uiso   1.00
C949   C     0.47169   0.85653   0.92032   0.00000  Uiso   1.00
C950   C     0.66046   0.84276   0.73436   0.00000  Uiso   1.00
C951   C     0.34090   0.82481   0.76375   0.00000  Uiso   1.00
C952   C     0.51394   0.98931   0.73729   0.00000  Uiso   1.00
C953   C     0.48453   0.67925   0.76425   0.00000  Uiso   1.00
C954   C     0.48946   0.72290   0.76020   0.00000  Uiso   1.00
C955   C     0.50991   0.94464   0.74025   0.00000  Uiso   1.00
C956   C     0.41197   0.85029   0.98646   0.00000  Uiso   1.00
C957   C     0.51887   0.81512   0.62930   0.00000  Uiso   1.00
C958   C     0.48246   0.85194   0.87082   0.00000  Uiso   1.00
C959   C     0.58102   0.80170   0.50972   0.00000  Uiso   1.00
C960   C     0.52787   0.80912   0.58072   0.00000  Uiso   1.00
C961   C     0.42904   0.86150   0.94283   0.00000  Uiso   1.00
C962   C     0.55091   0.67476   0.70442   0.00000  Uiso   1.00
C963   C     0.44598   0.99667   0.79698   0.00000  Uiso   1.00
C964   C     0.62340   0.79141   0.98574   0.00000  Uiso   1.00
C965   C     0.41322   0.81144   0.54717   0.00000  Uiso   1.00
C966   C     0.56764   0.87310   0.88725   0.00000  Uiso   1.00
C967   C     0.43703   0.83396   0.50863   0.00000  Uiso   1.00
C968   C     0.35693   0.86399   0.69738   0.00000  Uiso   1.00
C969   C     0.48252   0.83508   0.98952   0.00000  Uiso   1.00
C970   C     0.50002   0.84728   0.94460   0.00000  Uiso   1.00
C971   C     0.51117   0.82358   0.51247   0.00000  Uiso   1.00
C972   C     0.55399   0.81727   0.98829   0.00000  Uiso   1.00
C973   C     0.57037   0.83070   0.94498   0.00000  Uiso   1.00
C974   C     0.54511   0.84906   0.92511   0.00000  Uiso   1.00
H975   H     0.58898   0.78779   0.57293   0.00000  Uiso   1.00
H976   H     0.65190   0.80952   0.79184   0.00000  Uiso   1.00
H977   H     0.60417   0.83031   0.92786   0.00000  Uiso   1.00
H978   H     0.47226   0.83490   0.58076   0.00000  Uiso   1.00
H979   H     0.40734   0.86969   0.92513   0.00000  Uiso   1.00
H980   H     0.37779   0.85080   0.50148   0.00000  Uiso   1.00
N981   N     0.58033   0.68974   0.67826   0.00000  Uiso   1.00
N982   N     0.41515   0.98413   0.82315   0.00000  Uiso   1.00
N983   N     0.65727   0.78311   0.96654   0.00000  Uiso   1.00
N984   N     0.39389   0.79336   0.57789   0.00000  Uiso   1.00
N985   N     0.58580   0.89235   0.85708   0.00000  Uiso   1.00
N986   N     0.38071   0.88088   0.66789   0.00000  Uiso   1.00
O987   O     0.50000   0.83333   0.75000   0.00000  Uiso   1.00
O988   O     0.48784   0.79304   0.65459   0.00000  Uiso   1.00
O989   O     0.46274   0.87058   0.84968   0.00000  Uiso   1.00
O990   O     0.54157   0.84425   0.64606   0.00000  Uiso   1.00
O991   O     0.50785   0.82546   0.84968   0.00000  Uiso   1.00
O992   O     0.51264   0.74686   0.78214   0.00000  Uiso   1.00
O993   O     0.47965   0.92751   0.77013   0.00000  Uiso   1.00
O994   O     0.40745   0.79958   0.73413   0.00000  Uiso   1.00
O995   O     0.60026   0.85939   0.71361   0.00000  Uiso   1.00
O996   O     0.40405   0.85544   0.78213   0.00000  Uiso   1.00
O997   O     0.58824   0.81892   0.77014   0.00000  Uiso   1.00
O998   O     0.47093   0.73610   0.73413   0.00000  Uiso   1.00
O999   O     0.53678   0.92286   0.71360   0.00000  Uiso   1.00
Zn1000 Zn    0.52672   0.80661   0.78734   0.00000  Uiso   1.00
Zn1001 Zn    0.46713   0.79124   0.71875   0.00000  Uiso   1.00
Zn1002 Zn    0.54389   0.86442   0.70657   0.00000  Uiso   1.00
Zn1003 Zn    0.46226   0.87106   0.78733   0.00000  Uiso   1.00
C1004  C     0.71939   0.82616   0.76048   0.00000  Uiso   1.00
C1005  C     0.83344   0.82197   0.55946   0.00000  Uiso   1.00
C1006  C     0.90086   0.79756   0.55585   0.00000  Uiso   1.00
C1007  C     0.94759   0.84048   0.73967   0.00000  Uiso   1.00
C1008  C     0.80503   0.85653   0.92032   0.00000  Uiso   1.00
C1009  C     0.99379   0.84276   0.73436   0.00000  Uiso   1.00
C1010  C     0.67423   0.82481   0.76375   0.00000  Uiso   1.00
C1011  C     0.84728   0.98931   0.73729   0.00000  Uiso   1.00
C1012  C     0.81786   0.67925   0.76425   0.00000  Uiso   1.00
C1013  C     0.82279   0.72290   0.76020   0.00000  Uiso   1.00
C1014  C     0.84324   0.94464   0.74025   0.00000  Uiso   1.00
C1015  C     0.74530   0.85029   0.98646   0.00000  Uiso   1.00
C1016  C     0.85220   0.81512   0.62930   0.00000  Uiso   1.00
C1017  C     0.81580   0.85194   0.87082   0.00000  Uiso   1.00
C1018  C     0.91435   0.80170   0.50972   0.00000  Uiso   1.00
C1019  C     0.86121   0.80912   0.58072   0.00000  Uiso   1.00
C1020  C     0.76237   0.86150   0.94283   0.00000  Uiso   1.00
C1021  C     0.88424   0.67476   0.70442   0.00000  Uiso   1.00
C1022  C     0.77931   0.99667   0.79698   0.00000  Uiso   1.00
C1023  C     0.95673   0.79141   0.98574   0.00000  Uiso   1.00
C1024  C     0.74655   0.81144   0.54717   0.00000  Uiso   1.00
C1025  C     0.90097   0.87310   0.88725   0.00000  Uiso   1.00
C1026  C     0.77036   0.83396   0.50863   0.00000  Uiso   1.00
C1027  C     0.69026   0.86399   0.69738   0.00000  Uiso   1.00
C1028  C     0.81585   0.83508   0.98952   0.00000  Uiso   1.00
C1029  C     0.83335   0.84728   0.94460   0.00000  Uiso   1.00
C1030  C     0.84451   0.82358   0.51247   0.00000  Uiso   1.00
C1031  C     0.88733   0.81727   0.98829   0.00000  Uiso   1.00
C1032  C     0.90370   0.83070   0.94498   0.00000  Uiso   1.00
C1033  C     0.87844   0.84906   0.92511   0.00000  Uiso   1.00
H1034  H     0.92231   0.78779   0.57293   0.00000  Uiso   1.00
H1035  H     0.98523   0.80952   0.79184   0.00000  Uiso   1.00
H1036  H     0.93750   0.83031   0.92786   0.00000  Uiso   1.00
H1037  H     0.80559   0.83490   0.58076   0.00000  Uiso   1.00
H1038  H     0.74067   0.86969   0.92513   0.00000  Uiso   1.00
H1039  H     0.71112   0.85080   0.50148   0.00000  Uiso   1.00
N1040  N     0.91366   0.68974   0.67826   0.00000  Uiso   1.00
N1041  N     0.74849   0.98413   0.82315   0.00000  Uiso   1.00
N1042  N     0.99060   0.78311   0.96654   0.00000  Uiso   1.00
N1043  N     0.72723   0.79336   0.57789   0.00000  Uiso   1.00
N1044  N     0.91913   0.89235   0.85708   0.00000  Uiso   1.00
N1045  N     0.71404   0.88088   0.66789   0.00000  Uiso   1.00
O1046  O     0.83333   0.83333   0.75000   0.00000  Uiso   1.00
O1047  O     0.82118   0.79304   0.65459   0.00000  Uiso   1.00
O1048  O     0.79607   0.87058   0.84968   0.00000  Uiso   1.00
O1049  O     0.87491   0.84425   0.64606   0.00000  Uiso   1.00
O1050  O     0.84118   0.82546   0.84968   0.00000  Uiso   1.00
O1051  O     0.84597   0.74686   0.78214   0.00000  Uiso   1.00
O1052  O     0.81298   0.92751   0.77013   0.00000  Uiso   1.00
O1053  O     0.74078   0.79958   0.73413   0.00000  Uiso   1.00
O1054  O     0.93360   0.85939   0.71361   0.00000  Uiso   1.00
O1055  O     0.73738   0.85544   0.78213   0.00000  Uiso   1.00
O1056  O     0.92158   0.81892   0.77014   0.00000  Uiso   1.00
O1057  O     0.80426   0.73610   0.73413   0.00000  Uiso   1.00
O1058  O     0.87012   0.92286   0.71360   0.00000  Uiso   1.00
Zn1059 Zn    0.86005   0.80661   0.78734   0.00000  Uiso   1.00
Zn1060 Zn    0.80046   0.79124   0.71875   0.00000  Uiso   1.00
Zn1061 Zn    0.87723   0.86442   0.70657   0.00000  Uiso   1.00
Zn1062 Zn    0.79560   0.87106   0.78733   0.00000  Uiso   1.00
loop_
_geom_bond_atom_site_label_1
_geom_bond_atom_site_label_2
_geom_bond_distance
_geom_bond_site_symmetry_2
_ccdc_geom_bond_type
C1     O52     1.272   .     A
C1     O50     1.274   .     A
C1     C7      1.440   .     S
C2     H34     1.078   .     S
C2     C27     1.407   .     A
C2     C16     1.390   .     A
C3     H31     1.085   .     S
C3     C15     1.392   .     A
C3     C16     1.393   .     A
C4     O53     1.281   .     A
C4     O51     1.281   .     A
C4     C6      1.459   .     S
C5     C14     1.474   .     S
C5     C17     1.398   .     A
C5     C26     1.422   .     A
C6     C66     1.341   .     S
C6     C83     1.452   .     S
C7     C124    1.341   1_455 S
C7     H150    1.086   1_455 S
C8     C11     1.460   .     S
C8     C186    1.355   .     S
C8     C195    1.454   .     S
C9     C10     1.430   .     S
C9     C362    1.355   1_545 S
C9     C373    1.450   1_545 S
C10    O48     1.278   .     A
C10    O54     1.275   .     A
C11    O49     1.263   .     A
C11    O55     1.272   .     A
C12    C17     1.383   .     A
C12    C554    1.394   .     S
C12    H567    1.085   .     S
C13    C16     1.450   .     S
C13    O46     1.271   .     A
C13    O44     1.278   .     A
C14    O47     1.287   .     A
C14    O45     1.285   .     A
C15    C551    1.447   1_554 S
C15    C559    1.416   1_554 S
C17    H35     1.084   .     S
C18    N37     1.157   .     T
C18    C362    1.454   1_545 S
C19    N38     1.158   .     T
C19    C186    1.450   .     S
C20    N39     1.157   .     T
C20    C546    1.447   .     S
C21    C23     1.446   .     S
C21    N40     1.158   .     T
C22    C30     1.449   .     S
C22    N41     1.158   .     T
C23    C543    1.394   1_554 S
C23    C556    1.434   1_554 S
C24    N42     1.157   .     T
C24    C124    1.452   1_455 S
C25    C26     1.430   .     A
C25    C554    1.434   .     S
C25    C558    1.430   .     S
C26    C30     1.422   .     A
C27    C556    1.430   1_554 S
C27    C559    1.424   1_554 S
C28    C29     1.397   .     A
C28    C546    1.416   .     S
C28    C558    1.424   .     S
C29    C30     1.387   .     A
C29    H33     1.085   .     S
H32    C66     1.086   .     S
H36    C543    1.085   1_554 S
O43    Zn59    1.932   .     S
O43    Zn57    1.953   .     S
O43    Zn56    1.967   .     S
O43    Zn58    1.926   .     S
O44    Zn57    1.923   .     S
O45    Zn59    1.939   .     S
O46    Zn58    1.936   .     S
O47    Zn56    1.922   .     S
O48    Zn56    1.941   .     S
O49    Zn59    1.940   .     S
O50    Zn57    1.924   .     S
O51    Zn58    1.939   .     S
O52    Zn59    1.934   .     S
O53    Zn56    1.919   .     S
O54    Zn57    1.948   .     S
O55    Zn58    1.943   .     S
C60    O111    1.272   .     A
C60    O109    1.274   .     A
C60    C66     1.440   .     S
C61    H93     1.078   .     S
C61    C86     1.407   .     A
C61    C75     1.390   .     A
C62    H90     1.085   .     S
C62    C74     1.392   .     A
C62    C75     1.393   .     A
C63    O112    1.281   .     A
C63    O110    1.281   .     A
C63    C65     1.459   .     S
C64    C73     1.474   .     S
C64    C76     1.398   .     A
C64    C85     1.422   .     A
C65    C125    1.341   .     S
C65    C142    1.452   .     S
C67    C70     1.460   .     S
C67    C245    1.355   .     S
C67    C254    1.454   .     S
C68    C69     1.430   .     S
C68    C421    1.355   1_545 S
C68    C432    1.450   1_545 S
C69    O107    1.278   .     A
C69    O113    1.275   .     A
C70    O108    1.263   .     A
C70    O114    1.272   .     A
C71    C76     1.383   .     A
C71    C613    1.394   .     S
C71    H626    1.085   .     S
C72    C75     1.450   .     S
C72    O105    1.271   .     A
C72    O103    1.278   .     A
C73    O106    1.287   .     A
C73    O104    1.285   .     A
C74    C610    1.447   1_554 S
C74    C618    1.416   1_554 S
C76    H94     1.084   .     S
C77    N96     1.157   .     T
C77    C421    1.454   1_545 S
C78    N97     1.158   .     T
C78    C245    1.450   .     S
C79    N98     1.157   .     T
C79    C605    1.447   .     S
C80    C82     1.446   .     S
C80    N99     1.158   .     T
C81    C89     1.449   .     S
C81    N100    1.158   .     T
C82    C602    1.394   1_554 S
C82    C615    1.434   1_554 S
C83    N101    1.157   .     T
C84    C85     1.430   .     A
C84    C613    1.434   .     S
C84    C617    1.430   .     S
C85    C89     1.422   .     A
C86    C615    1.430   1_554 S
C86    C618    1.424   1_554 S
C87    C88     1.397   .     A
C87    C605    1.416   .     S
C87    C617    1.424   .     S
C88    C89     1.387   .     A
C88    H92     1.085   .     S
H91    C125    1.086   .     S
H95    C602    1.085   1_554 S
O102   Zn118   1.932   .     S
O102   Zn116   1.953   .     S
O102   Zn115   1.967   .     S
O102   Zn117   1.926   .     S
O103   Zn116   1.923   .     S
O104   Zn118   1.939   .     S
O105   Zn117   1.936   .     S
O106   Zn115   1.922   .     S
O107   Zn115   1.941   .     S
O108   Zn118   1.940   .     S
O109   Zn116   1.924   .     S
O110   Zn117   1.939   .     S
O111   Zn118   1.934   .     S
O112   Zn115   1.919   .     S
O113   Zn116   1.948   .     S
O114   Zn117   1.943   .     S
C119   O170    1.272   .     A
C119   O168    1.274   .     A
C119   C125    1.440   .     S
C120   H152    1.078   .     S
C120   C145    1.407   .     A
C120   C134    1.390   .     A
C121   H149    1.085   .     S
C121   C133    1.392   .     A
C121   C134    1.393   .     A
C122   O171    1.281   .     A
C122   O169    1.281   .     A
C122   C124    1.459   .     S
C123   C132    1.474   .     S
C123   C135    1.398   .     A
C123   C144    1.422   .     A
C124   C7      1.341   1_655 S
C124   C24     1.452   1_655 S
C126   C129    1.460   .     S
C126   C304    1.355   .     S
C126   C313    1.454   .     S
C127   C128    1.430   .     S
C127   C480    1.355   1_545 S
C127   C491    1.450   1_545 S
C128   O166    1.278   .     A
C128   O172    1.275   .     A
C129   O167    1.263   .     A
C129   O173    1.272   .     A
C130   C135    1.383   .     A
C130   C672    1.394   .     S
C130   H685    1.085   .     S
C131   C134    1.450   .     S
C131   O164    1.271   .     A
C131   O162    1.278   .     A
C132   O165    1.287   .     A
C132   O163    1.285   .     A
C133   C669    1.447   1_554 S
C133   C677    1.416   1_554 S
C135   H153    1.084   .     S
C136   N155    1.157   .     T
C136   C480    1.454   1_545 S
C137   N156    1.158   .     T
C137   C304    1.450   .     S
C138   N157    1.157   .     T
C138   C664    1.447   .     S
C139   C141    1.446   .     S
C139   N158    1.158   .     T
C140   C148    1.449   .     S
C140   N159    1.158   .     T
C141   C661    1.394   1_554 S
C141   C674    1.434   1_554 S
C142   N160    1.157   .     T
C143   C144    1.430   .     A
C143   C672    1.434   .     S
C143   C676    1.430   .     S
C144   C148    1.422   .     A
C145   C674    1.430   1_554 S
C145   C677    1.424   1_554 S
C146   C147    1.397   .     A
C146   C664    1.416   .     S
C146   C676    1.424   .     S
C147   C148    1.387   .     A
C147   H151    1.085   .     S
H150   C7      1.086   1_655 S
H154   C661    1.085   1_554 S
O161   Zn177   1.932   .     S
O161   Zn175   1.953   .     S
O161   Zn174   1.967   .     S
O161   Zn176   1.926   .     S
O162   Zn175   1.923   .     S
O163   Zn177   1.939   .     S
O164   Zn176   1.936   .     S
O165   Zn174   1.922   .     S
O166   Zn174   1.941   .     S
O167   Zn177   1.940   .     S
O168   Zn175   1.924   .     S
O169   Zn176   1.939   .     S
O170   Zn177   1.934   .     S
O171   Zn174   1.919   .     S
O172   Zn175   1.948   .     S
O173   Zn176   1.943   .     S
C178   O229    1.272   .     A
C178   O227    1.274   .     A
C178   C184    1.440   .     S
C179   H211    1.078   .     S
C179   C204    1.407   .     A
C179   C193    1.390   .     A
C180   H208    1.085   .     S
C180   C192    1.392   .     A
C180   C193    1.393   .     A
C181   O230    1.281   .     A
C181   O228    1.281   .     A
C181   C183    1.459   .     S
C182   C191    1.474   .     S
C182   C194    1.398   .     A
C182   C203    1.422   .     A
C183   C243    1.341   .     S
C183   C260    1.452   .     S
C184   C301    1.341   1_455 S
C184   H327    1.086   1_455 S
C185   C188    1.460   .     S
C185   C363    1.355   .     S
C185   C372    1.454   .     S
C186   C187    1.430   .     S
C187   O225    1.278   .     A
C187   O231    1.275   .     A
C188   O226    1.263   .     A
C188   O232    1.272   .     A
C189   C194    1.383   .     A
C189   C731    1.394   .     S
C189   H744    1.085   .     S
C190   C193    1.450   .     S
C190   O223    1.271   .     A
C190   O221    1.278   .     A
C191   O224    1.287   .     A
C191   O222    1.285   .     A
C192   C728    1.447   1_554 S
C192   C736    1.416   1_554 S
C194   H212    1.084   .     S
C195   N214    1.157   .     T
C196   N215    1.158   .     T
C196   C363    1.450   .     S
C197   N216    1.157   .     T
C197   C723    1.447   .     S
C198   C200    1.446   .     S
C198   N217    1.158   .     T
C199   C207    1.449   .     S
C199   N218    1.158   .     T
C200   C720    1.394   1_554 S
C200   C733    1.434   1_554 S
C201   N219    1.157   .     T
C201   C301    1.452   1_455 S
C202   C203    1.430   .     A
C202   C731    1.434   .     S
C202   C735    1.430   .     S
C203   C207    1.422   .     A
C204   C733    1.430   1_554 S
C204   C736    1.424   1_554 S
C205   C206    1.397   .     A
C205   C723    1.416   .     S
C205   C735    1.424   .     S
C206   C207    1.387   .     A
C206   H210    1.085   .     S
H209   C243    1.086   .     S
H213   C720    1.085   1_554 S
O220   Zn236   1.932   .     S
O220   Zn234   1.953   .     S
O220   Zn233   1.967   .     S
O220   Zn235   1.926   .     S
O221   Zn234   1.923   .     S
O222   Zn236   1.939   .     S
O223   Zn235   1.936   .     S
O224   Zn233   1.922   .     S
O225   Zn233   1.941   .     S
O226   Zn236   1.940   .     S
O227   Zn234   1.924   .     S
O228   Zn235   1.939   .     S
O229   Zn236   1.934   .     S
O230   Zn233   1.919   .     S
O231   Zn234   1.948   .     S
O232   Zn235   1.943   .     S
C237   O288    1.272   .     A
C237   O286    1.274   .     A
C237   C243    1.440   .     S
C238   H270    1.078   .     S
C238   C263    1.407   .     A
C238   C252    1.390   .     A
C239   H267    1.085   .     S
C239   C251    1.392   .     A
C239   C252    1.393   .     A
C240   O289    1.281   .     A
C240   O287    1.281   .     A
C240   C242    1.459   .     S
C241   C250    1.474   .     S
C241   C253    1.398   .     A
C241   C262    1.422   .     A
C242   C302    1.341   .     S
C242   C319    1.452   .     S
C244   C247    1.460   .     S
C244   C422    1.355   .     S
C244   C431    1.454   .     S
C245   C246    1.430   .     S
C246   O284    1.278   .     A
C246   O290    1.275   .     A
C247   O285    1.263   .     A
C247   O291    1.272   .     A
C248   C253    1.383   .     A
C248   C790    1.394   .     S
C248   H803    1.085   .     S
C249   C252    1.450   .     S
C249   O282    1.271   .     A
C249   O280    1.278   .     A
C250   O283    1.287   .     A
C250   O281    1.285   .     A
C251   C787    1.447   1_554 S
C251   C795    1.416   1_554 S
C253   H271    1.084   .     S
C254   N273    1.157   .     T
C255   N274    1.158   .     T
C255   C422    1.450   .     S
C256   N275    1.157   .     T
C256   C782    1.447   .     S
C257   C259    1.446   .     S
C257   N276    1.158   .     T
C258   C266    1.449   .     S
C258   N277    1.158   .     T
C259   C779    1.394   1_554 S
C259   C792    1.434   1_554 S
C260   N278    1.157   .     T
C261   C262    1.430   .     A
C261   C790    1.434   .     S
C261   C794    1.430   .     S
C262   C266    1.422   .     A
C263   C792    1.430   1_554 S
C263   C795    1.424   1_554 S
C264   C265    1.397   .     A
C264   C782    1.416   .     S
C264   C794    1.424   .     S
C265   C266    1.387   .     A
C265   H269    1.085   .     S
H268   C302    1.086   .     S
H272   C779    1.085   1_554 S
O279   Zn295   1.932   .     S
O279   Zn293   1.953   .     S
O279   Zn292   1.967   .     S
O279   Zn294   1.926   .     S
O280   Zn293   1.923   .     S
O281   Zn295   1.939   .     S
O282   Zn294   1.936   .     S
O283   Zn292   1.922   .     S
O284   Zn292   1.941   .     S
O285   Zn295   1.940   .     S
O286   Zn293   1.924   .     S
O287   Zn294   1.939   .     S
O288   Zn295   1.934   .     S
O289   Zn292   1.919   .     S
O290   Zn293   1.948   .     S
O291   Zn294   1.943   .     S
C296   O347    1.272   .     A
C296   O345    1.274   .     A
C296   C302    1.440   .     S
C297   H329    1.078   .     S
C297   C322    1.407   .     A
C297   C311    1.390   .     A
C298   H326    1.085   .     S
C298   C310    1.392   .     A
C298   C311    1.393   .     A
C299   O348    1.281   .     A
C299   O346    1.281   .     A
C299   C301    1.459   .     S
C300   C309    1.474   .     S
C300   C312    1.398   .     A
C300   C321    1.422   .     A
C301   C184    1.341   1_655 S
C301   C201    1.452   1_655 S
C303   C306    1.460   .     S
C303   C481    1.355   .     S
C303   C490    1.454   .     S
C304   C305    1.430   .     S
C305   O343    1.278   .     A
C305   O349    1.275   .     A
C306   O344    1.263   .     A
C306   O350    1.272   .     A
C307   C312    1.383   .     A
C307   C849    1.394   .     S
C307   H862    1.085   .     S
C308   C311    1.450   .     S
C308   O341    1.271   .     A
C308   O339    1.278   .     A
C309   O342    1.287   .     A
C309   O340    1.285   .     A
C310   C846    1.447   1_554 S
C310   C854    1.416   1_554 S
C312   H330    1.084   .     S
C313   N332    1.157   .     T
C314   N333    1.158   .     T
C314   C481    1.450   .     S
C315   N334    1.157   .     T
C315   C841    1.447   .     S
C316   C318    1.446   .     S
C316   N335    1.158   .     T
C317   C325    1.449   .     S
C317   N336    1.158   .     T
C318   C838    1.394   1_554 S
C318   C851    1.434   1_554 S
C319   N337    1.157   .     T
C320   C321    1.430   .     A
C320   C849    1.434   .     S
C320   C853    1.430   .     S
C321   C325    1.422   .     A
C322   C851    1.430   1_554 S
C322   C854    1.424   1_554 S
C323   C324    1.397   .     A
C323   C841    1.416   .     S
C323   C853    1.424   .     S
C324   C325    1.387   .     A
C324   H328    1.085   .     S
H327   C184    1.086   1_655 S
H331   C838    1.085   1_554 S
O338   Zn354   1.932   .     S
O338   Zn352   1.953   .     S
O338   Zn351   1.967   .     S
O338   Zn353   1.926   .     S
O339   Zn352   1.923   .     S
O340   Zn354   1.939   .     S
O341   Zn353   1.936   .     S
O342   Zn351   1.922   .     S
O343   Zn351   1.941   .     S
O344   Zn354   1.940   .     S
O345   Zn352   1.924   .     S
O346   Zn353   1.939   .     S
O347   Zn354   1.934   .     S
O348   Zn351   1.919   .     S
O349   Zn352   1.948   .     S
O350   Zn353   1.943   .     S
C355   O406    1.272   .     A
C355   O404    1.274   .     A
C355   C361    1.440   .     S
C356   H388    1.078   .     S
C356   C381    1.407   .     A
C356   C370    1.390   .     A
C357   H385    1.085   .     S
C357   C369    1.392   .     A
C357   C370    1.393   .     A
C358   O407    1.281   .     A
C358   O405    1.281   .     A
C358   C360    1.459   .     S
C359   C368    1.474   .     S
C359   C371    1.398   .     A
C359   C380    1.422   .     A
C360   C420    1.341   .     S
C360   C437    1.452   .     S
C361   C478    1.341   1_455 S
C361   H504    1.086   1_455 S
C362   C365    1.460   .     S
C362   C9      1.355   1_565 S
C362   C18     1.454   1_565 S
C363   C364    1.430   .     S
C364   O402    1.278   .     A
C364   O408    1.275   .     A
C365   O403    1.263   .     A
C365   O409    1.272   .     A
C366   C371    1.383   .     A
C366   C908    1.394   .     S
C366   H921    1.085   .     S
C367   C370    1.450   .     S
C367   O400    1.271   .     A
C367   O398    1.278   .     A
C368   O401    1.287   .     A
C368   O399    1.285   .     A
C369   C905    1.447   1_554 S
C369   C913    1.416   1_554 S
C371   H389    1.084   .     S
C372   N391    1.157   .     T
C373   N392    1.158   .     T
C373   C9      1.450   1_565 S
C374   N393    1.157   .     T
C374   C900    1.447   .     S
C375   C377    1.446   .     S
C375   N394    1.158   .     T
C376   C384    1.449   .     S
C376   N395    1.158   .     T
C377   C897    1.394   1_554 S
C377   C910    1.434   1_554 S
C378   N396    1.157   .     T
C378   C478    1.452   1_455 S
C379   C380    1.430   .     A
C379   C908    1.434   .     S
C379   C912    1.430   .     S
C380   C384    1.422   .     A
C381   C910    1.430   1_554 S
C381   C913    1.424   1_554 S
C382   C383    1.397   .     A
C382   C900    1.416   .     S
C382   C912    1.424   .     S
C383   C384    1.387   .     A
C383   H387    1.085   .     S
H386   C420    1.086   .     S
H390   C897    1.085   1_554 S
O397   Zn413   1.932   .     S
O397   Zn411   1.953   .     S
O397   Zn410   1.967   .     S
O397   Zn412   1.926   .     S
O398   Zn411   1.923   .     S
O399   Zn413   1.939   .     S
O400   Zn412   1.936   .     S
O401   Zn410   1.922   .     S
O402   Zn410   1.941   .     S
O403   Zn413   1.940   .     S
O404   Zn411   1.924   .     S
O405   Zn412   1.939   .     S
O406   Zn413   1.934   .     S
O407   Zn410   1.919   .     S
O408   Zn411   1.948   .     S
O409   Zn412   1.943   .     S
C414   O465    1.272   .     A
C414   O463    1.274   .     A
C414   C420    1.440   .     S
C415   H447    1.078   .     S
C415   C440    1.407   .     A
C415   C429    1.390   .     A
C416   H444    1.085   .     S
C416   C428    1.392   .     A
C416   C429    1.393   .     A
C417   O466    1.281   .     A
C417   O464    1.281   .     A
C417   C419    1.459   .     S
C418   C427    1.474   .     S
C418   C430    1.398   .     A
C418   C439    1.422   .     A
C419   C479    1.341   .     S
C419   C496    1.452   .     S
C421   C424    1.460   .     S
C421   C68     1.355   1_565 S
C421   C77     1.454   1_565 S
C422   C423    1.430   .     S
C423   O461    1.278   .     A
C423   O467    1.275   .     A
C424   O462    1.263   .     A
C424   O468    1.272   .     A
C425   C430    1.383   .     A
C425   C967    1.394   .     S
C425   H980    1.085   .     S
C426   C429    1.450   .     S
C426   O459    1.271   .     A
C426   O457    1.278   .     A
C427   O460    1.287   .     A
C427   O458    1.285   .     A
C428   C964    1.447   1_554 S
C428   C972    1.416   1_554 S
C430   H448    1.084   .     S
C431   N450    1.157   .     T
C432   N451    1.158   .     T
C432   C68     1.450   1_565 S
C433   N452    1.157   .     T
C433   C959    1.447   .     S
C434   C436    1.446   .     S
C434   N453    1.158   .     T
C435   C443    1.449   .     S
C435   N454    1.158   .     T
C436   C956    1.394   1_554 S
C436   C969    1.434   1_554 S
C437   N455    1.157   .     T
C438   C439    1.430   .     A
C438   C967    1.434   .     S
C438   C971    1.430   .     S
C439   C443    1.422   .     A
C440   C969    1.430   1_554 S
C440   C972    1.424   1_554 S
C441   C442    1.397   .     A
C441   C959    1.416   .     S
C441   C971    1.424   .     S
C442   C443    1.387   .     A
C442   H446    1.085   .     S
H445   C479    1.086   .     S
H449   C956    1.085   1_554 S
O456   Zn472   1.932   .     S
O456   Zn470   1.953   .     S
O456   Zn469   1.967   .     S
O456   Zn471   1.926   .     S
O457   Zn470   1.923   .     S
O458   Zn472   1.939   .     S
O459   Zn471   1.936   .     S
O460   Zn469   1.922   .     S
O461   Zn469   1.941   .     S
O462   Zn472   1.940   .     S
O463   Zn470   1.924   .     S
O464   Zn471   1.939   .     S
O465   Zn472   1.934   .     S
O466   Zn469   1.919   .     S
O467   Zn470   1.948   .     S
O468   Zn471   1.943   .     S
C473   O524    1.272   .     A
C473   O522    1.274   .     A
C473   C479    1.440   .     S
C474   H506    1.078   .     S
C474   C499    1.407   .     A
C474   C488    1.390   .     A
C475   H503    1.085   .     S
C475   C487    1.392   .     A
C475   C488    1.393   .     A
C476   O525    1.281   .     A
C476   O523    1.281   .     A
C476   C478    1.459   .     S
C477   C486    1.474   .     S
C477   C489    1.398   .     A
C477   C498    1.422   .     A
C478   C361    1.341   1_655 S
C478   C378    1.452   1_655 S
C480   C483    1.460   .     S
C480   C127    1.355   1_565 S
C480   C136    1.454   1_565 S
C481   C482    1.430   .     S
C482   O520    1.278   .     A
C482   O526    1.275   .     A
C483   O521    1.263   .     A
C483   O527    1.272   .     A
C484   C489    1.383   .     A
C484   C1026   1.394   .     S
C484   H1039   1.085   .     S
C485   C488    1.450   .     S
C485   O518    1.271   .     A
C485   O516    1.278   .     A
C486   O519    1.287   .     A
C486   O517    1.285   .     A
C487   C1023   1.447   1_554 S
C487   C1031   1.416   1_554 S
C489   H507    1.084   .     S
C490   N509    1.157   .     T
C491   N510    1.158   .     T
C491   C127    1.450   1_565 S
C492   N511    1.157   .     T
C492   C1018   1.447   .     S
C493   C495    1.446   .     S
C493   N512    1.158   .     T
C494   C502    1.449   .     S
C494   N513    1.158   .     T
C495   C1015   1.394   1_554 S
C495   C1028   1.434   1_554 S
C496   N514    1.157   .     T
C497   C498    1.430   .     A
C497   C1026   1.434   .     S
C497   C1030   1.430   .     S
C498   C502    1.422   .     A
C499   C1028   1.430   1_554 S
C499   C1031   1.424   1_554 S
C500   C501    1.397   .     A
C500   C1018   1.416   .     S
C500   C1030   1.424   .     S
C501   C502    1.387   .     A
C501   H505    1.085   .     S
H504   C361    1.086   1_655 S
H508   C1015   1.085   1_554 S
O515   Zn531   1.932   .     S
O515   Zn529   1.953   .     S
O515   Zn528   1.967   .     S
O515   Zn530   1.926   .     S
O516   Zn529   1.923   .     S
O517   Zn531   1.939   .     S
O518   Zn530   1.936   .     S
O519   Zn528   1.922   .     S
O520   Zn528   1.941   .     S
O521   Zn531   1.940   .     S
O522   Zn529   1.924   .     S
O523   Zn530   1.939   .     S
O524   Zn531   1.934   .     S
O525   Zn528   1.919   .     S
O526   Zn529   1.948   .     S
O527   Zn530   1.943   .     S
C532   O583    1.272   .     A
C532   O581    1.274   .     A
C532   C538    1.440   .     S
C533   H565    1.078   .     S
C533   C558    1.407   .     A
C533   C547    1.390   .     A
C534   H562    1.085   .     S
C534   C546    1.392   .     A
C534   C547    1.393   .     A
C535   O584    1.281   .     A
C535   O582    1.281   .     A
C535   C537    1.459   .     S
C536   C545    1.474   .     S
C536   C548    1.398   .     A
C536   C557    1.422   .     A
C537   C597    1.341   .     S
C537   C614    1.452   .     S
C538   C655    1.341   1_455 S
C538   H681    1.086   1_455 S
C539   C542    1.460   .     S
C539   C717    1.355   .     S
C539   C726    1.454   .     S
C540   C541    1.430   .     S
C540   C893    1.355   1_545 S
C540   C904    1.450   1_545 S
C541   O579    1.278   .     A
C541   O585    1.275   .     A
C542   O580    1.263   .     A
C542   O586    1.272   .     A
C543   C548    1.383   .     A
C543   C23     1.394   1_556 S
C543   H36     1.085   1_556 S
C544   C547    1.450   .     S
C544   O577    1.271   .     A
C544   O575    1.278   .     A
C545   O578    1.287   .     A
C545   O576    1.285   .     A
C548   H566    1.084   .     S
C549   N568    1.157   .     T
C549   C893    1.454   1_545 S
C550   N569    1.158   .     T
C550   C717    1.450   .     S
C551   N570    1.157   .     T
C551   C15     1.447   1_556 S
C552   C554    1.446   .     S
C552   N571    1.158   .     T
C553   C561    1.449   .     S
C553   N572    1.158   .     T
C555   N573    1.157   .     T
C555   C655    1.452   1_455 S
C556   C557    1.430   .     A
C556   C23     1.434   1_556 S
C556   C27     1.430   1_556 S
C557   C561    1.422   .     A
C559   C560    1.397   .     A
C559   C15     1.416   1_556 S
C559   C27     1.424   1_556 S
C560   C561    1.387   .     A
C560   H564    1.085   .     S
H563   C597    1.086   .     S
O574   Zn590   1.932   .     S
O574   Zn588   1.953   .     S
O574   Zn587   1.967   .     S
O574   Zn589   1.926   .     S
O575   Zn588   1.923   .     S
O576   Zn590   1.939   .     S
O577   Zn589   1.936   .     S
O578   Zn587   1.922   .     S
O579   Zn587   1.941   .     S
O580   Zn590   1.940   .     S
O581   Zn588   1.924   .     S
O582   Zn589   1.939   .     S
O583   Zn590   1.934   .     S
O584   Zn587   1.919   .     S
O585   Zn588   1.948   .     S
O586   Zn589   1.943   .     S
C591   O642    1.272   .     A
C591   O640    1.274   .     A
C591   C597    1.440   .     S
C592   H624    1.078   .     S
C592   C617    1.407   .     A
C592   C606    1.390   .     A
C593   H621    1.085   .     S
C593   C605    1.392   .     A
C593   C606    1.393   .     A
C594   O643    1.281   .     A
C594   O641    1.281   .     A
C594   C596    1.459   .     S
C595   C604    1.474   .     S
C595   C607    1.398   .     A
C595   C616    1.422   .     A
C596   C656    1.341   .     S
C596   C673    1.452   .     S
C598   C601    1.460   .     S
C598   C776    1.355   .     S
C598   C785    1.454   .     S
C599   C600    1.430   .     S
C599   C952    1.355   1_545 S
C599   C963    1.450   1_545 S
C600   O638    1.278   .     A
C600   O644    1.275   .     A
C601   O639    1.263   .     A
C601   O645    1.272   .     A
C602   C607    1.383   .     A
C602   C82     1.394   1_556 S
C602   H95     1.085   1_556 S
C603   C606    1.450   .     S
C603   O636    1.271   .     A
C603   O634    1.278   .     A
C604   O637    1.287   .     A
C604   O635    1.285   .     A
C607   H625    1.084   .     S
C608   N627    1.157   .     T
C608   C952    1.454   1_545 S
C609   N628    1.158   .     T
C609   C776    1.450   .     S
C610   N629    1.157   .     T
C610   C74     1.447   1_556 S
C611   C613    1.446   .     S
C611   N630    1.158   .     T
C612   C620    1.449   .     S
C612   N631    1.158   .     T
C614   N632    1.157   .     T
C615   C616    1.430   .     A
C615   C82     1.434   1_556 S
C615   C86     1.430   1_556 S
C616   C620    1.422   .     A
C618   C619    1.397   .     A
C618   C74     1.416   1_556 S
C618   C86     1.424   1_556 S
C619   C620    1.387   .     A
C619   H623    1.085   .     S
H622   C656    1.086   .     S
O633   Zn649   1.932   .     S
O633   Zn647   1.953   .     S
O633   Zn646   1.967   .     S
O633   Zn648   1.926   .     S
O634   Zn647   1.923   .     S
O635   Zn649   1.939   .     S
O636   Zn648   1.936   .     S
O637   Zn646   1.922   .     S
O638   Zn646   1.941   .     S
O639   Zn649   1.940   .     S
O640   Zn647   1.924   .     S
O641   Zn648   1.939   .     S
O642   Zn649   1.934   .     S
O643   Zn646   1.919   .     S
O644   Zn647   1.948   .     S
O645   Zn648   1.943   .     S
C650   O701    1.272   .     A
C650   O699    1.274   .     A
C650   C656    1.440   .     S
C651   H683    1.078   .     S
C651   C676    1.407   .     A
C651   C665    1.390   .     A
C652   H680    1.085   .     S
C652   C664    1.392   .     A
C652   C665    1.393   .     A
C653   O702    1.281   .     A
C653   O700    1.281   .     A
C653   C655    1.459   .     S
C654   C663    1.474   .     S
C654   C666    1.398   .     A
C654   C675    1.422   .     A
C655   C538    1.341   1_655 S
C655   C555    1.452   1_655 S
C657   C660    1.460   .     S
C657   C835    1.355   .     S
C657   C844    1.454   .     S
C658   C659    1.430   .     S
C658   C1011   1.355   1_545 S
C658   C1022   1.450   1_545 S
C659   O697    1.278   .     A
C659   O703    1.275   .     A
C660   O698    1.263   .     A
C660   O704    1.272   .     A
C661   C666    1.383   .     A
C661   C141    1.394   1_556 S
C661   H154    1.085   1_556 S
C662   C665    1.450   .     S
C662   O695    1.271   .     A
C662   O693    1.278   .     A
C663   O696    1.287   .     A
C663   O694    1.285   .     A
C666   H684    1.084   .     S
C667   N686    1.157   .     T
C667   C1011   1.454   1_545 S
C668   N687    1.158   .     T
C668   C835    1.450   .     S
C669   N688    1.157   .     T
C669   C133    1.447   1_556 S
C670   C672    1.446   .     S
C670   N689    1.158   .     T
C671   C679    1.449   .     S
C671   N690    1.158   .     T
C673   N691    1.157   .     T
C674   C675    1.430   .     A
C674   C141    1.434   1_556 S
C674   C145    1.430   1_556 S
C675   C679    1.422   .     A
C677   C678    1.397   .     A
C677   C133    1.416   1_556 S
C677   C145    1.424   1_556 S
C678   C679    1.387   .     A
C678   H682    1.085   .     S
H681   C538    1.086   1_655 S
O692   Zn708   1.932   .     S
O692   Zn706   1.953   .     S
O692   Zn705   1.967   .     S
O692   Zn707   1.926   .     S
O693   Zn706   1.923   .     S
O694   Zn708   1.939   .     S
O695   Zn707   1.936   .     S
O696   Zn705   1.922   .     S
O697   Zn705   1.941   .     S
O698   Zn708   1.940   .     S
O699   Zn706   1.924   .     S
O700   Zn707   1.939   .     S
O701   Zn708   1.934   .     S
O702   Zn705   1.919   .     S
O703   Zn706   1.948   .     S
O704   Zn707   1.943   .     S
C709   O760    1.272   .     A
C709   O758    1.274   .     A
C709   C715    1.440   .     S
C710   H742    1.078   .     S
C710   C735    1.407   .     A
C710   C724    1.390   .     A
C711   H739    1.085   .     S
C711   C723    1.392   .     A
C711   C724    1.393   .     A
C712   O761    1.281   .     A
C712   O759    1.281   .     A
C712   C714    1.459   .     S
C713   C722    1.474   .     S
C713   C725    1.398   .     A
C713   C734    1.422   .     A
C714   C774    1.341   .     S
C714   C791    1.452   .     S
C715   C832    1.341   1_455 S
C715   H858    1.086   1_455 S
C716   C719    1.460   .     S
C716   C894    1.355   .     S
C716   C903    1.454   .     S
C717   C718    1.430   .     S
C718   O756    1.278   .     A
C718   O762    1.275   .     A
C719   O757    1.263   .     A
C719   O763    1.272   .     A
C720   C725    1.383   .     A
C720   C200    1.394   1_556 S
C720   H213    1.085   1_556 S
C721   C724    1.450   .     S
C721   O754    1.271   .     A
C721   O752    1.278   .     A
C722   O755    1.287   .     A
C722   O753    1.285   .     A
C725   H743    1.084   .     S
C726   N745    1.157   .     T
C727   N746    1.158   .     T
C727   C894    1.450   .     S
C728   N747    1.157   .     T
C728   C192    1.447   1_556 S
C729   C731    1.446   .     S
C729   N748    1.158   .     T
C730   C738    1.449   .     S
C730   N749    1.158   .     T
C732   N750    1.157   .     T
C732   C832    1.452   1_455 S
C733   C734    1.430   .     A
C733   C200    1.434   1_556 S
C733   C204    1.430   1_556 S
C734   C738    1.422   .     A
C736   C737    1.397   .     A
C736   C192    1.416   1_556 S
C736   C204    1.424   1_556 S
C737   C738    1.387   .     A
C737   H741    1.085   .     S
H740   C774    1.086   .     S
O751   Zn767   1.932   .     S
O751   Zn765   1.953   .     S
O751   Zn764   1.967   .     S
O751   Zn766   1.926   .     S
O752   Zn765   1.923   .     S
O753   Zn767   1.939   .     S
O754   Zn766   1.936   .     S
O755   Zn764   1.922   .     S
O756   Zn764   1.941   .     S
O757   Zn767   1.940   .     S
O758   Zn765   1.924   .     S
O759   Zn766   1.939   .     S
O760   Zn767   1.934   .     S
O761   Zn764   1.919   .     S
O762   Zn765   1.948   .     S
O763   Zn766   1.943   .     S
C768   O819    1.272   .     A
C768   O817    1.274   .     A
C768   C774    1.440   .     S
C769   H801    1.078   .     S
C769   C794    1.407   .     A
C769   C783    1.390   .     A
C770   H798    1.085   .     S
C770   C782    1.392   .     A
C770   C783    1.393   .     A
C771   O820    1.281   .     A
C771   O818    1.281   .     A
C771   C773    1.459   .     S
C772   C781    1.474   .     S
C772   C784    1.398   .     A
C772   C793    1.422   .     A
C773   C833    1.341   .     S
C773   C850    1.452   .     S
C775   C778    1.460   .     S
C775   C953    1.355   .     S
C775   C962    1.454   .     S
C776   C777    1.430   .     S
C777   O815    1.278   .     A
C777   O821    1.275   .     A
C778   O816    1.263   .     A
C778   O822    1.272   .     A
C779   C784    1.383   .     A
C779   C259    1.394   1_556 S
C779   H272    1.085   1_556 S
C780   C783    1.450   .     S
C780   O813    1.271   .     A
C780   O811    1.278   .     A
C781   O814    1.287   .     A
C781   O812    1.285   .     A
C784   H802    1.084   .     S
C785   N804    1.157   .     T
C786   N805    1.158   .     T
C786   C953    1.450   .     S
C787   N806    1.157   .     T
C787   C251    1.447   1_556 S
C788   C790    1.446   .     S
C788   N807    1.158   .     T
C789   C797    1.449   .     S
C789   N808    1.158   .     T
C791   N809    1.157   .     T
C792   C793    1.430   .     A
C792   C259    1.434   1_556 S
C792   C263    1.430   1_556 S
C793   C797    1.422   .     A
C795   C796    1.397   .     A
C795   C251    1.416   1_556 S
C795   C263    1.424   1_556 S
C796   C797    1.387   .     A
C796   H800    1.085   .     S
H799   C833    1.086   .     S
O810   Zn826   1.932   .     S
O810   Zn824   1.953   .     S
O810   Zn823   1.967   .     S
O810   Zn825   1.926   .     S
O811   Zn824   1.923   .     S
O812   Zn826   1.939   .     S
O813   Zn825   1.936   .     S
O814   Zn823   1.922   .     S
O815   Zn823   1.941   .     S
O816   Zn826   1.940   .     S
O817   Zn824   1.924   .     S
O818   Zn825   1.939   .     S
O819   Zn826   1.934   .     S
O820   Zn823   1.919   .     S
O821   Zn824   1.948   .     S
O822   Zn825   1.943   .     S
C827   O878    1.272   .     A
C827   O876    1.274   .     A
C827   C833    1.440   .     S
C828   H860    1.078   .     S
C828   C853    1.407   .     A
C828   C842    1.390   .     A
C829   H857    1.085   .     S
C829   C841    1.392   .     A
C829   C842    1.393   .     A
C830   O879    1.281   .     A
C830   O877    1.281   .     A
C830   C832    1.459   .     S
C831   C840    1.474   .     S
C831   C843    1.398   .     A
C831   C852    1.422   .     A
C832   C715    1.341   1_655 S
C832   C732    1.452   1_655 S
C834   C837    1.460   .     S
C834   C1012   1.355   .     S
C834   C1021   1.454   .     S
C835   C836    1.430   .     S
C836   O874    1.278   .     A
C836   O880    1.275   .     A
C837   O875    1.263   .     A
C837   O881    1.272   .     A
C838   C843    1.383   .     A
C838   C318    1.394   1_556 S
C838   H331    1.085   1_556 S
C839   C842    1.450   .     S
C839   O872    1.271   .     A
C839   O870    1.278   .     A
C840   O873    1.287   .     A
C840   O871    1.285   .     A
C843   H861    1.084   .     S
C844   N863    1.157   .     T
C845   N864    1.158   .     T
C845   C1012   1.450   .     S
C846   N865    1.157   .     T
C846   C310    1.447   1_556 S
C847   C849    1.446   .     S
C847   N866    1.158   .     T
C848   C856    1.449   .     S
C848   N867    1.158   .     T
C850   N868    1.157   .     T
C851   C852    1.430   .     A
C851   C318    1.434   1_556 S
C851   C322    1.430   1_556 S
C852   C856    1.422   .     A
C854   C855    1.397   .     A
C854   C310    1.416   1_556 S
C854   C322    1.424   1_556 S
C855   C856    1.387   .     A
C855   H859    1.085   .     S
H858   C715    1.086   1_655 S
O869   Zn885   1.932   .     S
O869   Zn883   1.953   .     S
O869   Zn882   1.967   .     S
O869   Zn884   1.926   .     S
O870   Zn883   1.923   .     S
O871   Zn885   1.939   .     S
O872   Zn884   1.936   .     S
O873   Zn882   1.922   .     S
O874   Zn882   1.941   .     S
O875   Zn885   1.940   .     S
O876   Zn883   1.924   .     S
O877   Zn884   1.939   .     S
O878   Zn885   1.934   .     S
O879   Zn882   1.919   .     S
O880   Zn883   1.948   .     S
O881   Zn884   1.943   .     S
C886   O937    1.272   .     A
C886   O935    1.274   .     A
C886   C892    1.440   .     S
C887   H919    1.078   .     S
C887   C912    1.407   .     A
C887   C901    1.390   .     A
C888   H916    1.085   .     S
C888   C900    1.392   .     A
C888   C901    1.393   .     A
C889   O938    1.281   .     A
C889   O936    1.281   .     A
C889   C891    1.459   .     S
C890   C899    1.474   .     S
C890   C902    1.398   .     A
C890   C911    1.422   .     A
C891   C951    1.341   .     S
C891   C968    1.452   .     S
C892   C1009   1.341   1_455 S
C892   H1035   1.086   1_455 S
C893   C896    1.460   .     S
C893   C540    1.355   1_565 S
C893   C549    1.454   1_565 S
C894   C895    1.430   .     S
C895   O933    1.278   .     A
C895   O939    1.275   .     A
C896   O934    1.263   .     A
C896   O940    1.272   .     A
C897   C902    1.383   .     A
C897   C377    1.394   1_556 S
C897   H390    1.085   1_556 S
C898   C901    1.450   .     S
C898   O931    1.271   .     A
C898   O929    1.278   .     A
C899   O932    1.287   .     A
C899   O930    1.285   .     A
C902   H920    1.084   .     S
C903   N922    1.157   .     T
C904   N923    1.158   .     T
C904   C540    1.450   1_565 S
C905   N924    1.157   .     T
C905   C369    1.447   1_556 S
C906   C908    1.446   .     S
C906   N925    1.158   .     T
C907   C915    1.449   .     S
C907   N926    1.158   .     T
C909   N927    1.157   .     T
C909   C1009   1.452   1_455 S
C910   C911    1.430   .     A
C910   C377    1.434   1_556 S
C910   C381    1.430   1_556 S
C911   C915    1.422   .     A
C913   C914    1.397   .     A
C913   C369    1.416   1_556 S
C913   C381    1.424   1_556 S
C914   C915    1.387   .     A
C914   H918    1.085   .     S
H917   C951    1.086   .     S
O928   Zn944   1.932   .     S
O928   Zn942   1.953   .     S
O928   Zn941   1.967   .     S
O928   Zn943   1.926   .     S
O929   Zn942   1.923   .     S
O930   Zn944   1.939   .     S
O931   Zn943   1.936   .     S
O932   Zn941   1.922   .     S
O933   Zn941   1.941   .     S
O934   Zn944   1.940   .     S
O935   Zn942   1.924   .     S
O936   Zn943   1.939   .     S
O937   Zn944   1.934   .     S
O938   Zn941   1.919   .     S
O939   Zn942   1.948   .     S
O940   Zn943   1.943   .     S
C945   O996    1.272   .     A
C945   O994    1.274   .     A
C945   C951    1.440   .     S
C946   H978    1.078   .     S
C946   C971    1.407   .     A
C946   C960    1.390   .     A
C947   H975    1.085   .     S
C947   C959    1.392   .     A
C947   C960    1.393   .     A
C948   O997    1.281   .     A
C948   O995    1.281   .     A
C948   C950    1.459   .     S
C949   C958    1.474   .     S
C949   C961    1.398   .     A
C949   C970    1.422   .     A
C950   C1010   1.341   .     S
C950   C1027   1.452   .     S
C952   C955    1.460   .     S
C952   C599    1.355   1_565 S
C952   C608    1.454   1_565 S
C953   C954    1.430   .     S
C954   O992    1.278   .     A
C954   O998    1.275   .     A
C955   O993    1.263   .     A
C955   O999    1.272   .     A
C956   C961    1.383   .     A
C956   C436    1.394   1_556 S
C956   H449    1.085   1_556 S
C957   C960    1.450   .     S
C957   O990    1.271   .     A
C957   O988    1.278   .     A
C958   O991    1.287   .     A
C958   O989    1.285   .     A
C961   H979    1.084   .     S
C962   N981    1.157   .     T
C963   N982    1.158   .     T
C963   C599    1.450   1_565 S
C964   N983    1.157   .     T
C964   C428    1.447   1_556 S
C965   C967    1.446   .     S
C965   N984    1.158   .     T
C966   C974    1.449   .     S
C966   N985    1.158   .     T
C968   N986    1.157   .     T
C969   C970    1.430   .     A
C969   C436    1.434   1_556 S
C969   C440    1.430   1_556 S
C970   C974    1.422   .     A
C972   C973    1.397   .     A
C972   C428    1.416   1_556 S
C972   C440    1.424   1_556 S
C973   C974    1.387   .     A
C973   H977    1.085   .     S
H976   C1010   1.086   .     S
O987   Zn1003  1.932   .     S
O987   Zn1001  1.953   .     S
O987   Zn1000  1.967   .     S
O987   Zn1002  1.926   .     S
O988   Zn1001  1.923   .     S
O989   Zn1003  1.939   .     S
O990   Zn1002  1.936   .     S
O991   Zn1000  1.922   .     S
O992   Zn1000  1.941   .     S
O993   Zn1003  1.940   .     S
O994   Zn1001  1.924   .     S
O995   Zn1002  1.939   .     S
O996   Zn1003  1.934   .     S
O997   Zn1000  1.919   .     S
O998   Zn1001  1.948   .     S
O999   Zn1002  1.943   .     S
C1004  O1055   1.272   .     A
C1004  O1053   1.274   .     A
C1004  C1010   1.440   .     S
C1005  H1037   1.078   .     S
C1005  C1030   1.407   .     A
C1005  C1019   1.390   .     A
C1006  H1034   1.085   .     S
C1006  C1018   1.392   .     A
C1006  C1019   1.393   .     A
C1007  O1056   1.281   .     A
C1007  O1054   1.281   .     A
C1007  C1009   1.459   .     S
C1008  C1017   1.474   .     S
C1008  C1020   1.398   .     A
C1008  C1029   1.422   .     A
C1009  C892    1.341   1_655 S
C1009  C909    1.452   1_655 S
C1011  C1014   1.460   .     S
C1011  C658    1.355   1_565 S
C1011  C667    1.454   1_565 S
C1012  C1013   1.430   .     S
C1013  O1051   1.278   .     A
C1013  O1057   1.275   .     A
C1014  O1052   1.263   .     A
C1014  O1058   1.272   .     A
C1015  C1020   1.383   .     A
C1015  C495    1.394   1_556 S
C1015  H508    1.085   1_556 S
C1016  C1019   1.450   .     S
C1016  O1049   1.271   .     A
C1016  O1047   1.278   .     A
C1017  O1050   1.287   .     A
C1017  O1048   1.285   .     A
C1020  H1038   1.084   .     S
C1021  N1040   1.157   .     T
C1022  N1041   1.158   .     T
C1022  C658    1.450   1_565 S
C1023  N1042   1.157   .     T
C1023  C487    1.447   1_556 S
C1024  C1026   1.446   .     S
C1024  N1043   1.158   .     T
C1025  C1033   1.449   .     S
C1025  N1044   1.158   .     T
C1027  N1045   1.157   .     T
C1028  C1029   1.430   .     A
C1028  C495    1.434   1_556 S
C1028  C499    1.430   1_556 S
C1029  C1033   1.422   .     A
C1031  C1032   1.397   .     A
C1031  C487    1.416   1_556 S
C1031  C499    1.424   1_556 S
C1032  C1033   1.387   .     A
C1032  H1036   1.085   .     S
H1035  C892    1.086   1_655 S
O1046  Zn1062  1.932   .     S
O1046  Zn1060  1.953   .     S
O1046  Zn1059  1.967   .     S
O1046  Zn1061  1.926   .     S
O1047  Zn1060  1.923   .     S
O1048  Zn1062  1.939   .     S
O1049  Zn1061  1.936   .     S
O1050  Zn1059  1.922   .     S
O1051  Zn1059  1.941   .     S
O1052  Zn1062  1.940   .     S
O1053  Zn1060  1.924   .     S
O1054  Zn1061  1.939   .     S
O1055  Zn1062  1.934   .     S
O1056  Zn1059  1.919   .     S
O1057  Zn1060  1.948   .     S
O1058  Zn1061  1.943   .     S
