data_str_m3_o1_o17_pcu_sym.211
_audit_creation_date              2020-01-03
_audit_creation_method            'Materials Studio'
_symmetry_space_group_name_H-M    'P1'
_symmetry_Int_Tables_number       1
_symmetry_cell_setting            triclinic
loop_
_symmetry_equiv_pos_as_xyz
  x,y,z
_cell_length_a                    31.8355
_cell_length_b                    29.3822
_cell_length_c                    30.0857
_cell_angle_alpha                 88.6467
_cell_angle_beta                  90.1590
_cell_angle_gamma                 89.7774
loop_
_atom_site_label
_atom_site_type_symbol
_atom_site_fract_x
_atom_site_fract_y
_atom_site_fract_z
_atom_site_U_iso_or_equiv
_atom_site_adp_type
_atom_site_occupancy
C1     C     0.08672   0.16672   0.24984   0.00000  Uiso   1.00
C2     C     0.24661   0.16661   0.25016   0.00000  Uiso   1.00
C3     C     0.12335   0.23802   0.01599   0.00000  Uiso   1.00
C4     C     0.20997   0.09531   0.48401   0.00000  Uiso   1.00
C5     C     0.02159   0.14687   0.21428   0.00000  Uiso   1.00
C6     C     0.31174   0.18646   0.28572   0.00000  Uiso   1.00
C7     C     0.31156   0.14701   0.21431   0.00000  Uiso   1.00
C8     C     0.02177   0.18632   0.28569   0.00000  Uiso   1.00
C9     C     0.29068   0.16659   0.25013   0.00000  Uiso   1.00
C10    C     0.04265   0.16674   0.24987   0.00000  Uiso   1.00
C11    C     0.13609   0.02363   0.27186   0.00000  Uiso   1.00
C12    C     0.19724   0.30970   0.22813   0.00000  Uiso   1.00
C13    C     0.19722   0.02443   0.22811   0.00000  Uiso   1.00
C14    C     0.13611   0.30890   0.27189   0.00000  Uiso   1.00
C15    C     0.16452   0.16732   0.16332   0.00000  Uiso   1.00
C16    C     0.16881   0.16601   0.33668   0.00000  Uiso   1.00
C17    C     0.18972   0.12768   0.40920   0.00000  Uiso   1.00
C18    C     0.14361   0.20566   0.09080   0.00000  Uiso   1.00
C19    C     0.17210   0.16494   0.38467   0.00000  Uiso   1.00
C20    C     0.16123   0.16839   0.11533   0.00000  Uiso   1.00
C21    C     0.15539   0.20231   0.40580   0.00000  Uiso   1.00
C22    C     0.17794   0.13102   0.09420   0.00000  Uiso   1.00
C23    C     0.15221   0.20247   0.45119   0.00000  Uiso   1.00
C24    C     0.18111   0.13086   0.04881   0.00000  Uiso   1.00
C25    C     0.16899   0.16623   0.47686   0.00000  Uiso   1.00
C26    C     0.16433   0.16710   0.02314   0.00000  Uiso   1.00
C27    C     0.19033   0.12935   0.45630   0.00000  Uiso   1.00
C28    C     0.14299   0.20398   0.04369   0.00000  Uiso   1.00
C29    C     0.13003   0.23769   0.47048   0.00000  Uiso   1.00
C30    C     0.20330   0.09563   0.02952   0.00000  Uiso   1.00
H31    H     0.14178   0.23041   0.38653   0.00000  Uiso   1.00
H32    H     0.19155   0.10292   0.11347   0.00000  Uiso   1.00
H33    H     0.11554   0.26397   0.44947   0.00000  Uiso   1.00
H34    H     0.21778   0.06935   0.05053   0.00000  Uiso   1.00
H35    H     0.11181   0.04161   0.28948   0.00000  Uiso   1.00
H36    H     0.22152   0.29173   0.21052   0.00000  Uiso   1.00
H37    H     0.22153   0.04304   0.21053   0.00000  Uiso   1.00
H38    H     0.11180   0.29029   0.28947   0.00000  Uiso   1.00
N39    N     0.16667   0.28573   0.25000   0.00000  Uiso   1.00
N40    N     0.16667   0.04760   0.25000   0.00000  Uiso   1.00
O41    O     0.10559   0.20487   0.24999   0.00000  Uiso   1.00
O42    O     0.22774   0.12846   0.25000   0.00000  Uiso   1.00
O43    O     0.22774   0.20487   0.25000   0.00000  Uiso   1.00
O44    O     0.10559   0.12846   0.24999   0.00000  Uiso   1.00
O45    O     0.16666   0.20489   0.18392   0.00000  Uiso   1.00
O46    O     0.16667   0.12844   0.31607   0.00000  Uiso   1.00
O47    O     0.16667   0.20489   0.31607   0.00000  Uiso   1.00
O48    O     0.16666   0.12844   0.18392   0.00000  Uiso   1.00
Zn49   Zn    0.16667   0.21771   0.25000   0.00000  Uiso   1.00
Zn50   Zn    0.16667   0.11563   0.25000   0.00000  Uiso   1.00
C51    C     0.20300   0.08595   0.38584   0.00000  Uiso   1.00
C52    C     0.17854   0.04631   0.38929   0.00000  Uiso   1.00
C53    C     0.19098   0.00689   0.36768   0.00000  Uiso   1.00
C54    C     0.22738   0.00701   0.34182   0.00000  Uiso   1.00
C55    C     0.25138   0.04659   0.33743   0.00000  Uiso   1.00
C56    C     0.23929   0.08597   0.35932   0.00000  Uiso   1.00
H57    H     0.15022   0.04585   0.40917   0.00000  Uiso   1.00
H58    H     0.17231   0.30963   0.37082   0.00000  Uiso   1.00
H59    H     0.23680   0.30988   0.32491   0.00000  Uiso   1.00
H60    H     0.27941   0.04673   0.31716   0.00000  Uiso   1.00
H61    H     0.25829   0.11626   0.35600   0.00000  Uiso   1.00
C62    C     0.13033   0.24739   0.11416   0.00000  Uiso   1.00
C63    C     0.09405   0.24737   0.14069   0.00000  Uiso   1.00
C64    C     0.08196   0.28675   0.16258   0.00000  Uiso   1.00
C65    C     0.10595   0.32632   0.15817   0.00000  Uiso   1.00
C66    C     0.14235   0.32645   0.13232   0.00000  Uiso   1.00
C67    C     0.15479   0.28703   0.11070   0.00000  Uiso   1.00
H68    H     0.07504   0.21707   0.14401   0.00000  Uiso   1.00
H69    H     0.05393   0.28661   0.18285   0.00000  Uiso   1.00
H70    H     0.09653   0.02346   0.17509   0.00000  Uiso   1.00
H71    H     0.16102   0.02371   0.12916   0.00000  Uiso   1.00
H72    H     0.18310   0.28749   0.09081   0.00000  Uiso   1.00
C73    C     0.09145   0.27115   0.03098   0.00000  Uiso   1.00
C74    C     0.09858   0.31820   0.02601   0.00000  Uiso   1.00
C75    C     0.06746   0.01601   0.03781   0.00000  Uiso   1.00
C76    C     0.02878   0.00046   0.05378   0.00000  Uiso   1.00
C77    C     0.02110   0.28707   0.05784   0.00000  Uiso   1.00
C78    C     0.05220   0.25579   0.04623   0.00000  Uiso   1.00
H79    H     0.12829   0.33066   0.01331   0.00000  Uiso   1.00
H80    H     0.07327   0.05220   0.03438   0.00000  Uiso   1.00
H81    H     0.00465   0.02461   0.06272   0.00000  Uiso   1.00
H82    H     0.32433   0.27508   0.06983   0.00000  Uiso   1.00
H83    H     0.04578   0.21967   0.04912   0.00000  Uiso   1.00
C84    C     0.24187   0.06217   0.46902   0.00000  Uiso   1.00
C85    C     0.28113   0.07752   0.45378   0.00000  Uiso   1.00
C86    C     0.31222   0.04624   0.44217   0.00000  Uiso   1.00
C87    C     0.30453   0.33285   0.44622   0.00000  Uiso   1.00
C88    C     0.26584   0.31730   0.46218   0.00000  Uiso   1.00
C89    C     0.23473   0.01512   0.47399   0.00000  Uiso   1.00
H90    H     0.28755   0.11364   0.45089   0.00000  Uiso   1.00
H91    H     0.00899   0.05822   0.43018   0.00000  Uiso   1.00
H92    H     0.32866   0.30869   0.43728   0.00000  Uiso   1.00
H93    H     0.26002   0.28112   0.46561   0.00000  Uiso   1.00
H94    H     0.20501   0.00267   0.48668   0.00000  Uiso   1.00
Br95   Br    0.05180   0.12075   0.16519   0.00000  Uiso   1.00
Br96   Br    0.28153   0.21258   0.33481   0.00000  Uiso   1.00
Br97   Br    0.28101   0.12268   0.16454   0.00000  Uiso   1.00
Br98   Br    0.05232   0.21065   0.33546   0.00000  Uiso   1.00
C99    C     0.42005   0.16672   0.24984   0.00000  Uiso   1.00
C100   C     0.57995   0.16661   0.25016   0.00000  Uiso   1.00
C101   C     0.45668   0.23802   0.01599   0.00000  Uiso   1.00
C102   C     0.54331   0.09531   0.48401   0.00000  Uiso   1.00
C103   C     0.35493   0.14687   0.21428   0.00000  Uiso   1.00
C104   C     0.64507   0.18646   0.28572   0.00000  Uiso   1.00
C105   C     0.64489   0.14701   0.21431   0.00000  Uiso   1.00
C106   C     0.35511   0.18632   0.28569   0.00000  Uiso   1.00
C107   C     0.62402   0.16659   0.25013   0.00000  Uiso   1.00
C108   C     0.37598   0.16674   0.24987   0.00000  Uiso   1.00
C109   C     0.46943   0.02363   0.27186   0.00000  Uiso   1.00
C110   C     0.53057   0.30970   0.22813   0.00000  Uiso   1.00
C111   C     0.53056   0.02443   0.22811   0.00000  Uiso   1.00
C112   C     0.46944   0.30890   0.27189   0.00000  Uiso   1.00
C113   C     0.49786   0.16732   0.16332   0.00000  Uiso   1.00
C114   C     0.50214   0.16601   0.33668   0.00000  Uiso   1.00
C115   C     0.52305   0.12768   0.40920   0.00000  Uiso   1.00
C116   C     0.47694   0.20566   0.09080   0.00000  Uiso   1.00
C117   C     0.50544   0.16494   0.38467   0.00000  Uiso   1.00
C118   C     0.49456   0.16839   0.11533   0.00000  Uiso   1.00
C119   C     0.48872   0.20231   0.40580   0.00000  Uiso   1.00
C120   C     0.51128   0.13102   0.09420   0.00000  Uiso   1.00
C121   C     0.48555   0.20247   0.45119   0.00000  Uiso   1.00
C122   C     0.51445   0.13086   0.04881   0.00000  Uiso   1.00
C123   C     0.50233   0.16623   0.47686   0.00000  Uiso   1.00
C124   C     0.49766   0.16710   0.02314   0.00000  Uiso   1.00
C125   C     0.52367   0.12935   0.45630   0.00000  Uiso   1.00
C126   C     0.47633   0.20398   0.04369   0.00000  Uiso   1.00
C127   C     0.46336   0.23769   0.47048   0.00000  Uiso   1.00
C128   C     0.53663   0.09563   0.02952   0.00000  Uiso   1.00
H129   H     0.47511   0.23041   0.38653   0.00000  Uiso   1.00
H130   H     0.52489   0.10292   0.11347   0.00000  Uiso   1.00
H131   H     0.44888   0.26397   0.44947   0.00000  Uiso   1.00
H132   H     0.55111   0.06935   0.05053   0.00000  Uiso   1.00
H133   H     0.44514   0.04161   0.28948   0.00000  Uiso   1.00
H134   H     0.55486   0.29173   0.21052   0.00000  Uiso   1.00
H135   H     0.55486   0.04304   0.21053   0.00000  Uiso   1.00
H136   H     0.44514   0.29029   0.28947   0.00000  Uiso   1.00
N137   N     0.50000   0.28573   0.25000   0.00000  Uiso   1.00
N138   N     0.50000   0.04760   0.25000   0.00000  Uiso   1.00
O139   O     0.43892   0.20487   0.24999   0.00000  Uiso   1.00
O140   O     0.56108   0.12846   0.25000   0.00000  Uiso   1.00
O141   O     0.56108   0.20487   0.25000   0.00000  Uiso   1.00
O142   O     0.43892   0.12846   0.24999   0.00000  Uiso   1.00
O143   O     0.49999   0.20489   0.18392   0.00000  Uiso   1.00
O144   O     0.50001   0.12844   0.31607   0.00000  Uiso   1.00
O145   O     0.50001   0.20489   0.31607   0.00000  Uiso   1.00
O146   O     0.49999   0.12844   0.18392   0.00000  Uiso   1.00
Zn147  Zn    0.50000   0.21771   0.25000   0.00000  Uiso   1.00
Zn148  Zn    0.50000   0.11563   0.25000   0.00000  Uiso   1.00
C149   C     0.53634   0.08595   0.38584   0.00000  Uiso   1.00
C150   C     0.51187   0.04631   0.38929   0.00000  Uiso   1.00
C151   C     0.52431   0.00689   0.36768   0.00000  Uiso   1.00
C152   C     0.56072   0.00701   0.34182   0.00000  Uiso   1.00
C153   C     0.58471   0.04659   0.33743   0.00000  Uiso   1.00
C154   C     0.57262   0.08597   0.35932   0.00000  Uiso   1.00
H155   H     0.48356   0.04585   0.40917   0.00000  Uiso   1.00
H156   H     0.50564   0.30963   0.37082   0.00000  Uiso   1.00
H157   H     0.57014   0.30988   0.32491   0.00000  Uiso   1.00
H158   H     0.61275   0.04673   0.31716   0.00000  Uiso   1.00
H159   H     0.59163   0.11626   0.35600   0.00000  Uiso   1.00
C160   C     0.46366   0.24739   0.11416   0.00000  Uiso   1.00
C161   C     0.42738   0.24737   0.14069   0.00000  Uiso   1.00
C162   C     0.41529   0.28675   0.16258   0.00000  Uiso   1.00
C163   C     0.43929   0.32632   0.15817   0.00000  Uiso   1.00
C164   C     0.47569   0.32645   0.13232   0.00000  Uiso   1.00
C165   C     0.48813   0.28703   0.11070   0.00000  Uiso   1.00
H166   H     0.40838   0.21707   0.14401   0.00000  Uiso   1.00
H167   H     0.38726   0.28661   0.18285   0.00000  Uiso   1.00
H168   H     0.42987   0.02346   0.17509   0.00000  Uiso   1.00
H169   H     0.49435   0.02371   0.12916   0.00000  Uiso   1.00
H170   H     0.51643   0.28749   0.09081   0.00000  Uiso   1.00
C171   C     0.42478   0.27115   0.03098   0.00000  Uiso   1.00
C172   C     0.43191   0.31820   0.02601   0.00000  Uiso   1.00
C173   C     0.40079   0.01601   0.03781   0.00000  Uiso   1.00
C174   C     0.36211   0.00046   0.05378   0.00000  Uiso   1.00
C175   C     0.35443   0.28707   0.05784   0.00000  Uiso   1.00
C176   C     0.38553   0.25579   0.04623   0.00000  Uiso   1.00
H177   H     0.46162   0.33066   0.01331   0.00000  Uiso   1.00
H178   H     0.40661   0.05220   0.03438   0.00000  Uiso   1.00
H179   H     0.33798   0.02461   0.06272   0.00000  Uiso   1.00
H180   H     0.65766   0.27508   0.06983   0.00000  Uiso   1.00
H181   H     0.37911   0.21967   0.04912   0.00000  Uiso   1.00
C182   C     0.57520   0.06217   0.46902   0.00000  Uiso   1.00
C183   C     0.61446   0.07752   0.45378   0.00000  Uiso   1.00
C184   C     0.64555   0.04624   0.44217   0.00000  Uiso   1.00
C185   C     0.63787   0.33285   0.44622   0.00000  Uiso   1.00
C186   C     0.59918   0.31730   0.46218   0.00000  Uiso   1.00
C187   C     0.56806   0.01512   0.47399   0.00000  Uiso   1.00
H188   H     0.62089   0.11364   0.45089   0.00000  Uiso   1.00
H189   H     0.34233   0.05822   0.43018   0.00000  Uiso   1.00
H190   H     0.66199   0.30869   0.43728   0.00000  Uiso   1.00
H191   H     0.59335   0.28112   0.46561   0.00000  Uiso   1.00
H192   H     0.53835   0.00267   0.48668   0.00000  Uiso   1.00
Br193  Br    0.38514   0.12075   0.16519   0.00000  Uiso   1.00
Br194  Br    0.61486   0.21258   0.33481   0.00000  Uiso   1.00
Br195  Br    0.61434   0.12268   0.16454   0.00000  Uiso   1.00
Br196  Br    0.38565   0.21065   0.33546   0.00000  Uiso   1.00
C197   C     0.75338   0.16672   0.24984   0.00000  Uiso   1.00
C198   C     0.91328   0.16661   0.25016   0.00000  Uiso   1.00
C199   C     0.79002   0.23802   0.01599   0.00000  Uiso   1.00
C200   C     0.87664   0.09531   0.48401   0.00000  Uiso   1.00
C201   C     0.68826   0.14687   0.21428   0.00000  Uiso   1.00
C202   C     0.97841   0.18646   0.28572   0.00000  Uiso   1.00
C203   C     0.97823   0.14701   0.21431   0.00000  Uiso   1.00
C204   C     0.68844   0.18632   0.28569   0.00000  Uiso   1.00
C205   C     0.95735   0.16659   0.25013   0.00000  Uiso   1.00
C206   C     0.70931   0.16674   0.24987   0.00000  Uiso   1.00
C207   C     0.80276   0.02363   0.27186   0.00000  Uiso   1.00
C208   C     0.86391   0.30970   0.22813   0.00000  Uiso   1.00
C209   C     0.86389   0.02443   0.22811   0.00000  Uiso   1.00
C210   C     0.80277   0.30890   0.27189   0.00000  Uiso   1.00
C211   C     0.83119   0.16732   0.16332   0.00000  Uiso   1.00
C212   C     0.83548   0.16601   0.33668   0.00000  Uiso   1.00
C213   C     0.85639   0.12768   0.40920   0.00000  Uiso   1.00
C214   C     0.81028   0.20566   0.09080   0.00000  Uiso   1.00
C215   C     0.83877   0.16494   0.38467   0.00000  Uiso   1.00
C216   C     0.82790   0.16839   0.11533   0.00000  Uiso   1.00
C217   C     0.82205   0.20231   0.40580   0.00000  Uiso   1.00
C218   C     0.84461   0.13102   0.09420   0.00000  Uiso   1.00
C219   C     0.81888   0.20247   0.45119   0.00000  Uiso   1.00
C220   C     0.84778   0.13086   0.04881   0.00000  Uiso   1.00
C221   C     0.83566   0.16623   0.47686   0.00000  Uiso   1.00
C222   C     0.83100   0.16710   0.02314   0.00000  Uiso   1.00
C223   C     0.85700   0.12935   0.45630   0.00000  Uiso   1.00
C224   C     0.80966   0.20398   0.04369   0.00000  Uiso   1.00
C225   C     0.79669   0.23769   0.47048   0.00000  Uiso   1.00
C226   C     0.86996   0.09563   0.02952   0.00000  Uiso   1.00
H227   H     0.80844   0.23041   0.38653   0.00000  Uiso   1.00
H228   H     0.85822   0.10292   0.11347   0.00000  Uiso   1.00
H229   H     0.78221   0.26397   0.44947   0.00000  Uiso   1.00
H230   H     0.88445   0.06935   0.05053   0.00000  Uiso   1.00
H231   H     0.77847   0.04161   0.28948   0.00000  Uiso   1.00
H232   H     0.88819   0.29173   0.21052   0.00000  Uiso   1.00
H233   H     0.88819   0.04304   0.21053   0.00000  Uiso   1.00
H234   H     0.77847   0.29029   0.28947   0.00000  Uiso   1.00
N235   N     0.83333   0.28573   0.25000   0.00000  Uiso   1.00
N236   N     0.83333   0.04760   0.25000   0.00000  Uiso   1.00
O237   O     0.77226   0.20487   0.24999   0.00000  Uiso   1.00
O238   O     0.89441   0.12846   0.25000   0.00000  Uiso   1.00
O239   O     0.89441   0.20487   0.25000   0.00000  Uiso   1.00
O240   O     0.77226   0.12846   0.24999   0.00000  Uiso   1.00
O241   O     0.83333   0.20489   0.18392   0.00000  Uiso   1.00
O242   O     0.83334   0.12844   0.31607   0.00000  Uiso   1.00
O243   O     0.83334   0.20489   0.31607   0.00000  Uiso   1.00
O244   O     0.83333   0.12844   0.18392   0.00000  Uiso   1.00
Zn245  Zn    0.83333   0.21771   0.25000   0.00000  Uiso   1.00
Zn246  Zn    0.83333   0.11563   0.25000   0.00000  Uiso   1.00
C247   C     0.86967   0.08595   0.38584   0.00000  Uiso   1.00
C248   C     0.84520   0.04631   0.38929   0.00000  Uiso   1.00
C249   C     0.85765   0.00689   0.36768   0.00000  Uiso   1.00
C250   C     0.89405   0.00701   0.34182   0.00000  Uiso   1.00
C251   C     0.91805   0.04659   0.33743   0.00000  Uiso   1.00
C252   C     0.90596   0.08597   0.35932   0.00000  Uiso   1.00
H253   H     0.81689   0.04585   0.40917   0.00000  Uiso   1.00
H254   H     0.83898   0.30963   0.37082   0.00000  Uiso   1.00
H255   H     0.90347   0.30988   0.32491   0.00000  Uiso   1.00
H256   H     0.94608   0.04673   0.31716   0.00000  Uiso   1.00
H257   H     0.92496   0.11626   0.35600   0.00000  Uiso   1.00
C258   C     0.79700   0.24739   0.11416   0.00000  Uiso   1.00
C259   C     0.76071   0.24737   0.14069   0.00000  Uiso   1.00
C260   C     0.74862   0.28675   0.16258   0.00000  Uiso   1.00
C261   C     0.77262   0.32632   0.15817   0.00000  Uiso   1.00
C262   C     0.80902   0.32645   0.13232   0.00000  Uiso   1.00
C263   C     0.82146   0.28703   0.11070   0.00000  Uiso   1.00
H264   H     0.74171   0.21707   0.14401   0.00000  Uiso   1.00
H265   H     0.72060   0.28661   0.18285   0.00000  Uiso   1.00
H266   H     0.76320   0.02346   0.17509   0.00000  Uiso   1.00
H267   H     0.82769   0.02371   0.12916   0.00000  Uiso   1.00
H268   H     0.84977   0.28749   0.09081   0.00000  Uiso   1.00
C269   C     0.75812   0.27115   0.03098   0.00000  Uiso   1.00
C270   C     0.76524   0.31820   0.02601   0.00000  Uiso   1.00
C271   C     0.73413   0.01601   0.03781   0.00000  Uiso   1.00
C272   C     0.69544   0.00046   0.05378   0.00000  Uiso   1.00
C273   C     0.68777   0.28707   0.05784   0.00000  Uiso   1.00
C274   C     0.71886   0.25579   0.04623   0.00000  Uiso   1.00
H275   H     0.79496   0.33066   0.01331   0.00000  Uiso   1.00
H276   H     0.73994   0.05220   0.03438   0.00000  Uiso   1.00
H277   H     0.67131   0.02461   0.06272   0.00000  Uiso   1.00
H278   H     0.99100   0.27508   0.06983   0.00000  Uiso   1.00
H279   H     0.71245   0.21967   0.04912   0.00000  Uiso   1.00
C280   C     0.90854   0.06217   0.46902   0.00000  Uiso   1.00
C281   C     0.94779   0.07752   0.45378   0.00000  Uiso   1.00
C282   C     0.97889   0.04624   0.44217   0.00000  Uiso   1.00
C283   C     0.97120   0.33285   0.44622   0.00000  Uiso   1.00
C284   C     0.93251   0.31730   0.46218   0.00000  Uiso   1.00
C285   C     0.90140   0.01512   0.47399   0.00000  Uiso   1.00
H286   H     0.95422   0.11364   0.45089   0.00000  Uiso   1.00
H287   H     0.67566   0.05822   0.43018   0.00000  Uiso   1.00
H288   H     0.99533   0.30869   0.43728   0.00000  Uiso   1.00
H289   H     0.92669   0.28112   0.46561   0.00000  Uiso   1.00
H290   H     0.87168   0.00267   0.48668   0.00000  Uiso   1.00
Br291  Br    0.71847   0.12075   0.16519   0.00000  Uiso   1.00
Br292  Br    0.94820   0.21258   0.33481   0.00000  Uiso   1.00
Br293  Br    0.94768   0.12268   0.16454   0.00000  Uiso   1.00
Br294  Br    0.71899   0.21065   0.33546   0.00000  Uiso   1.00
C295   C     0.08672   0.50005   0.24984   0.00000  Uiso   1.00
C296   C     0.24661   0.49995   0.25016   0.00000  Uiso   1.00
C297   C     0.12335   0.57135   0.01599   0.00000  Uiso   1.00
C298   C     0.20997   0.42864   0.48401   0.00000  Uiso   1.00
C299   C     0.02159   0.48021   0.21428   0.00000  Uiso   1.00
C300   C     0.31174   0.51979   0.28572   0.00000  Uiso   1.00
C301   C     0.31156   0.48035   0.21431   0.00000  Uiso   1.00
C302   C     0.02177   0.51965   0.28569   0.00000  Uiso   1.00
C303   C     0.29068   0.49993   0.25013   0.00000  Uiso   1.00
C304   C     0.04265   0.50007   0.24987   0.00000  Uiso   1.00
C305   C     0.13609   0.35697   0.27186   0.00000  Uiso   1.00
C306   C     0.19724   0.64303   0.22813   0.00000  Uiso   1.00
C307   C     0.19722   0.35776   0.22811   0.00000  Uiso   1.00
C308   C     0.13611   0.64223   0.27189   0.00000  Uiso   1.00
C309   C     0.16452   0.50066   0.16332   0.00000  Uiso   1.00
C310   C     0.16881   0.49934   0.33668   0.00000  Uiso   1.00
C311   C     0.18972   0.46101   0.40920   0.00000  Uiso   1.00
C312   C     0.14361   0.53899   0.09080   0.00000  Uiso   1.00
C313   C     0.17210   0.49828   0.38467   0.00000  Uiso   1.00
C314   C     0.16123   0.50172   0.11533   0.00000  Uiso   1.00
C315   C     0.15539   0.53564   0.40580   0.00000  Uiso   1.00
C316   C     0.17794   0.46436   0.09420   0.00000  Uiso   1.00
C317   C     0.15221   0.53581   0.45119   0.00000  Uiso   1.00
C318   C     0.18111   0.46419   0.04881   0.00000  Uiso   1.00
C319   C     0.16899   0.49956   0.47686   0.00000  Uiso   1.00
C320   C     0.16433   0.50043   0.02314   0.00000  Uiso   1.00
C321   C     0.19033   0.46269   0.45630   0.00000  Uiso   1.00
C322   C     0.14299   0.53731   0.04369   0.00000  Uiso   1.00
C323   C     0.13003   0.57103   0.47048   0.00000  Uiso   1.00
C324   C     0.20330   0.42897   0.02952   0.00000  Uiso   1.00
H325   H     0.14178   0.56375   0.38653   0.00000  Uiso   1.00
H326   H     0.19155   0.43625   0.11347   0.00000  Uiso   1.00
H327   H     0.11554   0.59731   0.44947   0.00000  Uiso   1.00
H328   H     0.21778   0.40269   0.05053   0.00000  Uiso   1.00
H329   H     0.11181   0.37494   0.28948   0.00000  Uiso   1.00
H330   H     0.22152   0.62506   0.21052   0.00000  Uiso   1.00
H331   H     0.22153   0.37637   0.21053   0.00000  Uiso   1.00
H332   H     0.11180   0.62363   0.28947   0.00000  Uiso   1.00
N333   N     0.16667   0.61907   0.25000   0.00000  Uiso   1.00
N334   N     0.16667   0.38093   0.25000   0.00000  Uiso   1.00
O335   O     0.10559   0.53821   0.24999   0.00000  Uiso   1.00
O336   O     0.22774   0.46179   0.25000   0.00000  Uiso   1.00
O337   O     0.22774   0.53821   0.25000   0.00000  Uiso   1.00
O338   O     0.10559   0.46179   0.24999   0.00000  Uiso   1.00
O339   O     0.16666   0.53823   0.18392   0.00000  Uiso   1.00
O340   O     0.16667   0.46177   0.31607   0.00000  Uiso   1.00
O341   O     0.16667   0.53823   0.31607   0.00000  Uiso   1.00
O342   O     0.16666   0.46177   0.18392   0.00000  Uiso   1.00
Zn343  Zn    0.16667   0.55104   0.25000   0.00000  Uiso   1.00
Zn344  Zn    0.16667   0.44896   0.25000   0.00000  Uiso   1.00
C345   C     0.20300   0.41928   0.38584   0.00000  Uiso   1.00
C346   C     0.17854   0.37964   0.38929   0.00000  Uiso   1.00
C347   C     0.19098   0.34022   0.36768   0.00000  Uiso   1.00
C348   C     0.22738   0.34035   0.34182   0.00000  Uiso   1.00
C349   C     0.25138   0.37992   0.33743   0.00000  Uiso   1.00
C350   C     0.23929   0.41930   0.35932   0.00000  Uiso   1.00
H351   H     0.15022   0.37918   0.40917   0.00000  Uiso   1.00
H352   H     0.17231   0.64296   0.37082   0.00000  Uiso   1.00
H353   H     0.23680   0.64321   0.32491   0.00000  Uiso   1.00
H354   H     0.27941   0.38006   0.31716   0.00000  Uiso   1.00
H355   H     0.25829   0.44959   0.35600   0.00000  Uiso   1.00
C356   C     0.13033   0.58072   0.11416   0.00000  Uiso   1.00
C357   C     0.09405   0.58070   0.14069   0.00000  Uiso   1.00
C358   C     0.08196   0.62008   0.16258   0.00000  Uiso   1.00
C359   C     0.10595   0.65966   0.15817   0.00000  Uiso   1.00
C360   C     0.14235   0.65978   0.13232   0.00000  Uiso   1.00
C361   C     0.15479   0.62036   0.11070   0.00000  Uiso   1.00
H362   H     0.07504   0.55040   0.14401   0.00000  Uiso   1.00
H363   H     0.05393   0.61994   0.18285   0.00000  Uiso   1.00
H364   H     0.09653   0.35679   0.17509   0.00000  Uiso   1.00
H365   H     0.16102   0.35704   0.12916   0.00000  Uiso   1.00
H366   H     0.18310   0.62082   0.09081   0.00000  Uiso   1.00
C367   C     0.09145   0.60449   0.03098   0.00000  Uiso   1.00
C368   C     0.09858   0.65154   0.02601   0.00000  Uiso   1.00
C369   C     0.06746   0.34935   0.03781   0.00000  Uiso   1.00
C370   C     0.02878   0.33379   0.05378   0.00000  Uiso   1.00
C371   C     0.02110   0.62040   0.05784   0.00000  Uiso   1.00
C372   C     0.05220   0.58912   0.04623   0.00000  Uiso   1.00
H373   H     0.12829   0.66399   0.01331   0.00000  Uiso   1.00
H374   H     0.07327   0.38553   0.03438   0.00000  Uiso   1.00
H375   H     0.00465   0.35794   0.06272   0.00000  Uiso   1.00
H376   H     0.32433   0.60841   0.06983   0.00000  Uiso   1.00
H377   H     0.04578   0.55300   0.04912   0.00000  Uiso   1.00
C378   C     0.24187   0.39550   0.46902   0.00000  Uiso   1.00
C379   C     0.28113   0.41085   0.45378   0.00000  Uiso   1.00
C380   C     0.31222   0.37957   0.44217   0.00000  Uiso   1.00
C381   C     0.30453   0.66618   0.44622   0.00000  Uiso   1.00
C382   C     0.26584   0.65063   0.46218   0.00000  Uiso   1.00
C383   C     0.23473   0.34845   0.47399   0.00000  Uiso   1.00
H384   H     0.28755   0.44698   0.45089   0.00000  Uiso   1.00
H385   H     0.00899   0.39155   0.43018   0.00000  Uiso   1.00
H386   H     0.32866   0.64203   0.43728   0.00000  Uiso   1.00
H387   H     0.26002   0.61445   0.46561   0.00000  Uiso   1.00
H388   H     0.20501   0.33600   0.48668   0.00000  Uiso   1.00
Br389  Br    0.05180   0.45409   0.16519   0.00000  Uiso   1.00
Br390  Br    0.28153   0.54591   0.33481   0.00000  Uiso   1.00
Br391  Br    0.28101   0.45601   0.16454   0.00000  Uiso   1.00
Br392  Br    0.05232   0.54399   0.33546   0.00000  Uiso   1.00
C393   C     0.42005   0.50005   0.24984   0.00000  Uiso   1.00
C394   C     0.57995   0.49995   0.25016   0.00000  Uiso   1.00
C395   C     0.45668   0.57135   0.01599   0.00000  Uiso   1.00
C396   C     0.54331   0.42864   0.48401   0.00000  Uiso   1.00
C397   C     0.35493   0.48021   0.21428   0.00000  Uiso   1.00
C398   C     0.64507   0.51979   0.28572   0.00000  Uiso   1.00
C399   C     0.64489   0.48035   0.21431   0.00000  Uiso   1.00
C400   C     0.35511   0.51965   0.28569   0.00000  Uiso   1.00
C401   C     0.62402   0.49993   0.25013   0.00000  Uiso   1.00
C402   C     0.37598   0.50007   0.24987   0.00000  Uiso   1.00
C403   C     0.46943   0.35697   0.27186   0.00000  Uiso   1.00
C404   C     0.53057   0.64303   0.22813   0.00000  Uiso   1.00
C405   C     0.53056   0.35776   0.22811   0.00000  Uiso   1.00
C406   C     0.46944   0.64223   0.27189   0.00000  Uiso   1.00
C407   C     0.49786   0.50066   0.16332   0.00000  Uiso   1.00
C408   C     0.50214   0.49934   0.33668   0.00000  Uiso   1.00
C409   C     0.52305   0.46101   0.40920   0.00000  Uiso   1.00
C410   C     0.47694   0.53899   0.09080   0.00000  Uiso   1.00
C411   C     0.50544   0.49828   0.38467   0.00000  Uiso   1.00
C412   C     0.49456   0.50172   0.11533   0.00000  Uiso   1.00
C413   C     0.48872   0.53564   0.40580   0.00000  Uiso   1.00
C414   C     0.51128   0.46436   0.09420   0.00000  Uiso   1.00
C415   C     0.48555   0.53581   0.45119   0.00000  Uiso   1.00
C416   C     0.51445   0.46419   0.04881   0.00000  Uiso   1.00
C417   C     0.50233   0.49956   0.47686   0.00000  Uiso   1.00
C418   C     0.49766   0.50043   0.02314   0.00000  Uiso   1.00
C419   C     0.52367   0.46269   0.45630   0.00000  Uiso   1.00
C420   C     0.47633   0.53731   0.04369   0.00000  Uiso   1.00
C421   C     0.46336   0.57103   0.47048   0.00000  Uiso   1.00
C422   C     0.53663   0.42897   0.02952   0.00000  Uiso   1.00
H423   H     0.47511   0.56375   0.38653   0.00000  Uiso   1.00
H424   H     0.52489   0.43625   0.11347   0.00000  Uiso   1.00
H425   H     0.44888   0.59731   0.44947   0.00000  Uiso   1.00
H426   H     0.55111   0.40269   0.05053   0.00000  Uiso   1.00
H427   H     0.44514   0.37494   0.28948   0.00000  Uiso   1.00
H428   H     0.55486   0.62506   0.21052   0.00000  Uiso   1.00
H429   H     0.55486   0.37637   0.21053   0.00000  Uiso   1.00
H430   H     0.44514   0.62363   0.28947   0.00000  Uiso   1.00
N431   N     0.50000   0.61907   0.25000   0.00000  Uiso   1.00
N432   N     0.50000   0.38093   0.25000   0.00000  Uiso   1.00
O433   O     0.43892   0.53821   0.24999   0.00000  Uiso   1.00
O434   O     0.56108   0.46179   0.25000   0.00000  Uiso   1.00
O435   O     0.56108   0.53821   0.25000   0.00000  Uiso   1.00
O436   O     0.43892   0.46179   0.24999   0.00000  Uiso   1.00
O437   O     0.49999   0.53823   0.18392   0.00000  Uiso   1.00
O438   O     0.50001   0.46177   0.31607   0.00000  Uiso   1.00
O439   O     0.50001   0.53823   0.31607   0.00000  Uiso   1.00
O440   O     0.49999   0.46177   0.18392   0.00000  Uiso   1.00
Zn441  Zn    0.50000   0.55104   0.25000   0.00000  Uiso   1.00
Zn442  Zn    0.50000   0.44896   0.25000   0.00000  Uiso   1.00
C443   C     0.53634   0.41928   0.38584   0.00000  Uiso   1.00
C444   C     0.51187   0.37964   0.38929   0.00000  Uiso   1.00
C445   C     0.52431   0.34022   0.36768   0.00000  Uiso   1.00
C446   C     0.56072   0.34035   0.34182   0.00000  Uiso   1.00
C447   C     0.58471   0.37992   0.33743   0.00000  Uiso   1.00
C448   C     0.57262   0.41930   0.35932   0.00000  Uiso   1.00
H449   H     0.48356   0.37918   0.40917   0.00000  Uiso   1.00
H450   H     0.50564   0.64296   0.37082   0.00000  Uiso   1.00
H451   H     0.57014   0.64321   0.32491   0.00000  Uiso   1.00
H452   H     0.61275   0.38006   0.31716   0.00000  Uiso   1.00
H453   H     0.59163   0.44959   0.35600   0.00000  Uiso   1.00
C454   C     0.46366   0.58072   0.11416   0.00000  Uiso   1.00
C455   C     0.42738   0.58070   0.14069   0.00000  Uiso   1.00
C456   C     0.41529   0.62008   0.16258   0.00000  Uiso   1.00
C457   C     0.43929   0.65966   0.15817   0.00000  Uiso   1.00
C458   C     0.47569   0.65978   0.13232   0.00000  Uiso   1.00
C459   C     0.48813   0.62036   0.11070   0.00000  Uiso   1.00
H460   H     0.40838   0.55040   0.14401   0.00000  Uiso   1.00
H461   H     0.38726   0.61994   0.18285   0.00000  Uiso   1.00
H462   H     0.42987   0.35679   0.17509   0.00000  Uiso   1.00
H463   H     0.49435   0.35704   0.12916   0.00000  Uiso   1.00
H464   H     0.51643   0.62082   0.09081   0.00000  Uiso   1.00
C465   C     0.42478   0.60449   0.03098   0.00000  Uiso   1.00
C466   C     0.43191   0.65154   0.02601   0.00000  Uiso   1.00
C467   C     0.40079   0.34935   0.03781   0.00000  Uiso   1.00
C468   C     0.36211   0.33379   0.05378   0.00000  Uiso   1.00
C469   C     0.35443   0.62040   0.05784   0.00000  Uiso   1.00
C470   C     0.38553   0.58912   0.04623   0.00000  Uiso   1.00
H471   H     0.46162   0.66399   0.01331   0.00000  Uiso   1.00
H472   H     0.40661   0.38553   0.03438   0.00000  Uiso   1.00
H473   H     0.33798   0.35794   0.06272   0.00000  Uiso   1.00
H474   H     0.65766   0.60841   0.06983   0.00000  Uiso   1.00
H475   H     0.37911   0.55300   0.04912   0.00000  Uiso   1.00
C476   C     0.57520   0.39550   0.46902   0.00000  Uiso   1.00
C477   C     0.61446   0.41085   0.45378   0.00000  Uiso   1.00
C478   C     0.64555   0.37957   0.44217   0.00000  Uiso   1.00
C479   C     0.63787   0.66618   0.44622   0.00000  Uiso   1.00
C480   C     0.59918   0.65063   0.46218   0.00000  Uiso   1.00
C481   C     0.56806   0.34845   0.47399   0.00000  Uiso   1.00
H482   H     0.62089   0.44698   0.45089   0.00000  Uiso   1.00
H483   H     0.34233   0.39155   0.43018   0.00000  Uiso   1.00
H484   H     0.66199   0.64203   0.43728   0.00000  Uiso   1.00
H485   H     0.59335   0.61445   0.46561   0.00000  Uiso   1.00
H486   H     0.53835   0.33600   0.48668   0.00000  Uiso   1.00
Br487  Br    0.38514   0.45409   0.16519   0.00000  Uiso   1.00
Br488  Br    0.61486   0.54591   0.33481   0.00000  Uiso   1.00
Br489  Br    0.61434   0.45601   0.16454   0.00000  Uiso   1.00
Br490  Br    0.38565   0.54399   0.33546   0.00000  Uiso   1.00
C491   C     0.75338   0.50005   0.24984   0.00000  Uiso   1.00
C492   C     0.91328   0.49995   0.25016   0.00000  Uiso   1.00
C493   C     0.79002   0.57135   0.01599   0.00000  Uiso   1.00
C494   C     0.87664   0.42864   0.48401   0.00000  Uiso   1.00
C495   C     0.68826   0.48021   0.21428   0.00000  Uiso   1.00
C496   C     0.97841   0.51979   0.28572   0.00000  Uiso   1.00
C497   C     0.97823   0.48035   0.21431   0.00000  Uiso   1.00
C498   C     0.68844   0.51965   0.28569   0.00000  Uiso   1.00
C499   C     0.95735   0.49993   0.25013   0.00000  Uiso   1.00
C500   C     0.70931   0.50007   0.24987   0.00000  Uiso   1.00
C501   C     0.80276   0.35697   0.27186   0.00000  Uiso   1.00
C502   C     0.86391   0.64303   0.22813   0.00000  Uiso   1.00
C503   C     0.86389   0.35776   0.22811   0.00000  Uiso   1.00
C504   C     0.80277   0.64223   0.27189   0.00000  Uiso   1.00
C505   C     0.83119   0.50066   0.16332   0.00000  Uiso   1.00
C506   C     0.83548   0.49934   0.33668   0.00000  Uiso   1.00
C507   C     0.85639   0.46101   0.40920   0.00000  Uiso   1.00
C508   C     0.81028   0.53899   0.09080   0.00000  Uiso   1.00
C509   C     0.83877   0.49828   0.38467   0.00000  Uiso   1.00
C510   C     0.82790   0.50172   0.11533   0.00000  Uiso   1.00
C511   C     0.82205   0.53564   0.40580   0.00000  Uiso   1.00
C512   C     0.84461   0.46436   0.09420   0.00000  Uiso   1.00
C513   C     0.81888   0.53581   0.45119   0.00000  Uiso   1.00
C514   C     0.84778   0.46419   0.04881   0.00000  Uiso   1.00
C515   C     0.83566   0.49956   0.47686   0.00000  Uiso   1.00
C516   C     0.83100   0.50043   0.02314   0.00000  Uiso   1.00
C517   C     0.85700   0.46269   0.45630   0.00000  Uiso   1.00
C518   C     0.80966   0.53731   0.04369   0.00000  Uiso   1.00
C519   C     0.79669   0.57103   0.47048   0.00000  Uiso   1.00
C520   C     0.86996   0.42897   0.02952   0.00000  Uiso   1.00
H521   H     0.80844   0.56375   0.38653   0.00000  Uiso   1.00
H522   H     0.85822   0.43625   0.11347   0.00000  Uiso   1.00
H523   H     0.78221   0.59731   0.44947   0.00000  Uiso   1.00
H524   H     0.88445   0.40269   0.05053   0.00000  Uiso   1.00
H525   H     0.77847   0.37494   0.28948   0.00000  Uiso   1.00
H526   H     0.88819   0.62506   0.21052   0.00000  Uiso   1.00
H527   H     0.88819   0.37637   0.21053   0.00000  Uiso   1.00
H528   H     0.77847   0.62363   0.28947   0.00000  Uiso   1.00
N529   N     0.83333   0.61907   0.25000   0.00000  Uiso   1.00
N530   N     0.83333   0.38093   0.25000   0.00000  Uiso   1.00
O531   O     0.77226   0.53821   0.24999   0.00000  Uiso   1.00
O532   O     0.89441   0.46179   0.25000   0.00000  Uiso   1.00
O533   O     0.89441   0.53821   0.25000   0.00000  Uiso   1.00
O534   O     0.77226   0.46179   0.24999   0.00000  Uiso   1.00
O535   O     0.83333   0.53823   0.18392   0.00000  Uiso   1.00
O536   O     0.83334   0.46177   0.31607   0.00000  Uiso   1.00
O537   O     0.83334   0.53823   0.31607   0.00000  Uiso   1.00
O538   O     0.83333   0.46177   0.18392   0.00000  Uiso   1.00
Zn539  Zn    0.83333   0.55104   0.25000   0.00000  Uiso   1.00
Zn540  Zn    0.83333   0.44896   0.25000   0.00000  Uiso   1.00
C541   C     0.86967   0.41928   0.38584   0.00000  Uiso   1.00
C542   C     0.84520   0.37964   0.38929   0.00000  Uiso   1.00
C543   C     0.85765   0.34022   0.36768   0.00000  Uiso   1.00
C544   C     0.89405   0.34035   0.34182   0.00000  Uiso   1.00
C545   C     0.91805   0.37992   0.33743   0.00000  Uiso   1.00
C546   C     0.90596   0.41930   0.35932   0.00000  Uiso   1.00
H547   H     0.81689   0.37918   0.40917   0.00000  Uiso   1.00
H548   H     0.83898   0.64296   0.37082   0.00000  Uiso   1.00
H549   H     0.90347   0.64321   0.32491   0.00000  Uiso   1.00
H550   H     0.94608   0.38006   0.31716   0.00000  Uiso   1.00
H551   H     0.92496   0.44959   0.35600   0.00000  Uiso   1.00
C552   C     0.79700   0.58072   0.11416   0.00000  Uiso   1.00
C553   C     0.76071   0.58070   0.14069   0.00000  Uiso   1.00
C554   C     0.74862   0.62008   0.16258   0.00000  Uiso   1.00
C555   C     0.77262   0.65966   0.15817   0.00000  Uiso   1.00
C556   C     0.80902   0.65978   0.13232   0.00000  Uiso   1.00
C557   C     0.82146   0.62036   0.11070   0.00000  Uiso   1.00
H558   H     0.74171   0.55040   0.14401   0.00000  Uiso   1.00
H559   H     0.72060   0.61994   0.18285   0.00000  Uiso   1.00
H560   H     0.76320   0.35679   0.17509   0.00000  Uiso   1.00
H561   H     0.82769   0.35704   0.12916   0.00000  Uiso   1.00
H562   H     0.84977   0.62082   0.09081   0.00000  Uiso   1.00
C563   C     0.75812   0.60449   0.03098   0.00000  Uiso   1.00
C564   C     0.76524   0.65154   0.02601   0.00000  Uiso   1.00
C565   C     0.73413   0.34935   0.03781   0.00000  Uiso   1.00
C566   C     0.69544   0.33379   0.05378   0.00000  Uiso   1.00
C567   C     0.68777   0.62040   0.05784   0.00000  Uiso   1.00
C568   C     0.71886   0.58912   0.04623   0.00000  Uiso   1.00
H569   H     0.79496   0.66399   0.01331   0.00000  Uiso   1.00
H570   H     0.73994   0.38553   0.03438   0.00000  Uiso   1.00
H571   H     0.67131   0.35794   0.06272   0.00000  Uiso   1.00
H572   H     0.99100   0.60841   0.06983   0.00000  Uiso   1.00
H573   H     0.71245   0.55300   0.04912   0.00000  Uiso   1.00
C574   C     0.90854   0.39550   0.46902   0.00000  Uiso   1.00
C575   C     0.94779   0.41085   0.45378   0.00000  Uiso   1.00
C576   C     0.97889   0.37957   0.44217   0.00000  Uiso   1.00
C577   C     0.97120   0.66618   0.44622   0.00000  Uiso   1.00
C578   C     0.93251   0.65063   0.46218   0.00000  Uiso   1.00
C579   C     0.90140   0.34845   0.47399   0.00000  Uiso   1.00
H580   H     0.95422   0.44698   0.45089   0.00000  Uiso   1.00
H581   H     0.67566   0.39155   0.43018   0.00000  Uiso   1.00
H582   H     0.99533   0.64203   0.43728   0.00000  Uiso   1.00
H583   H     0.92669   0.61445   0.46561   0.00000  Uiso   1.00
H584   H     0.87168   0.33600   0.48668   0.00000  Uiso   1.00
Br585  Br    0.71847   0.45409   0.16519   0.00000  Uiso   1.00
Br586  Br    0.94820   0.54591   0.33481   0.00000  Uiso   1.00
Br587  Br    0.94768   0.45601   0.16454   0.00000  Uiso   1.00
Br588  Br    0.71899   0.54399   0.33546   0.00000  Uiso   1.00
C589   C     0.08672   0.83339   0.24984   0.00000  Uiso   1.00
C590   C     0.24661   0.83328   0.25016   0.00000  Uiso   1.00
C591   C     0.12335   0.90468   0.01599   0.00000  Uiso   1.00
C592   C     0.20997   0.76198   0.48401   0.00000  Uiso   1.00
C593   C     0.02159   0.81354   0.21428   0.00000  Uiso   1.00
C594   C     0.31174   0.85312   0.28572   0.00000  Uiso   1.00
C595   C     0.31156   0.81368   0.21431   0.00000  Uiso   1.00
C596   C     0.02177   0.85299   0.28569   0.00000  Uiso   1.00
C597   C     0.29068   0.83326   0.25013   0.00000  Uiso   1.00
C598   C     0.04265   0.83341   0.24987   0.00000  Uiso   1.00
C599   C     0.13609   0.69030   0.27186   0.00000  Uiso   1.00
C600   C     0.19724   0.97637   0.22813   0.00000  Uiso   1.00
C601   C     0.19722   0.69110   0.22811   0.00000  Uiso   1.00
C602   C     0.13611   0.97557   0.27189   0.00000  Uiso   1.00
C603   C     0.16452   0.83399   0.16332   0.00000  Uiso   1.00
C604   C     0.16881   0.83268   0.33668   0.00000  Uiso   1.00
C605   C     0.18972   0.79434   0.40920   0.00000  Uiso   1.00
C606   C     0.14361   0.87232   0.09080   0.00000  Uiso   1.00
C607   C     0.17210   0.83161   0.38467   0.00000  Uiso   1.00
C608   C     0.16123   0.83505   0.11533   0.00000  Uiso   1.00
C609   C     0.15539   0.86898   0.40580   0.00000  Uiso   1.00
C610   C     0.17794   0.79769   0.09420   0.00000  Uiso   1.00
C611   C     0.15221   0.86914   0.45119   0.00000  Uiso   1.00
C612   C     0.18111   0.79752   0.04881   0.00000  Uiso   1.00
C613   C     0.16899   0.83290   0.47686   0.00000  Uiso   1.00
C614   C     0.16433   0.83377   0.02314   0.00000  Uiso   1.00
C615   C     0.19033   0.79602   0.45630   0.00000  Uiso   1.00
C616   C     0.14299   0.87064   0.04369   0.00000  Uiso   1.00
C617   C     0.13003   0.90436   0.47048   0.00000  Uiso   1.00
C618   C     0.20330   0.76230   0.02952   0.00000  Uiso   1.00
H619   H     0.14178   0.89708   0.38653   0.00000  Uiso   1.00
H620   H     0.19155   0.76959   0.11347   0.00000  Uiso   1.00
H621   H     0.11554   0.93064   0.44947   0.00000  Uiso   1.00
H622   H     0.21778   0.73602   0.05053   0.00000  Uiso   1.00
H623   H     0.11181   0.70827   0.28948   0.00000  Uiso   1.00
H624   H     0.22152   0.95839   0.21052   0.00000  Uiso   1.00
H625   H     0.22153   0.70971   0.21053   0.00000  Uiso   1.00
H626   H     0.11180   0.95696   0.28947   0.00000  Uiso   1.00
N627   N     0.16667   0.95240   0.25000   0.00000  Uiso   1.00
N628   N     0.16667   0.71427   0.25000   0.00000  Uiso   1.00
O629   O     0.10559   0.87154   0.24999   0.00000  Uiso   1.00
O630   O     0.22774   0.79513   0.25000   0.00000  Uiso   1.00
O631   O     0.22774   0.87154   0.25000   0.00000  Uiso   1.00
O632   O     0.10559   0.79513   0.24999   0.00000  Uiso   1.00
O633   O     0.16666   0.87156   0.18392   0.00000  Uiso   1.00
O634   O     0.16667   0.79511   0.31607   0.00000  Uiso   1.00
O635   O     0.16667   0.87156   0.31607   0.00000  Uiso   1.00
O636   O     0.16666   0.79511   0.18392   0.00000  Uiso   1.00
Zn637  Zn    0.16667   0.88437   0.25000   0.00000  Uiso   1.00
Zn638  Zn    0.16667   0.78229   0.25000   0.00000  Uiso   1.00
C639   C     0.20300   0.75261   0.38584   0.00000  Uiso   1.00
C640   C     0.17854   0.71297   0.38929   0.00000  Uiso   1.00
C641   C     0.19098   0.67355   0.36768   0.00000  Uiso   1.00
C642   C     0.22738   0.67368   0.34182   0.00000  Uiso   1.00
C643   C     0.25138   0.71325   0.33743   0.00000  Uiso   1.00
C644   C     0.23929   0.75263   0.35932   0.00000  Uiso   1.00
H645   H     0.15022   0.71251   0.40917   0.00000  Uiso   1.00
H646   H     0.17231   0.97629   0.37082   0.00000  Uiso   1.00
H647   H     0.23680   0.97655   0.32491   0.00000  Uiso   1.00
H648   H     0.27941   0.71339   0.31716   0.00000  Uiso   1.00
H649   H     0.25829   0.78293   0.35600   0.00000  Uiso   1.00
C650   C     0.13033   0.91405   0.11416   0.00000  Uiso   1.00
C651   C     0.09405   0.91403   0.14069   0.00000  Uiso   1.00
C652   C     0.08196   0.95342   0.16258   0.00000  Uiso   1.00
C653   C     0.10595   0.99299   0.15817   0.00000  Uiso   1.00
C654   C     0.14235   0.99312   0.13232   0.00000  Uiso   1.00
C655   C     0.15479   0.95369   0.11070   0.00000  Uiso   1.00
H656   H     0.07504   0.88374   0.14401   0.00000  Uiso   1.00
H657   H     0.05393   0.95328   0.18285   0.00000  Uiso   1.00
H658   H     0.09653   0.69012   0.17509   0.00000  Uiso   1.00
H659   H     0.16102   0.69037   0.12916   0.00000  Uiso   1.00
H660   H     0.18310   0.95415   0.09081   0.00000  Uiso   1.00
C661   C     0.09145   0.93782   0.03098   0.00000  Uiso   1.00
C662   C     0.09858   0.98487   0.02601   0.00000  Uiso   1.00
C663   C     0.06746   0.68268   0.03781   0.00000  Uiso   1.00
C664   C     0.02878   0.66713   0.05378   0.00000  Uiso   1.00
C665   C     0.02110   0.95374   0.05784   0.00000  Uiso   1.00
C666   C     0.05220   0.92246   0.04623   0.00000  Uiso   1.00
H667   H     0.12829   0.99733   0.01331   0.00000  Uiso   1.00
H668   H     0.07327   0.71887   0.03438   0.00000  Uiso   1.00
H669   H     0.00465   0.69127   0.06272   0.00000  Uiso   1.00
H670   H     0.32433   0.94175   0.06983   0.00000  Uiso   1.00
H671   H     0.04578   0.88633   0.04912   0.00000  Uiso   1.00
C672   C     0.24187   0.72883   0.46902   0.00000  Uiso   1.00
C673   C     0.28113   0.74419   0.45378   0.00000  Uiso   1.00
C674   C     0.31222   0.71290   0.44217   0.00000  Uiso   1.00
C675   C     0.30453   0.99951   0.44622   0.00000  Uiso   1.00
C676   C     0.26584   0.98397   0.46218   0.00000  Uiso   1.00
C677   C     0.23473   0.68178   0.47399   0.00000  Uiso   1.00
H678   H     0.28755   0.78031   0.45089   0.00000  Uiso   1.00
H679   H     0.00899   0.72488   0.43018   0.00000  Uiso   1.00
H680   H     0.32866   0.97536   0.43728   0.00000  Uiso   1.00
H681   H     0.26002   0.94778   0.46561   0.00000  Uiso   1.00
H682   H     0.20501   0.66934   0.48668   0.00000  Uiso   1.00
Br683  Br    0.05180   0.78742   0.16519   0.00000  Uiso   1.00
Br684  Br    0.28153   0.87925   0.33481   0.00000  Uiso   1.00
Br685  Br    0.28101   0.78935   0.16454   0.00000  Uiso   1.00
Br686  Br    0.05232   0.87732   0.33546   0.00000  Uiso   1.00
C687   C     0.42005   0.83339   0.24984   0.00000  Uiso   1.00
C688   C     0.57995   0.83328   0.25016   0.00000  Uiso   1.00
C689   C     0.45668   0.90468   0.01599   0.00000  Uiso   1.00
C690   C     0.54331   0.76198   0.48401   0.00000  Uiso   1.00
C691   C     0.35493   0.81354   0.21428   0.00000  Uiso   1.00
C692   C     0.64507   0.85312   0.28572   0.00000  Uiso   1.00
C693   C     0.64489   0.81368   0.21431   0.00000  Uiso   1.00
C694   C     0.35511   0.85299   0.28569   0.00000  Uiso   1.00
C695   C     0.62402   0.83326   0.25013   0.00000  Uiso   1.00
C696   C     0.37598   0.83341   0.24987   0.00000  Uiso   1.00
C697   C     0.46943   0.69030   0.27186   0.00000  Uiso   1.00
C698   C     0.53057   0.97637   0.22813   0.00000  Uiso   1.00
C699   C     0.53056   0.69110   0.22811   0.00000  Uiso   1.00
C700   C     0.46944   0.97557   0.27189   0.00000  Uiso   1.00
C701   C     0.49786   0.83399   0.16332   0.00000  Uiso   1.00
C702   C     0.50214   0.83268   0.33668   0.00000  Uiso   1.00
C703   C     0.52305   0.79434   0.40920   0.00000  Uiso   1.00
C704   C     0.47694   0.87232   0.09080   0.00000  Uiso   1.00
C705   C     0.50544   0.83161   0.38467   0.00000  Uiso   1.00
C706   C     0.49456   0.83505   0.11533   0.00000  Uiso   1.00
C707   C     0.48872   0.86898   0.40580   0.00000  Uiso   1.00
C708   C     0.51128   0.79769   0.09420   0.00000  Uiso   1.00
C709   C     0.48555   0.86914   0.45119   0.00000  Uiso   1.00
C710   C     0.51445   0.79752   0.04881   0.00000  Uiso   1.00
C711   C     0.50233   0.83290   0.47686   0.00000  Uiso   1.00
C712   C     0.49766   0.83377   0.02314   0.00000  Uiso   1.00
C713   C     0.52367   0.79602   0.45630   0.00000  Uiso   1.00
C714   C     0.47633   0.87064   0.04369   0.00000  Uiso   1.00
C715   C     0.46336   0.90436   0.47048   0.00000  Uiso   1.00
C716   C     0.53663   0.76230   0.02952   0.00000  Uiso   1.00
H717   H     0.47511   0.89708   0.38653   0.00000  Uiso   1.00
H718   H     0.52489   0.76959   0.11347   0.00000  Uiso   1.00
H719   H     0.44888   0.93064   0.44947   0.00000  Uiso   1.00
H720   H     0.55111   0.73602   0.05053   0.00000  Uiso   1.00
H721   H     0.44514   0.70827   0.28948   0.00000  Uiso   1.00
H722   H     0.55486   0.95839   0.21052   0.00000  Uiso   1.00
H723   H     0.55486   0.70971   0.21053   0.00000  Uiso   1.00
H724   H     0.44514   0.95696   0.28947   0.00000  Uiso   1.00
N725   N     0.50000   0.95240   0.25000   0.00000  Uiso   1.00
N726   N     0.50000   0.71427   0.25000   0.00000  Uiso   1.00
O727   O     0.43892   0.87154   0.24999   0.00000  Uiso   1.00
O728   O     0.56108   0.79513   0.25000   0.00000  Uiso   1.00
O729   O     0.56108   0.87154   0.25000   0.00000  Uiso   1.00
O730   O     0.43892   0.79513   0.24999   0.00000  Uiso   1.00
O731   O     0.49999   0.87156   0.18392   0.00000  Uiso   1.00
O732   O     0.50001   0.79511   0.31607   0.00000  Uiso   1.00
O733   O     0.50001   0.87156   0.31607   0.00000  Uiso   1.00
O734   O     0.49999   0.79511   0.18392   0.00000  Uiso   1.00
Zn735  Zn    0.50000   0.88437   0.25000   0.00000  Uiso   1.00
Zn736  Zn    0.50000   0.78229   0.25000   0.00000  Uiso   1.00
C737   C     0.53634   0.75261   0.38584   0.00000  Uiso   1.00
C738   C     0.51187   0.71297   0.38929   0.00000  Uiso   1.00
C739   C     0.52431   0.67355   0.36768   0.00000  Uiso   1.00
C740   C     0.56072   0.67368   0.34182   0.00000  Uiso   1.00
C741   C     0.58471   0.71325   0.33743   0.00000  Uiso   1.00
C742   C     0.57262   0.75263   0.35932   0.00000  Uiso   1.00
H743   H     0.48356   0.71251   0.40917   0.00000  Uiso   1.00
H744   H     0.50564   0.97629   0.37082   0.00000  Uiso   1.00
H745   H     0.57014   0.97655   0.32491   0.00000  Uiso   1.00
H746   H     0.61275   0.71339   0.31716   0.00000  Uiso   1.00
H747   H     0.59163   0.78293   0.35600   0.00000  Uiso   1.00
C748   C     0.46366   0.91405   0.11416   0.00000  Uiso   1.00
C749   C     0.42738   0.91403   0.14069   0.00000  Uiso   1.00
C750   C     0.41529   0.95342   0.16258   0.00000  Uiso   1.00
C751   C     0.43929   0.99299   0.15817   0.00000  Uiso   1.00
C752   C     0.47569   0.99312   0.13232   0.00000  Uiso   1.00
C753   C     0.48813   0.95369   0.11070   0.00000  Uiso   1.00
H754   H     0.40838   0.88374   0.14401   0.00000  Uiso   1.00
H755   H     0.38726   0.95328   0.18285   0.00000  Uiso   1.00
H756   H     0.42987   0.69012   0.17509   0.00000  Uiso   1.00
H757   H     0.49435   0.69037   0.12916   0.00000  Uiso   1.00
H758   H     0.51643   0.95415   0.09081   0.00000  Uiso   1.00
C759   C     0.42478   0.93782   0.03098   0.00000  Uiso   1.00
C760   C     0.43191   0.98487   0.02601   0.00000  Uiso   1.00
C761   C     0.40079   0.68268   0.03781   0.00000  Uiso   1.00
C762   C     0.36211   0.66713   0.05378   0.00000  Uiso   1.00
C763   C     0.35443   0.95374   0.05784   0.00000  Uiso   1.00
C764   C     0.38553   0.92246   0.04623   0.00000  Uiso   1.00
H765   H     0.46162   0.99733   0.01331   0.00000  Uiso   1.00
H766   H     0.40661   0.71887   0.03438   0.00000  Uiso   1.00
H767   H     0.33798   0.69127   0.06272   0.00000  Uiso   1.00
H768   H     0.65766   0.94175   0.06983   0.00000  Uiso   1.00
H769   H     0.37911   0.88633   0.04912   0.00000  Uiso   1.00
C770   C     0.57520   0.72883   0.46902   0.00000  Uiso   1.00
C771   C     0.61446   0.74419   0.45378   0.00000  Uiso   1.00
C772   C     0.64555   0.71290   0.44217   0.00000  Uiso   1.00
C773   C     0.63787   0.99951   0.44622   0.00000  Uiso   1.00
C774   C     0.59918   0.98397   0.46218   0.00000  Uiso   1.00
C775   C     0.56806   0.68178   0.47399   0.00000  Uiso   1.00
H776   H     0.62089   0.78031   0.45089   0.00000  Uiso   1.00
H777   H     0.34233   0.72488   0.43018   0.00000  Uiso   1.00
H778   H     0.66199   0.97536   0.43728   0.00000  Uiso   1.00
H779   H     0.59335   0.94778   0.46561   0.00000  Uiso   1.00
H780   H     0.53835   0.66934   0.48668   0.00000  Uiso   1.00
Br781  Br    0.38514   0.78742   0.16519   0.00000  Uiso   1.00
Br782  Br    0.61486   0.87925   0.33481   0.00000  Uiso   1.00
Br783  Br    0.61434   0.78935   0.16454   0.00000  Uiso   1.00
Br784  Br    0.38565   0.87732   0.33546   0.00000  Uiso   1.00
C785   C     0.75338   0.83339   0.24984   0.00000  Uiso   1.00
C786   C     0.91328   0.83328   0.25016   0.00000  Uiso   1.00
C787   C     0.79002   0.90468   0.01599   0.00000  Uiso   1.00
C788   C     0.87664   0.76198   0.48401   0.00000  Uiso   1.00
C789   C     0.68826   0.81354   0.21428   0.00000  Uiso   1.00
C790   C     0.97841   0.85312   0.28572   0.00000  Uiso   1.00
C791   C     0.97823   0.81368   0.21431   0.00000  Uiso   1.00
C792   C     0.68844   0.85299   0.28569   0.00000  Uiso   1.00
C793   C     0.95735   0.83326   0.25013   0.00000  Uiso   1.00
C794   C     0.70931   0.83341   0.24987   0.00000  Uiso   1.00
C795   C     0.80276   0.69030   0.27186   0.00000  Uiso   1.00
C796   C     0.86391   0.97637   0.22813   0.00000  Uiso   1.00
C797   C     0.86389   0.69110   0.22811   0.00000  Uiso   1.00
C798   C     0.80277   0.97557   0.27189   0.00000  Uiso   1.00
C799   C     0.83119   0.83399   0.16332   0.00000  Uiso   1.00
C800   C     0.83548   0.83268   0.33668   0.00000  Uiso   1.00
C801   C     0.85639   0.79434   0.40920   0.00000  Uiso   1.00
C802   C     0.81028   0.87232   0.09080   0.00000  Uiso   1.00
C803   C     0.83877   0.83161   0.38467   0.00000  Uiso   1.00
C804   C     0.82790   0.83505   0.11533   0.00000  Uiso   1.00
C805   C     0.82205   0.86898   0.40580   0.00000  Uiso   1.00
C806   C     0.84461   0.79769   0.09420   0.00000  Uiso   1.00
C807   C     0.81888   0.86914   0.45119   0.00000  Uiso   1.00
C808   C     0.84778   0.79752   0.04881   0.00000  Uiso   1.00
C809   C     0.83566   0.83290   0.47686   0.00000  Uiso   1.00
C810   C     0.83100   0.83377   0.02314   0.00000  Uiso   1.00
C811   C     0.85700   0.79602   0.45630   0.00000  Uiso   1.00
C812   C     0.80966   0.87064   0.04369   0.00000  Uiso   1.00
C813   C     0.79669   0.90436   0.47048   0.00000  Uiso   1.00
C814   C     0.86996   0.76230   0.02952   0.00000  Uiso   1.00
H815   H     0.80844   0.89708   0.38653   0.00000  Uiso   1.00
H816   H     0.85822   0.76959   0.11347   0.00000  Uiso   1.00
H817   H     0.78221   0.93064   0.44947   0.00000  Uiso   1.00
H818   H     0.88445   0.73602   0.05053   0.00000  Uiso   1.00
H819   H     0.77847   0.70827   0.28948   0.00000  Uiso   1.00
H820   H     0.88819   0.95839   0.21052   0.00000  Uiso   1.00
H821   H     0.88819   0.70971   0.21053   0.00000  Uiso   1.00
H822   H     0.77847   0.95696   0.28947   0.00000  Uiso   1.00
N823   N     0.83333   0.95240   0.25000   0.00000  Uiso   1.00
N824   N     0.83333   0.71427   0.25000   0.00000  Uiso   1.00
O825   O     0.77226   0.87154   0.24999   0.00000  Uiso   1.00
O826   O     0.89441   0.79513   0.25000   0.00000  Uiso   1.00
O827   O     0.89441   0.87154   0.25000   0.00000  Uiso   1.00
O828   O     0.77226   0.79513   0.24999   0.00000  Uiso   1.00
O829   O     0.83333   0.87156   0.18392   0.00000  Uiso   1.00
O830   O     0.83334   0.79511   0.31607   0.00000  Uiso   1.00
O831   O     0.83334   0.87156   0.31607   0.00000  Uiso   1.00
O832   O     0.83333   0.79511   0.18392   0.00000  Uiso   1.00
Zn833  Zn    0.83333   0.88437   0.25000   0.00000  Uiso   1.00
Zn834  Zn    0.83333   0.78229   0.25000   0.00000  Uiso   1.00
C835   C     0.86967   0.75261   0.38584   0.00000  Uiso   1.00
C836   C     0.84520   0.71297   0.38929   0.00000  Uiso   1.00
C837   C     0.85765   0.67355   0.36768   0.00000  Uiso   1.00
C838   C     0.89405   0.67368   0.34182   0.00000  Uiso   1.00
C839   C     0.91805   0.71325   0.33743   0.00000  Uiso   1.00
C840   C     0.90596   0.75263   0.35932   0.00000  Uiso   1.00
H841   H     0.81689   0.71251   0.40917   0.00000  Uiso   1.00
H842   H     0.83898   0.97629   0.37082   0.00000  Uiso   1.00
H843   H     0.90347   0.97655   0.32491   0.00000  Uiso   1.00
H844   H     0.94608   0.71339   0.31716   0.00000  Uiso   1.00
H845   H     0.92496   0.78293   0.35600   0.00000  Uiso   1.00
C846   C     0.79700   0.91405   0.11416   0.00000  Uiso   1.00
C847   C     0.76071   0.91403   0.14069   0.00000  Uiso   1.00
C848   C     0.74862   0.95342   0.16258   0.00000  Uiso   1.00
C849   C     0.77262   0.99299   0.15817   0.00000  Uiso   1.00
C850   C     0.80902   0.99312   0.13232   0.00000  Uiso   1.00
C851   C     0.82146   0.95369   0.11070   0.00000  Uiso   1.00
H852   H     0.74171   0.88374   0.14401   0.00000  Uiso   1.00
H853   H     0.72060   0.95328   0.18285   0.00000  Uiso   1.00
H854   H     0.76320   0.69012   0.17509   0.00000  Uiso   1.00
H855   H     0.82769   0.69037   0.12916   0.00000  Uiso   1.00
H856   H     0.84977   0.95415   0.09081   0.00000  Uiso   1.00
C857   C     0.75812   0.93782   0.03098   0.00000  Uiso   1.00
C858   C     0.76524   0.98487   0.02601   0.00000  Uiso   1.00
C859   C     0.73413   0.68268   0.03781   0.00000  Uiso   1.00
C860   C     0.69544   0.66713   0.05378   0.00000  Uiso   1.00
C861   C     0.68777   0.95374   0.05784   0.00000  Uiso   1.00
C862   C     0.71886   0.92246   0.04623   0.00000  Uiso   1.00
H863   H     0.79496   0.99733   0.01331   0.00000  Uiso   1.00
H864   H     0.73994   0.71887   0.03438   0.00000  Uiso   1.00
H865   H     0.67131   0.69127   0.06272   0.00000  Uiso   1.00
H866   H     0.99100   0.94175   0.06983   0.00000  Uiso   1.00
H867   H     0.71245   0.88633   0.04912   0.00000  Uiso   1.00
C868   C     0.90854   0.72883   0.46902   0.00000  Uiso   1.00
C869   C     0.94779   0.74419   0.45378   0.00000  Uiso   1.00
C870   C     0.97889   0.71290   0.44217   0.00000  Uiso   1.00
C871   C     0.97120   0.99951   0.44622   0.00000  Uiso   1.00
C872   C     0.93251   0.98397   0.46218   0.00000  Uiso   1.00
C873   C     0.90140   0.68178   0.47399   0.00000  Uiso   1.00
H874   H     0.95422   0.78031   0.45089   0.00000  Uiso   1.00
H875   H     0.67566   0.72488   0.43018   0.00000  Uiso   1.00
H876   H     0.99533   0.97536   0.43728   0.00000  Uiso   1.00
H877   H     0.92669   0.94778   0.46561   0.00000  Uiso   1.00
H878   H     0.87168   0.66934   0.48668   0.00000  Uiso   1.00
Br879  Br    0.71847   0.78742   0.16519   0.00000  Uiso   1.00
Br880  Br    0.94820   0.87925   0.33481   0.00000  Uiso   1.00
Br881  Br    0.94768   0.78935   0.16454   0.00000  Uiso   1.00
Br882  Br    0.71899   0.87732   0.33546   0.00000  Uiso   1.00
C883   C     0.08672   0.16672   0.74984   0.00000  Uiso   1.00
C884   C     0.24661   0.16661   0.75016   0.00000  Uiso   1.00
C885   C     0.12335   0.23802   0.51599   0.00000  Uiso   1.00
C886   C     0.20997   0.09531   0.98401   0.00000  Uiso   1.00
C887   C     0.02159   0.14687   0.71428   0.00000  Uiso   1.00
C888   C     0.31174   0.18646   0.78572   0.00000  Uiso   1.00
C889   C     0.31156   0.14701   0.71431   0.00000  Uiso   1.00
C890   C     0.02177   0.18632   0.78569   0.00000  Uiso   1.00
C891   C     0.29068   0.16659   0.75013   0.00000  Uiso   1.00
C892   C     0.04265   0.16674   0.74987   0.00000  Uiso   1.00
C893   C     0.13609   0.02363   0.77186   0.00000  Uiso   1.00
C894   C     0.19724   0.30970   0.72813   0.00000  Uiso   1.00
C895   C     0.19722   0.02443   0.72811   0.00000  Uiso   1.00
C896   C     0.13611   0.30890   0.77189   0.00000  Uiso   1.00
C897   C     0.16452   0.16732   0.66332   0.00000  Uiso   1.00
C898   C     0.16881   0.16601   0.83668   0.00000  Uiso   1.00
C899   C     0.18972   0.12768   0.90920   0.00000  Uiso   1.00
C900   C     0.14361   0.20566   0.59080   0.00000  Uiso   1.00
C901   C     0.17210   0.16494   0.88467   0.00000  Uiso   1.00
C902   C     0.16123   0.16839   0.61533   0.00000  Uiso   1.00
C903   C     0.15539   0.20231   0.90580   0.00000  Uiso   1.00
C904   C     0.17794   0.13102   0.59420   0.00000  Uiso   1.00
C905   C     0.15221   0.20247   0.95119   0.00000  Uiso   1.00
C906   C     0.18111   0.13086   0.54881   0.00000  Uiso   1.00
C907   C     0.16899   0.16623   0.97686   0.00000  Uiso   1.00
C908   C     0.16433   0.16710   0.52314   0.00000  Uiso   1.00
C909   C     0.19033   0.12935   0.95630   0.00000  Uiso   1.00
C910   C     0.14299   0.20398   0.54369   0.00000  Uiso   1.00
C911   C     0.13003   0.23769   0.97048   0.00000  Uiso   1.00
C912   C     0.20330   0.09563   0.52952   0.00000  Uiso   1.00
H913   H     0.14178   0.23041   0.88653   0.00000  Uiso   1.00
H914   H     0.19155   0.10292   0.61347   0.00000  Uiso   1.00
H915   H     0.11554   0.26397   0.94947   0.00000  Uiso   1.00
H916   H     0.21778   0.06935   0.55053   0.00000  Uiso   1.00
H917   H     0.11181   0.04161   0.78948   0.00000  Uiso   1.00
H918   H     0.22152   0.29173   0.71052   0.00000  Uiso   1.00
H919   H     0.22153   0.04304   0.71053   0.00000  Uiso   1.00
H920   H     0.11180   0.29029   0.78947   0.00000  Uiso   1.00
N921   N     0.16667   0.28573   0.75000   0.00000  Uiso   1.00
N922   N     0.16667   0.04760   0.75000   0.00000  Uiso   1.00
O923   O     0.10559   0.20487   0.74999   0.00000  Uiso   1.00
O924   O     0.22774   0.12846   0.75000   0.00000  Uiso   1.00
O925   O     0.22774   0.20487   0.75000   0.00000  Uiso   1.00
O926   O     0.10559   0.12846   0.74999   0.00000  Uiso   1.00
O927   O     0.16666   0.20489   0.68392   0.00000  Uiso   1.00
O928   O     0.16667   0.12844   0.81607   0.00000  Uiso   1.00
O929   O     0.16667   0.20489   0.81607   0.00000  Uiso   1.00
O930   O     0.16666   0.12844   0.68392   0.00000  Uiso   1.00
Zn931  Zn    0.16667   0.21771   0.75000   0.00000  Uiso   1.00
Zn932  Zn    0.16667   0.11563   0.75000   0.00000  Uiso   1.00
C933   C     0.20300   0.08595   0.88584   0.00000  Uiso   1.00
C934   C     0.17854   0.04631   0.88929   0.00000  Uiso   1.00
C935   C     0.19098   0.00689   0.86768   0.00000  Uiso   1.00
C936   C     0.22738   0.00701   0.84182   0.00000  Uiso   1.00
C937   C     0.25138   0.04659   0.83743   0.00000  Uiso   1.00
C938   C     0.23929   0.08597   0.85932   0.00000  Uiso   1.00
H939   H     0.15022   0.04585   0.90917   0.00000  Uiso   1.00
H940   H     0.17231   0.30963   0.87082   0.00000  Uiso   1.00
H941   H     0.23680   0.30988   0.82491   0.00000  Uiso   1.00
H942   H     0.27941   0.04673   0.81716   0.00000  Uiso   1.00
H943   H     0.25829   0.11626   0.85600   0.00000  Uiso   1.00
C944   C     0.13033   0.24739   0.61416   0.00000  Uiso   1.00
C945   C     0.09405   0.24737   0.64069   0.00000  Uiso   1.00
C946   C     0.08196   0.28675   0.66258   0.00000  Uiso   1.00
C947   C     0.10595   0.32632   0.65817   0.00000  Uiso   1.00
C948   C     0.14235   0.32645   0.63232   0.00000  Uiso   1.00
C949   C     0.15479   0.28703   0.61070   0.00000  Uiso   1.00
H950   H     0.07504   0.21707   0.64401   0.00000  Uiso   1.00
H951   H     0.05393   0.28661   0.68285   0.00000  Uiso   1.00
H952   H     0.09653   0.02346   0.67509   0.00000  Uiso   1.00
H953   H     0.16102   0.02371   0.62916   0.00000  Uiso   1.00
H954   H     0.18310   0.28749   0.59081   0.00000  Uiso   1.00
C955   C     0.09145   0.27115   0.53098   0.00000  Uiso   1.00
C956   C     0.09858   0.31820   0.52601   0.00000  Uiso   1.00
C957   C     0.06746   0.01601   0.53781   0.00000  Uiso   1.00
C958   C     0.02878   0.00046   0.55378   0.00000  Uiso   1.00
C959   C     0.02110   0.28707   0.55784   0.00000  Uiso   1.00
C960   C     0.05220   0.25579   0.54623   0.00000  Uiso   1.00
H961   H     0.12829   0.33066   0.51331   0.00000  Uiso   1.00
H962   H     0.07327   0.05220   0.53438   0.00000  Uiso   1.00
H963   H     0.00465   0.02461   0.56272   0.00000  Uiso   1.00
H964   H     0.32433   0.27508   0.56983   0.00000  Uiso   1.00
H965   H     0.04578   0.21967   0.54912   0.00000  Uiso   1.00
C966   C     0.24187   0.06217   0.96902   0.00000  Uiso   1.00
C967   C     0.28113   0.07752   0.95378   0.00000  Uiso   1.00
C968   C     0.31222   0.04624   0.94217   0.00000  Uiso   1.00
C969   C     0.30453   0.33285   0.94622   0.00000  Uiso   1.00
C970   C     0.26584   0.31730   0.96218   0.00000  Uiso   1.00
C971   C     0.23473   0.01512   0.97399   0.00000  Uiso   1.00
H972   H     0.28755   0.11364   0.95089   0.00000  Uiso   1.00
H973   H     0.00899   0.05822   0.93018   0.00000  Uiso   1.00
H974   H     0.32866   0.30869   0.93728   0.00000  Uiso   1.00
H975   H     0.26002   0.28112   0.96561   0.00000  Uiso   1.00
H976   H     0.20501   0.00267   0.98668   0.00000  Uiso   1.00
Br977  Br    0.05180   0.12075   0.66519   0.00000  Uiso   1.00
Br978  Br    0.28153   0.21258   0.83481   0.00000  Uiso   1.00
Br979  Br    0.28101   0.12268   0.66454   0.00000  Uiso   1.00
Br980  Br    0.05232   0.21065   0.83546   0.00000  Uiso   1.00
C981   C     0.42005   0.16672   0.74984   0.00000  Uiso   1.00
C982   C     0.57995   0.16661   0.75016   0.00000  Uiso   1.00
C983   C     0.45668   0.23802   0.51599   0.00000  Uiso   1.00
C984   C     0.54331   0.09531   0.98401   0.00000  Uiso   1.00
C985   C     0.35493   0.14687   0.71428   0.00000  Uiso   1.00
C986   C     0.64507   0.18646   0.78572   0.00000  Uiso   1.00
C987   C     0.64489   0.14701   0.71431   0.00000  Uiso   1.00
C988   C     0.35511   0.18632   0.78569   0.00000  Uiso   1.00
C989   C     0.62402   0.16659   0.75013   0.00000  Uiso   1.00
C990   C     0.37598   0.16674   0.74987   0.00000  Uiso   1.00
C991   C     0.46943   0.02363   0.77186   0.00000  Uiso   1.00
C992   C     0.53057   0.30970   0.72813   0.00000  Uiso   1.00
C993   C     0.53056   0.02443   0.72811   0.00000  Uiso   1.00
C994   C     0.46944   0.30890   0.77189   0.00000  Uiso   1.00
C995   C     0.49786   0.16732   0.66332   0.00000  Uiso   1.00
C996   C     0.50214   0.16601   0.83668   0.00000  Uiso   1.00
C997   C     0.52305   0.12768   0.90920   0.00000  Uiso   1.00
C998   C     0.47694   0.20566   0.59080   0.00000  Uiso   1.00
C999   C     0.50544   0.16494   0.88467   0.00000  Uiso   1.00
C1000  C     0.49456   0.16839   0.61533   0.00000  Uiso   1.00
C1001  C     0.48872   0.20231   0.90580   0.00000  Uiso   1.00
C1002  C     0.51128   0.13102   0.59420   0.00000  Uiso   1.00
C1003  C     0.48555   0.20247   0.95119   0.00000  Uiso   1.00
C1004  C     0.51445   0.13086   0.54881   0.00000  Uiso   1.00
C1005  C     0.50233   0.16623   0.97686   0.00000  Uiso   1.00
C1006  C     0.49766   0.16710   0.52314   0.00000  Uiso   1.00
C1007  C     0.52367   0.12935   0.95630   0.00000  Uiso   1.00
C1008  C     0.47633   0.20398   0.54369   0.00000  Uiso   1.00
C1009  C     0.46336   0.23769   0.97048   0.00000  Uiso   1.00
C1010  C     0.53663   0.09563   0.52952   0.00000  Uiso   1.00
H1011  H     0.47511   0.23041   0.88653   0.00000  Uiso   1.00
H1012  H     0.52489   0.10292   0.61347   0.00000  Uiso   1.00
H1013  H     0.44888   0.26397   0.94947   0.00000  Uiso   1.00
H1014  H     0.55111   0.06935   0.55053   0.00000  Uiso   1.00
H1015  H     0.44514   0.04161   0.78948   0.00000  Uiso   1.00
H1016  H     0.55486   0.29173   0.71052   0.00000  Uiso   1.00
H1017  H     0.55486   0.04304   0.71053   0.00000  Uiso   1.00
H1018  H     0.44514   0.29029   0.78947   0.00000  Uiso   1.00
N1019  N     0.50000   0.28573   0.75000   0.00000  Uiso   1.00
N1020  N     0.50000   0.04760   0.75000   0.00000  Uiso   1.00
O1021  O     0.43892   0.20487   0.74999   0.00000  Uiso   1.00
O1022  O     0.56108   0.12846   0.75000   0.00000  Uiso   1.00
O1023  O     0.56108   0.20487   0.75000   0.00000  Uiso   1.00
O1024  O     0.43892   0.12846   0.74999   0.00000  Uiso   1.00
O1025  O     0.49999   0.20489   0.68392   0.00000  Uiso   1.00
O1026  O     0.50001   0.12844   0.81607   0.00000  Uiso   1.00
O1027  O     0.50001   0.20489   0.81607   0.00000  Uiso   1.00
O1028  O     0.49999   0.12844   0.68392   0.00000  Uiso   1.00
Zn1029 Zn    0.50000   0.21771   0.75000   0.00000  Uiso   1.00
Zn1030 Zn    0.50000   0.11563   0.75000   0.00000  Uiso   1.00
C1031  C     0.53634   0.08595   0.88584   0.00000  Uiso   1.00
C1032  C     0.51187   0.04631   0.88929   0.00000  Uiso   1.00
C1033  C     0.52431   0.00689   0.86768   0.00000  Uiso   1.00
C1034  C     0.56072   0.00701   0.84182   0.00000  Uiso   1.00
C1035  C     0.58471   0.04659   0.83743   0.00000  Uiso   1.00
C1036  C     0.57262   0.08597   0.85932   0.00000  Uiso   1.00
H1037  H     0.48356   0.04585   0.90917   0.00000  Uiso   1.00
H1038  H     0.50564   0.30963   0.87082   0.00000  Uiso   1.00
H1039  H     0.57014   0.30988   0.82491   0.00000  Uiso   1.00
H1040  H     0.61275   0.04673   0.81716   0.00000  Uiso   1.00
H1041  H     0.59163   0.11626   0.85600   0.00000  Uiso   1.00
C1042  C     0.46366   0.24739   0.61416   0.00000  Uiso   1.00
C1043  C     0.42738   0.24737   0.64069   0.00000  Uiso   1.00
C1044  C     0.41529   0.28675   0.66258   0.00000  Uiso   1.00
C1045  C     0.43929   0.32632   0.65817   0.00000  Uiso   1.00
C1046  C     0.47569   0.32645   0.63232   0.00000  Uiso   1.00
C1047  C     0.48813   0.28703   0.61070   0.00000  Uiso   1.00
H1048  H     0.40838   0.21707   0.64401   0.00000  Uiso   1.00
H1049  H     0.38726   0.28661   0.68285   0.00000  Uiso   1.00
H1050  H     0.42987   0.02346   0.67509   0.00000  Uiso   1.00
H1051  H     0.49435   0.02371   0.62916   0.00000  Uiso   1.00
H1052  H     0.51643   0.28749   0.59081   0.00000  Uiso   1.00
C1053  C     0.42478   0.27115   0.53098   0.00000  Uiso   1.00
C1054  C     0.43191   0.31820   0.52601   0.00000  Uiso   1.00
C1055  C     0.40079   0.01601   0.53781   0.00000  Uiso   1.00
C1056  C     0.36211   0.00046   0.55378   0.00000  Uiso   1.00
C1057  C     0.35443   0.28707   0.55784   0.00000  Uiso   1.00
C1058  C     0.38553   0.25579   0.54623   0.00000  Uiso   1.00
H1059  H     0.46162   0.33066   0.51331   0.00000  Uiso   1.00
H1060  H     0.40661   0.05220   0.53438   0.00000  Uiso   1.00
H1061  H     0.33798   0.02461   0.56272   0.00000  Uiso   1.00
H1062  H     0.65766   0.27508   0.56983   0.00000  Uiso   1.00
H1063  H     0.37911   0.21967   0.54912   0.00000  Uiso   1.00
C1064  C     0.57520   0.06217   0.96902   0.00000  Uiso   1.00
C1065  C     0.61446   0.07752   0.95378   0.00000  Uiso   1.00
C1066  C     0.64555   0.04624   0.94217   0.00000  Uiso   1.00
C1067  C     0.63787   0.33285   0.94622   0.00000  Uiso   1.00
C1068  C     0.59918   0.31730   0.96218   0.00000  Uiso   1.00
C1069  C     0.56806   0.01512   0.97399   0.00000  Uiso   1.00
H1070  H     0.62089   0.11364   0.95089   0.00000  Uiso   1.00
H1071  H     0.34233   0.05822   0.93018   0.00000  Uiso   1.00
H1072  H     0.66199   0.30869   0.93728   0.00000  Uiso   1.00
H1073  H     0.59335   0.28112   0.96561   0.00000  Uiso   1.00
H1074  H     0.53835   0.00267   0.98668   0.00000  Uiso   1.00
Br1075 Br    0.38514   0.12075   0.66519   0.00000  Uiso   1.00
Br1076 Br    0.61486   0.21258   0.83481   0.00000  Uiso   1.00
Br1077 Br    0.61434   0.12268   0.66454   0.00000  Uiso   1.00
Br1078 Br    0.38565   0.21065   0.83546   0.00000  Uiso   1.00
C1079  C     0.75338   0.16672   0.74984   0.00000  Uiso   1.00
C1080  C     0.91328   0.16661   0.75016   0.00000  Uiso   1.00
C1081  C     0.79002   0.23802   0.51599   0.00000  Uiso   1.00
C1082  C     0.87664   0.09531   0.98401   0.00000  Uiso   1.00
C1083  C     0.68826   0.14687   0.71428   0.00000  Uiso   1.00
C1084  C     0.97841   0.18646   0.78572   0.00000  Uiso   1.00
C1085  C     0.97823   0.14701   0.71431   0.00000  Uiso   1.00
C1086  C     0.68844   0.18632   0.78569   0.00000  Uiso   1.00
C1087  C     0.95735   0.16659   0.75013   0.00000  Uiso   1.00
C1088  C     0.70931   0.16674   0.74987   0.00000  Uiso   1.00
C1089  C     0.80276   0.02363   0.77186   0.00000  Uiso   1.00
C1090  C     0.86391   0.30970   0.72813   0.00000  Uiso   1.00
C1091  C     0.86389   0.02443   0.72811   0.00000  Uiso   1.00
C1092  C     0.80277   0.30890   0.77189   0.00000  Uiso   1.00
C1093  C     0.83119   0.16732   0.66332   0.00000  Uiso   1.00
C1094  C     0.83548   0.16601   0.83668   0.00000  Uiso   1.00
C1095  C     0.85639   0.12768   0.90920   0.00000  Uiso   1.00
C1096  C     0.81028   0.20566   0.59080   0.00000  Uiso   1.00
C1097  C     0.83877   0.16494   0.88467   0.00000  Uiso   1.00
C1098  C     0.82790   0.16839   0.61533   0.00000  Uiso   1.00
C1099  C     0.82205   0.20231   0.90580   0.00000  Uiso   1.00
C1100  C     0.84461   0.13102   0.59420   0.00000  Uiso   1.00
C1101  C     0.81888   0.20247   0.95119   0.00000  Uiso   1.00
C1102  C     0.84778   0.13086   0.54881   0.00000  Uiso   1.00
C1103  C     0.83566   0.16623   0.97686   0.00000  Uiso   1.00
C1104  C     0.83100   0.16710   0.52314   0.00000  Uiso   1.00
C1105  C     0.85700   0.12935   0.95630   0.00000  Uiso   1.00
C1106  C     0.80966   0.20398   0.54369   0.00000  Uiso   1.00
C1107  C     0.79669   0.23769   0.97048   0.00000  Uiso   1.00
C1108  C     0.86996   0.09563   0.52952   0.00000  Uiso   1.00
H1109  H     0.80844   0.23041   0.88653   0.00000  Uiso   1.00
H1110  H     0.85822   0.10292   0.61347   0.00000  Uiso   1.00
H1111  H     0.78221   0.26397   0.94947   0.00000  Uiso   1.00
H1112  H     0.88445   0.06935   0.55053   0.00000  Uiso   1.00
H1113  H     0.77847   0.04161   0.78948   0.00000  Uiso   1.00
H1114  H     0.88819   0.29173   0.71052   0.00000  Uiso   1.00
H1115  H     0.88819   0.04304   0.71053   0.00000  Uiso   1.00
H1116  H     0.77847   0.29029   0.78947   0.00000  Uiso   1.00
N1117  N     0.83333   0.28573   0.75000   0.00000  Uiso   1.00
N1118  N     0.83333   0.04760   0.75000   0.00000  Uiso   1.00
O1119  O     0.77226   0.20487   0.74999   0.00000  Uiso   1.00
O1120  O     0.89441   0.12846   0.75000   0.00000  Uiso   1.00
O1121  O     0.89441   0.20487   0.75000   0.00000  Uiso   1.00
O1122  O     0.77226   0.12846   0.74999   0.00000  Uiso   1.00
O1123  O     0.83333   0.20489   0.68392   0.00000  Uiso   1.00
O1124  O     0.83334   0.12844   0.81607   0.00000  Uiso   1.00
O1125  O     0.83334   0.20489   0.81607   0.00000  Uiso   1.00
O1126  O     0.83333   0.12844   0.68392   0.00000  Uiso   1.00
Zn1127 Zn    0.83333   0.21771   0.75000   0.00000  Uiso   1.00
Zn1128 Zn    0.83333   0.11563   0.75000   0.00000  Uiso   1.00
C1129  C     0.86967   0.08595   0.88584   0.00000  Uiso   1.00
C1130  C     0.84520   0.04631   0.88929   0.00000  Uiso   1.00
C1131  C     0.85765   0.00689   0.86768   0.00000  Uiso   1.00
C1132  C     0.89405   0.00701   0.84182   0.00000  Uiso   1.00
C1133  C     0.91805   0.04659   0.83743   0.00000  Uiso   1.00
C1134  C     0.90596   0.08597   0.85932   0.00000  Uiso   1.00
H1135  H     0.81689   0.04585   0.90917   0.00000  Uiso   1.00
H1136  H     0.83898   0.30963   0.87082   0.00000  Uiso   1.00
H1137  H     0.90347   0.30988   0.82491   0.00000  Uiso   1.00
H1138  H     0.94608   0.04673   0.81716   0.00000  Uiso   1.00
H1139  H     0.92496   0.11626   0.85600   0.00000  Uiso   1.00
C1140  C     0.79700   0.24739   0.61416   0.00000  Uiso   1.00
C1141  C     0.76071   0.24737   0.64069   0.00000  Uiso   1.00
C1142  C     0.74862   0.28675   0.66258   0.00000  Uiso   1.00
C1143  C     0.77262   0.32632   0.65817   0.00000  Uiso   1.00
C1144  C     0.80902   0.32645   0.63232   0.00000  Uiso   1.00
C1145  C     0.82146   0.28703   0.61070   0.00000  Uiso   1.00
H1146  H     0.74171   0.21707   0.64401   0.00000  Uiso   1.00
H1147  H     0.72060   0.28661   0.68285   0.00000  Uiso   1.00
H1148  H     0.76320   0.02346   0.67509   0.00000  Uiso   1.00
H1149  H     0.82769   0.02371   0.62916   0.00000  Uiso   1.00
H1150  H     0.84977   0.28749   0.59081   0.00000  Uiso   1.00
C1151  C     0.75812   0.27115   0.53098   0.00000  Uiso   1.00
C1152  C     0.76524   0.31820   0.52601   0.00000  Uiso   1.00
C1153  C     0.73413   0.01601   0.53781   0.00000  Uiso   1.00
C1154  C     0.69544   0.00046   0.55378   0.00000  Uiso   1.00
C1155  C     0.68777   0.28707   0.55784   0.00000  Uiso   1.00
C1156  C     0.71886   0.25579   0.54623   0.00000  Uiso   1.00
H1157  H     0.79496   0.33066   0.51331   0.00000  Uiso   1.00
H1158  H     0.73994   0.05220   0.53438   0.00000  Uiso   1.00
H1159  H     0.67131   0.02461   0.56272   0.00000  Uiso   1.00
H1160  H     0.99100   0.27508   0.56983   0.00000  Uiso   1.00
H1161  H     0.71245   0.21967   0.54912   0.00000  Uiso   1.00
C1162  C     0.90854   0.06217   0.96902   0.00000  Uiso   1.00
C1163  C     0.94779   0.07752   0.95378   0.00000  Uiso   1.00
C1164  C     0.97889   0.04624   0.94217   0.00000  Uiso   1.00
C1165  C     0.97120   0.33285   0.94622   0.00000  Uiso   1.00
C1166  C     0.93251   0.31730   0.96218   0.00000  Uiso   1.00
C1167  C     0.90140   0.01512   0.97399   0.00000  Uiso   1.00
H1168  H     0.95422   0.11364   0.95089   0.00000  Uiso   1.00
H1169  H     0.67566   0.05822   0.93018   0.00000  Uiso   1.00
H1170  H     0.99533   0.30869   0.93728   0.00000  Uiso   1.00
H1171  H     0.92669   0.28112   0.96561   0.00000  Uiso   1.00
H1172  H     0.87168   0.00267   0.98668   0.00000  Uiso   1.00
Br1173 Br    0.71847   0.12075   0.66519   0.00000  Uiso   1.00
Br1174 Br    0.94820   0.21258   0.83481   0.00000  Uiso   1.00
Br1175 Br    0.94768   0.12268   0.66454   0.00000  Uiso   1.00
Br1176 Br    0.71899   0.21065   0.83546   0.00000  Uiso   1.00
C1177  C     0.08672   0.50005   0.74984   0.00000  Uiso   1.00
C1178  C     0.24661   0.49995   0.75016   0.00000  Uiso   1.00
C1179  C     0.12335   0.57135   0.51599   0.00000  Uiso   1.00
C1180  C     0.20997   0.42864   0.98401   0.00000  Uiso   1.00
C1181  C     0.02159   0.48021   0.71428   0.00000  Uiso   1.00
C1182  C     0.31174   0.51979   0.78572   0.00000  Uiso   1.00
C1183  C     0.31156   0.48035   0.71431   0.00000  Uiso   1.00
C1184  C     0.02177   0.51965   0.78569   0.00000  Uiso   1.00
C1185  C     0.29068   0.49993   0.75013   0.00000  Uiso   1.00
C1186  C     0.04265   0.50007   0.74987   0.00000  Uiso   1.00
C1187  C     0.13609   0.35697   0.77186   0.00000  Uiso   1.00
C1188  C     0.19724   0.64303   0.72813   0.00000  Uiso   1.00
C1189  C     0.19722   0.35776   0.72811   0.00000  Uiso   1.00
C1190  C     0.13611   0.64223   0.77189   0.00000  Uiso   1.00
C1191  C     0.16452   0.50066   0.66332   0.00000  Uiso   1.00
C1192  C     0.16881   0.49934   0.83668   0.00000  Uiso   1.00
C1193  C     0.18972   0.46101   0.90920   0.00000  Uiso   1.00
C1194  C     0.14361   0.53899   0.59080   0.00000  Uiso   1.00
C1195  C     0.17210   0.49828   0.88467   0.00000  Uiso   1.00
C1196  C     0.16123   0.50172   0.61533   0.00000  Uiso   1.00
C1197  C     0.15539   0.53564   0.90580   0.00000  Uiso   1.00
C1198  C     0.17794   0.46436   0.59420   0.00000  Uiso   1.00
C1199  C     0.15221   0.53581   0.95119   0.00000  Uiso   1.00
C1200  C     0.18111   0.46419   0.54881   0.00000  Uiso   1.00
C1201  C     0.16899   0.49956   0.97686   0.00000  Uiso   1.00
C1202  C     0.16433   0.50043   0.52314   0.00000  Uiso   1.00
C1203  C     0.19033   0.46269   0.95630   0.00000  Uiso   1.00
C1204  C     0.14299   0.53731   0.54369   0.00000  Uiso   1.00
C1205  C     0.13003   0.57103   0.97048   0.00000  Uiso   1.00
C1206  C     0.20330   0.42897   0.52952   0.00000  Uiso   1.00
H1207  H     0.14178   0.56375   0.88653   0.00000  Uiso   1.00
H1208  H     0.19155   0.43625   0.61347   0.00000  Uiso   1.00
H1209  H     0.11554   0.59731   0.94947   0.00000  Uiso   1.00
H1210  H     0.21778   0.40269   0.55053   0.00000  Uiso   1.00
H1211  H     0.11181   0.37494   0.78948   0.00000  Uiso   1.00
H1212  H     0.22152   0.62506   0.71052   0.00000  Uiso   1.00
H1213  H     0.22153   0.37637   0.71053   0.00000  Uiso   1.00
H1214  H     0.11180   0.62363   0.78947   0.00000  Uiso   1.00
N1215  N     0.16667   0.61907   0.75000   0.00000  Uiso   1.00
N1216  N     0.16667   0.38093   0.75000   0.00000  Uiso   1.00
O1217  O     0.10559   0.53821   0.74999   0.00000  Uiso   1.00
O1218  O     0.22774   0.46179   0.75000   0.00000  Uiso   1.00
O1219  O     0.22774   0.53821   0.75000   0.00000  Uiso   1.00
O1220  O     0.10559   0.46179   0.74999   0.00000  Uiso   1.00
O1221  O     0.16666   0.53823   0.68392   0.00000  Uiso   1.00
O1222  O     0.16667   0.46177   0.81607   0.00000  Uiso   1.00
O1223  O     0.16667   0.53823   0.81607   0.00000  Uiso   1.00
O1224  O     0.16666   0.46177   0.68392   0.00000  Uiso   1.00
Zn1225 Zn    0.16667   0.55104   0.75000   0.00000  Uiso   1.00
Zn1226 Zn    0.16667   0.44896   0.75000   0.00000  Uiso   1.00
C1227  C     0.20300   0.41928   0.88584   0.00000  Uiso   1.00
C1228  C     0.17854   0.37964   0.88929   0.00000  Uiso   1.00
C1229  C     0.19098   0.34022   0.86768   0.00000  Uiso   1.00
C1230  C     0.22738   0.34035   0.84182   0.00000  Uiso   1.00
C1231  C     0.25138   0.37992   0.83743   0.00000  Uiso   1.00
C1232  C     0.23929   0.41930   0.85932   0.00000  Uiso   1.00
H1233  H     0.15022   0.37918   0.90917   0.00000  Uiso   1.00
H1234  H     0.17231   0.64296   0.87082   0.00000  Uiso   1.00
H1235  H     0.23680   0.64321   0.82491   0.00000  Uiso   1.00
H1236  H     0.27941   0.38006   0.81716   0.00000  Uiso   1.00
H1237  H     0.25829   0.44959   0.85600   0.00000  Uiso   1.00
C1238  C     0.13033   0.58072   0.61416   0.00000  Uiso   1.00
C1239  C     0.09405   0.58070   0.64069   0.00000  Uiso   1.00
C1240  C     0.08196   0.62008   0.66258   0.00000  Uiso   1.00
C1241  C     0.10595   0.65966   0.65817   0.00000  Uiso   1.00
C1242  C     0.14235   0.65978   0.63232   0.00000  Uiso   1.00
C1243  C     0.15479   0.62036   0.61070   0.00000  Uiso   1.00
H1244  H     0.07504   0.55040   0.64401   0.00000  Uiso   1.00
H1245  H     0.05393   0.61994   0.68285   0.00000  Uiso   1.00
H1246  H     0.09653   0.35679   0.67509   0.00000  Uiso   1.00
H1247  H     0.16102   0.35704   0.62916   0.00000  Uiso   1.00
H1248  H     0.18310   0.62082   0.59081   0.00000  Uiso   1.00
C1249  C     0.09145   0.60449   0.53098   0.00000  Uiso   1.00
C1250  C     0.09858   0.65154   0.52601   0.00000  Uiso   1.00
C1251  C     0.06746   0.34935   0.53781   0.00000  Uiso   1.00
C1252  C     0.02878   0.33379   0.55378   0.00000  Uiso   1.00
C1253  C     0.02110   0.62040   0.55784   0.00000  Uiso   1.00
C1254  C     0.05220   0.58912   0.54623   0.00000  Uiso   1.00
H1255  H     0.12829   0.66399   0.51331   0.00000  Uiso   1.00
H1256  H     0.07327   0.38553   0.53438   0.00000  Uiso   1.00
H1257  H     0.00465   0.35794   0.56272   0.00000  Uiso   1.00
H1258  H     0.32433   0.60841   0.56983   0.00000  Uiso   1.00
H1259  H     0.04578   0.55300   0.54912   0.00000  Uiso   1.00
C1260  C     0.24187   0.39550   0.96902   0.00000  Uiso   1.00
C1261  C     0.28113   0.41085   0.95378   0.00000  Uiso   1.00
C1262  C     0.31222   0.37957   0.94217   0.00000  Uiso   1.00
C1263  C     0.30453   0.66618   0.94622   0.00000  Uiso   1.00
C1264  C     0.26584   0.65063   0.96218   0.00000  Uiso   1.00
C1265  C     0.23473   0.34845   0.97399   0.00000  Uiso   1.00
H1266  H     0.28755   0.44698   0.95089   0.00000  Uiso   1.00
H1267  H     0.00899   0.39155   0.93018   0.00000  Uiso   1.00
H1268  H     0.32866   0.64203   0.93728   0.00000  Uiso   1.00
H1269  H     0.26002   0.61445   0.96561   0.00000  Uiso   1.00
H1270  H     0.20501   0.33600   0.98668   0.00000  Uiso   1.00
Br1271 Br    0.05180   0.45409   0.66519   0.00000  Uiso   1.00
Br1272 Br    0.28153   0.54591   0.83481   0.00000  Uiso   1.00
Br1273 Br    0.28101   0.45601   0.66454   0.00000  Uiso   1.00
Br1274 Br    0.05232   0.54399   0.83546   0.00000  Uiso   1.00
C1275  C     0.42005   0.50005   0.74984   0.00000  Uiso   1.00
C1276  C     0.57995   0.49995   0.75016   0.00000  Uiso   1.00
C1277  C     0.45668   0.57135   0.51599   0.00000  Uiso   1.00
C1278  C     0.54331   0.42864   0.98401   0.00000  Uiso   1.00
C1279  C     0.35493   0.48021   0.71428   0.00000  Uiso   1.00
C1280  C     0.64507   0.51979   0.78572   0.00000  Uiso   1.00
C1281  C     0.64489   0.48035   0.71431   0.00000  Uiso   1.00
C1282  C     0.35511   0.51965   0.78569   0.00000  Uiso   1.00
C1283  C     0.62402   0.49993   0.75013   0.00000  Uiso   1.00
C1284  C     0.37598   0.50007   0.74987   0.00000  Uiso   1.00
C1285  C     0.46943   0.35697   0.77186   0.00000  Uiso   1.00
C1286  C     0.53057   0.64303   0.72813   0.00000  Uiso   1.00
C1287  C     0.53056   0.35776   0.72811   0.00000  Uiso   1.00
C1288  C     0.46944   0.64223   0.77189   0.00000  Uiso   1.00
C1289  C     0.49786   0.50066   0.66332   0.00000  Uiso   1.00
C1290  C     0.50214   0.49934   0.83668   0.00000  Uiso   1.00
C1291  C     0.52305   0.46101   0.90920   0.00000  Uiso   1.00
C1292  C     0.47694   0.53899   0.59080   0.00000  Uiso   1.00
C1293  C     0.50544   0.49828   0.88467   0.00000  Uiso   1.00
C1294  C     0.49456   0.50172   0.61533   0.00000  Uiso   1.00
C1295  C     0.48872   0.53564   0.90580   0.00000  Uiso   1.00
C1296  C     0.51128   0.46436   0.59420   0.00000  Uiso   1.00
C1297  C     0.48555   0.53581   0.95119   0.00000  Uiso   1.00
C1298  C     0.51445   0.46419   0.54881   0.00000  Uiso   1.00
C1299  C     0.50233   0.49956   0.97686   0.00000  Uiso   1.00
C1300  C     0.49766   0.50043   0.52314   0.00000  Uiso   1.00
C1301  C     0.52367   0.46269   0.95630   0.00000  Uiso   1.00
C1302  C     0.47633   0.53731   0.54369   0.00000  Uiso   1.00
C1303  C     0.46336   0.57103   0.97048   0.00000  Uiso   1.00
C1304  C     0.53663   0.42897   0.52952   0.00000  Uiso   1.00
H1305  H     0.47511   0.56375   0.88653   0.00000  Uiso   1.00
H1306  H     0.52489   0.43625   0.61347   0.00000  Uiso   1.00
H1307  H     0.44888   0.59731   0.94947   0.00000  Uiso   1.00
H1308  H     0.55111   0.40269   0.55053   0.00000  Uiso   1.00
H1309  H     0.44514   0.37494   0.78948   0.00000  Uiso   1.00
H1310  H     0.55486   0.62506   0.71052   0.00000  Uiso   1.00
H1311  H     0.55486   0.37637   0.71053   0.00000  Uiso   1.00
H1312  H     0.44514   0.62363   0.78947   0.00000  Uiso   1.00
N1313  N     0.50000   0.61907   0.75000   0.00000  Uiso   1.00
N1314  N     0.50000   0.38093   0.75000   0.00000  Uiso   1.00
O1315  O     0.43892   0.53821   0.74999   0.00000  Uiso   1.00
O1316  O     0.56108   0.46179   0.75000   0.00000  Uiso   1.00
O1317  O     0.56108   0.53821   0.75000   0.00000  Uiso   1.00
O1318  O     0.43892   0.46179   0.74999   0.00000  Uiso   1.00
O1319  O     0.49999   0.53823   0.68392   0.00000  Uiso   1.00
O1320  O     0.50001   0.46177   0.81607   0.00000  Uiso   1.00
O1321  O     0.50001   0.53823   0.81607   0.00000  Uiso   1.00
O1322  O     0.49999   0.46177   0.68392   0.00000  Uiso   1.00
Zn1323 Zn    0.50000   0.55104   0.75000   0.00000  Uiso   1.00
Zn1324 Zn    0.50000   0.44896   0.75000   0.00000  Uiso   1.00
C1325  C     0.53634   0.41928   0.88584   0.00000  Uiso   1.00
C1326  C     0.51187   0.37964   0.88929   0.00000  Uiso   1.00
C1327  C     0.52431   0.34022   0.86768   0.00000  Uiso   1.00
C1328  C     0.56072   0.34035   0.84182   0.00000  Uiso   1.00
C1329  C     0.58471   0.37992   0.83743   0.00000  Uiso   1.00
C1330  C     0.57262   0.41930   0.85932   0.00000  Uiso   1.00
H1331  H     0.48356   0.37918   0.90917   0.00000  Uiso   1.00
H1332  H     0.50564   0.64296   0.87082   0.00000  Uiso   1.00
H1333  H     0.57014   0.64321   0.82491   0.00000  Uiso   1.00
H1334  H     0.61275   0.38006   0.81716   0.00000  Uiso   1.00
H1335  H     0.59163   0.44959   0.85600   0.00000  Uiso   1.00
C1336  C     0.46366   0.58072   0.61416   0.00000  Uiso   1.00
C1337  C     0.42738   0.58070   0.64069   0.00000  Uiso   1.00
C1338  C     0.41529   0.62008   0.66258   0.00000  Uiso   1.00
C1339  C     0.43929   0.65966   0.65817   0.00000  Uiso   1.00
C1340  C     0.47569   0.65978   0.63232   0.00000  Uiso   1.00
C1341  C     0.48813   0.62036   0.61070   0.00000  Uiso   1.00
H1342  H     0.40838   0.55040   0.64401   0.00000  Uiso   1.00
H1343  H     0.38726   0.61994   0.68285   0.00000  Uiso   1.00
H1344  H     0.42987   0.35679   0.67509   0.00000  Uiso   1.00
H1345  H     0.49435   0.35704   0.62916   0.00000  Uiso   1.00
H1346  H     0.51643   0.62082   0.59081   0.00000  Uiso   1.00
C1347  C     0.42478   0.60449   0.53098   0.00000  Uiso   1.00
C1348  C     0.43191   0.65154   0.52601   0.00000  Uiso   1.00
C1349  C     0.40079   0.34935   0.53781   0.00000  Uiso   1.00
C1350  C     0.36211   0.33379   0.55378   0.00000  Uiso   1.00
C1351  C     0.35443   0.62040   0.55784   0.00000  Uiso   1.00
C1352  C     0.38553   0.58912   0.54623   0.00000  Uiso   1.00
H1353  H     0.46162   0.66399   0.51331   0.00000  Uiso   1.00
H1354  H     0.40661   0.38553   0.53438   0.00000  Uiso   1.00
H1355  H     0.33798   0.35794   0.56272   0.00000  Uiso   1.00
H1356  H     0.65766   0.60841   0.56983   0.00000  Uiso   1.00
H1357  H     0.37911   0.55300   0.54912   0.00000  Uiso   1.00
C1358  C     0.57520   0.39550   0.96902   0.00000  Uiso   1.00
C1359  C     0.61446   0.41085   0.95378   0.00000  Uiso   1.00
C1360  C     0.64555   0.37957   0.94217   0.00000  Uiso   1.00
C1361  C     0.63787   0.66618   0.94622   0.00000  Uiso   1.00
C1362  C     0.59918   0.65063   0.96218   0.00000  Uiso   1.00
C1363  C     0.56806   0.34845   0.97399   0.00000  Uiso   1.00
H1364  H     0.62089   0.44698   0.95089   0.00000  Uiso   1.00
H1365  H     0.34233   0.39155   0.93018   0.00000  Uiso   1.00
H1366  H     0.66199   0.64203   0.93728   0.00000  Uiso   1.00
H1367  H     0.59335   0.61445   0.96561   0.00000  Uiso   1.00
H1368  H     0.53835   0.33600   0.98668   0.00000  Uiso   1.00
Br1369 Br    0.38514   0.45409   0.66519   0.00000  Uiso   1.00
Br1370 Br    0.61486   0.54591   0.83481   0.00000  Uiso   1.00
Br1371 Br    0.61434   0.45601   0.66454   0.00000  Uiso   1.00
Br1372 Br    0.38565   0.54399   0.83546   0.00000  Uiso   1.00
C1373  C     0.75338   0.50005   0.74984   0.00000  Uiso   1.00
C1374  C     0.91328   0.49995   0.75016   0.00000  Uiso   1.00
C1375  C     0.79002   0.57135   0.51599   0.00000  Uiso   1.00
C1376  C     0.87664   0.42864   0.98401   0.00000  Uiso   1.00
C1377  C     0.68826   0.48021   0.71428   0.00000  Uiso   1.00
C1378  C     0.97841   0.51979   0.78572   0.00000  Uiso   1.00
C1379  C     0.97823   0.48035   0.71431   0.00000  Uiso   1.00
C1380  C     0.68844   0.51965   0.78569   0.00000  Uiso   1.00
C1381  C     0.95735   0.49993   0.75013   0.00000  Uiso   1.00
C1382  C     0.70931   0.50007   0.74987   0.00000  Uiso   1.00
C1383  C     0.80276   0.35697   0.77186   0.00000  Uiso   1.00
C1384  C     0.86391   0.64303   0.72813   0.00000  Uiso   1.00
C1385  C     0.86389   0.35776   0.72811   0.00000  Uiso   1.00
C1386  C     0.80277   0.64223   0.77189   0.00000  Uiso   1.00
C1387  C     0.83119   0.50066   0.66332   0.00000  Uiso   1.00
C1388  C     0.83548   0.49934   0.83668   0.00000  Uiso   1.00
C1389  C     0.85639   0.46101   0.90920   0.00000  Uiso   1.00
C1390  C     0.81028   0.53899   0.59080   0.00000  Uiso   1.00
C1391  C     0.83877   0.49828   0.88467   0.00000  Uiso   1.00
C1392  C     0.82790   0.50172   0.61533   0.00000  Uiso   1.00
C1393  C     0.82205   0.53564   0.90580   0.00000  Uiso   1.00
C1394  C     0.84461   0.46436   0.59420   0.00000  Uiso   1.00
C1395  C     0.81888   0.53581   0.95119   0.00000  Uiso   1.00
C1396  C     0.84778   0.46419   0.54881   0.00000  Uiso   1.00
C1397  C     0.83566   0.49956   0.97686   0.00000  Uiso   1.00
C1398  C     0.83100   0.50043   0.52314   0.00000  Uiso   1.00
C1399  C     0.85700   0.46269   0.95630   0.00000  Uiso   1.00
C1400  C     0.80966   0.53731   0.54369   0.00000  Uiso   1.00
C1401  C     0.79669   0.57103   0.97048   0.00000  Uiso   1.00
C1402  C     0.86996   0.42897   0.52952   0.00000  Uiso   1.00
H1403  H     0.80844   0.56375   0.88653   0.00000  Uiso   1.00
H1404  H     0.85822   0.43625   0.61347   0.00000  Uiso   1.00
H1405  H     0.78221   0.59731   0.94947   0.00000  Uiso   1.00
H1406  H     0.88445   0.40269   0.55053   0.00000  Uiso   1.00
H1407  H     0.77847   0.37494   0.78948   0.00000  Uiso   1.00
H1408  H     0.88819   0.62506   0.71052   0.00000  Uiso   1.00
H1409  H     0.88819   0.37637   0.71053   0.00000  Uiso   1.00
H1410  H     0.77847   0.62363   0.78947   0.00000  Uiso   1.00
N1411  N     0.83333   0.61907   0.75000   0.00000  Uiso   1.00
N1412  N     0.83333   0.38093   0.75000   0.00000  Uiso   1.00
O1413  O     0.77226   0.53821   0.74999   0.00000  Uiso   1.00
O1414  O     0.89441   0.46179   0.75000   0.00000  Uiso   1.00
O1415  O     0.89441   0.53821   0.75000   0.00000  Uiso   1.00
O1416  O     0.77226   0.46179   0.74999   0.00000  Uiso   1.00
O1417  O     0.83333   0.53823   0.68392   0.00000  Uiso   1.00
O1418  O     0.83334   0.46177   0.81607   0.00000  Uiso   1.00
O1419  O     0.83334   0.53823   0.81607   0.00000  Uiso   1.00
O1420  O     0.83333   0.46177   0.68392   0.00000  Uiso   1.00
Zn1421 Zn    0.83333   0.55104   0.75000   0.00000  Uiso   1.00
Zn1422 Zn    0.83333   0.44896   0.75000   0.00000  Uiso   1.00
C1423  C     0.86967   0.41928   0.88584   0.00000  Uiso   1.00
C1424  C     0.84520   0.37964   0.88929   0.00000  Uiso   1.00
C1425  C     0.85765   0.34022   0.86768   0.00000  Uiso   1.00
C1426  C     0.89405   0.34035   0.84182   0.00000  Uiso   1.00
C1427  C     0.91805   0.37992   0.83743   0.00000  Uiso   1.00
C1428  C     0.90596   0.41930   0.85932   0.00000  Uiso   1.00
H1429  H     0.81689   0.37918   0.90917   0.00000  Uiso   1.00
H1430  H     0.83898   0.64296   0.87082   0.00000  Uiso   1.00
H1431  H     0.90347   0.64321   0.82491   0.00000  Uiso   1.00
H1432  H     0.94608   0.38006   0.81716   0.00000  Uiso   1.00
H1433  H     0.92496   0.44959   0.85600   0.00000  Uiso   1.00
C1434  C     0.79700   0.58072   0.61416   0.00000  Uiso   1.00
C1435  C     0.76071   0.58070   0.64069   0.00000  Uiso   1.00
C1436  C     0.74862   0.62008   0.66258   0.00000  Uiso   1.00
C1437  C     0.77262   0.65966   0.65817   0.00000  Uiso   1.00
C1438  C     0.80902   0.65978   0.63232   0.00000  Uiso   1.00
C1439  C     0.82146   0.62036   0.61070   0.00000  Uiso   1.00
H1440  H     0.74171   0.55040   0.64401   0.00000  Uiso   1.00
H1441  H     0.72060   0.61994   0.68285   0.00000  Uiso   1.00
H1442  H     0.76320   0.35679   0.67509   0.00000  Uiso   1.00
H1443  H     0.82769   0.35704   0.62916   0.00000  Uiso   1.00
H1444  H     0.84977   0.62082   0.59081   0.00000  Uiso   1.00
C1445  C     0.75812   0.60449   0.53098   0.00000  Uiso   1.00
C1446  C     0.76524   0.65154   0.52601   0.00000  Uiso   1.00
C1447  C     0.73413   0.34935   0.53781   0.00000  Uiso   1.00
C1448  C     0.69544   0.33379   0.55378   0.00000  Uiso   1.00
C1449  C     0.68777   0.62040   0.55784   0.00000  Uiso   1.00
C1450  C     0.71886   0.58912   0.54623   0.00000  Uiso   1.00
H1451  H     0.79496   0.66399   0.51331   0.00000  Uiso   1.00
H1452  H     0.73994   0.38553   0.53438   0.00000  Uiso   1.00
H1453  H     0.67131   0.35794   0.56272   0.00000  Uiso   1.00
H1454  H     0.99100   0.60841   0.56983   0.00000  Uiso   1.00
H1455  H     0.71245   0.55300   0.54912   0.00000  Uiso   1.00
C1456  C     0.90854   0.39550   0.96902   0.00000  Uiso   1.00
C1457  C     0.94779   0.41085   0.95378   0.00000  Uiso   1.00
C1458  C     0.97889   0.37957   0.94217   0.00000  Uiso   1.00
C1459  C     0.97120   0.66618   0.94622   0.00000  Uiso   1.00
C1460  C     0.93251   0.65063   0.96218   0.00000  Uiso   1.00
C1461  C     0.90140   0.34845   0.97399   0.00000  Uiso   1.00
H1462  H     0.95422   0.44698   0.95089   0.00000  Uiso   1.00
H1463  H     0.67566   0.39155   0.93018   0.00000  Uiso   1.00
H1464  H     0.99533   0.64203   0.93728   0.00000  Uiso   1.00
H1465  H     0.92669   0.61445   0.96561   0.00000  Uiso   1.00
H1466  H     0.87168   0.33600   0.98668   0.00000  Uiso   1.00
Br1467 Br    0.71847   0.45409   0.66519   0.00000  Uiso   1.00
Br1468 Br    0.94820   0.54591   0.83481   0.00000  Uiso   1.00
Br1469 Br    0.94768   0.45601   0.66454   0.00000  Uiso   1.00
Br1470 Br    0.71899   0.54399   0.83546   0.00000  Uiso   1.00
C1471  C     0.08672   0.83339   0.74984   0.00000  Uiso   1.00
C1472  C     0.24661   0.83328   0.75016   0.00000  Uiso   1.00
C1473  C     0.12335   0.90468   0.51599   0.00000  Uiso   1.00
C1474  C     0.20997   0.76198   0.98401   0.00000  Uiso   1.00
C1475  C     0.02159   0.81354   0.71428   0.00000  Uiso   1.00
C1476  C     0.31174   0.85312   0.78572   0.00000  Uiso   1.00
C1477  C     0.31156   0.81368   0.71431   0.00000  Uiso   1.00
C1478  C     0.02177   0.85299   0.78569   0.00000  Uiso   1.00
C1479  C     0.29068   0.83326   0.75013   0.00000  Uiso   1.00
C1480  C     0.04265   0.83341   0.74987   0.00000  Uiso   1.00
C1481  C     0.13609   0.69030   0.77186   0.00000  Uiso   1.00
C1482  C     0.19724   0.97637   0.72813   0.00000  Uiso   1.00
C1483  C     0.19722   0.69110   0.72811   0.00000  Uiso   1.00
C1484  C     0.13611   0.97557   0.77189   0.00000  Uiso   1.00
C1485  C     0.16452   0.83399   0.66332   0.00000  Uiso   1.00
C1486  C     0.16881   0.83268   0.83668   0.00000  Uiso   1.00
C1487  C     0.18972   0.79434   0.90920   0.00000  Uiso   1.00
C1488  C     0.14361   0.87232   0.59080   0.00000  Uiso   1.00
C1489  C     0.17210   0.83161   0.88467   0.00000  Uiso   1.00
C1490  C     0.16123   0.83505   0.61533   0.00000  Uiso   1.00
C1491  C     0.15539   0.86898   0.90580   0.00000  Uiso   1.00
C1492  C     0.17794   0.79769   0.59420   0.00000  Uiso   1.00
C1493  C     0.15221   0.86914   0.95119   0.00000  Uiso   1.00
C1494  C     0.18111   0.79752   0.54881   0.00000  Uiso   1.00
C1495  C     0.16899   0.83290   0.97686   0.00000  Uiso   1.00
C1496  C     0.16433   0.83377   0.52314   0.00000  Uiso   1.00
C1497  C     0.19033   0.79602   0.95630   0.00000  Uiso   1.00
C1498  C     0.14299   0.87064   0.54369   0.00000  Uiso   1.00
C1499  C     0.13003   0.90436   0.97048   0.00000  Uiso   1.00
C1500  C     0.20330   0.76230   0.52952   0.00000  Uiso   1.00
H1501  H     0.14178   0.89708   0.88653   0.00000  Uiso   1.00
H1502  H     0.19155   0.76959   0.61347   0.00000  Uiso   1.00
H1503  H     0.11554   0.93064   0.94947   0.00000  Uiso   1.00
H1504  H     0.21778   0.73602   0.55053   0.00000  Uiso   1.00
H1505  H     0.11181   0.70827   0.78948   0.00000  Uiso   1.00
H1506  H     0.22152   0.95839   0.71052   0.00000  Uiso   1.00
H1507  H     0.22153   0.70971   0.71053   0.00000  Uiso   1.00
H1508  H     0.11180   0.95696   0.78947   0.00000  Uiso   1.00
N1509  N     0.16667   0.95240   0.75000   0.00000  Uiso   1.00
N1510  N     0.16667   0.71427   0.75000   0.00000  Uiso   1.00
O1511  O     0.10559   0.87154   0.74999   0.00000  Uiso   1.00
O1512  O     0.22774   0.79513   0.75000   0.00000  Uiso   1.00
O1513  O     0.22774   0.87154   0.75000   0.00000  Uiso   1.00
O1514  O     0.10559   0.79513   0.74999   0.00000  Uiso   1.00
O1515  O     0.16666   0.87156   0.68392   0.00000  Uiso   1.00
O1516  O     0.16667   0.79511   0.81607   0.00000  Uiso   1.00
O1517  O     0.16667   0.87156   0.81607   0.00000  Uiso   1.00
O1518  O     0.16666   0.79511   0.68392   0.00000  Uiso   1.00
Zn1519 Zn    0.16667   0.88437   0.75000   0.00000  Uiso   1.00
Zn1520 Zn    0.16667   0.78229   0.75000   0.00000  Uiso   1.00
C1521  C     0.20300   0.75261   0.88584   0.00000  Uiso   1.00
C1522  C     0.17854   0.71297   0.88929   0.00000  Uiso   1.00
C1523  C     0.19098   0.67355   0.86768   0.00000  Uiso   1.00
C1524  C     0.22738   0.67368   0.84182   0.00000  Uiso   1.00
C1525  C     0.25138   0.71325   0.83743   0.00000  Uiso   1.00
C1526  C     0.23929   0.75263   0.85932   0.00000  Uiso   1.00
H1527  H     0.15022   0.71251   0.90917   0.00000  Uiso   1.00
H1528  H     0.17231   0.97629   0.87082   0.00000  Uiso   1.00
H1529  H     0.23680   0.97655   0.82491   0.00000  Uiso   1.00
H1530  H     0.27941   0.71339   0.81716   0.00000  Uiso   1.00
H1531  H     0.25829   0.78293   0.85600   0.00000  Uiso   1.00
C1532  C     0.13033   0.91405   0.61416   0.00000  Uiso   1.00
C1533  C     0.09405   0.91403   0.64069   0.00000  Uiso   1.00
C1534  C     0.08196   0.95342   0.66258   0.00000  Uiso   1.00
C1535  C     0.10595   0.99299   0.65817   0.00000  Uiso   1.00
C1536  C     0.14235   0.99312   0.63232   0.00000  Uiso   1.00
C1537  C     0.15479   0.95369   0.61070   0.00000  Uiso   1.00
H1538  H     0.07504   0.88374   0.64401   0.00000  Uiso   1.00
H1539  H     0.05393   0.95328   0.68285   0.00000  Uiso   1.00
H1540  H     0.09653   0.69012   0.67509   0.00000  Uiso   1.00
H1541  H     0.16102   0.69037   0.62916   0.00000  Uiso   1.00
H1542  H     0.18310   0.95415   0.59081   0.00000  Uiso   1.00
C1543  C     0.09145   0.93782   0.53098   0.00000  Uiso   1.00
C1544  C     0.09858   0.98487   0.52601   0.00000  Uiso   1.00
C1545  C     0.06746   0.68268   0.53781   0.00000  Uiso   1.00
C1546  C     0.02878   0.66713   0.55378   0.00000  Uiso   1.00
C1547  C     0.02110   0.95374   0.55784   0.00000  Uiso   1.00
C1548  C     0.05220   0.92246   0.54623   0.00000  Uiso   1.00
H1549  H     0.12829   0.99733   0.51331   0.00000  Uiso   1.00
H1550  H     0.07327   0.71887   0.53438   0.00000  Uiso   1.00
H1551  H     0.00465   0.69127   0.56272   0.00000  Uiso   1.00
H1552  H     0.32433   0.94175   0.56983   0.00000  Uiso   1.00
H1553  H     0.04578   0.88633   0.54912   0.00000  Uiso   1.00
C1554  C     0.24187   0.72883   0.96902   0.00000  Uiso   1.00
C1555  C     0.28113   0.74419   0.95378   0.00000  Uiso   1.00
C1556  C     0.31222   0.71290   0.94217   0.00000  Uiso   1.00
C1557  C     0.30453   0.99951   0.94622   0.00000  Uiso   1.00
C1558  C     0.26584   0.98397   0.96218   0.00000  Uiso   1.00
C1559  C     0.23473   0.68178   0.97399   0.00000  Uiso   1.00
H1560  H     0.28755   0.78031   0.95089   0.00000  Uiso   1.00
H1561  H     0.00899   0.72488   0.93018   0.00000  Uiso   1.00
H1562  H     0.32866   0.97536   0.93728   0.00000  Uiso   1.00
H1563  H     0.26002   0.94778   0.96561   0.00000  Uiso   1.00
H1564  H     0.20501   0.66934   0.98668   0.00000  Uiso   1.00
Br1565 Br    0.05180   0.78742   0.66519   0.00000  Uiso   1.00
Br1566 Br    0.28153   0.87925   0.83481   0.00000  Uiso   1.00
Br1567 Br    0.28101   0.78935   0.66454   0.00000  Uiso   1.00
Br1568 Br    0.05232   0.87732   0.83546   0.00000  Uiso   1.00
C1569  C     0.42005   0.83339   0.74984   0.00000  Uiso   1.00
C1570  C     0.57995   0.83328   0.75016   0.00000  Uiso   1.00
C1571  C     0.45668   0.90468   0.51599   0.00000  Uiso   1.00
C1572  C     0.54331   0.76198   0.98401   0.00000  Uiso   1.00
C1573  C     0.35493   0.81354   0.71428   0.00000  Uiso   1.00
C1574  C     0.64507   0.85312   0.78572   0.00000  Uiso   1.00
C1575  C     0.64489   0.81368   0.71431   0.00000  Uiso   1.00
C1576  C     0.35511   0.85299   0.78569   0.00000  Uiso   1.00
C1577  C     0.62402   0.83326   0.75013   0.00000  Uiso   1.00
C1578  C     0.37598   0.83341   0.74987   0.00000  Uiso   1.00
C1579  C     0.46943   0.69030   0.77186   0.00000  Uiso   1.00
C1580  C     0.53057   0.97637   0.72813   0.00000  Uiso   1.00
C1581  C     0.53056   0.69110   0.72811   0.00000  Uiso   1.00
C1582  C     0.46944   0.97557   0.77189   0.00000  Uiso   1.00
C1583  C     0.49786   0.83399   0.66332   0.00000  Uiso   1.00
C1584  C     0.50214   0.83268   0.83668   0.00000  Uiso   1.00
C1585  C     0.52305   0.79434   0.90920   0.00000  Uiso   1.00
C1586  C     0.47694   0.87232   0.59080   0.00000  Uiso   1.00
C1587  C     0.50544   0.83161   0.88467   0.00000  Uiso   1.00
C1588  C     0.49456   0.83505   0.61533   0.00000  Uiso   1.00
C1589  C     0.48872   0.86898   0.90580   0.00000  Uiso   1.00
C1590  C     0.51128   0.79769   0.59420   0.00000  Uiso   1.00
C1591  C     0.48555   0.86914   0.95119   0.00000  Uiso   1.00
C1592  C     0.51445   0.79752   0.54881   0.00000  Uiso   1.00
C1593  C     0.50233   0.83290   0.97686   0.00000  Uiso   1.00
C1594  C     0.49766   0.83377   0.52314   0.00000  Uiso   1.00
C1595  C     0.52367   0.79602   0.95630   0.00000  Uiso   1.00
C1596  C     0.47633   0.87064   0.54369   0.00000  Uiso   1.00
C1597  C     0.46336   0.90436   0.97048   0.00000  Uiso   1.00
C1598  C     0.53663   0.76230   0.52952   0.00000  Uiso   1.00
H1599  H     0.47511   0.89708   0.88653   0.00000  Uiso   1.00
H1600  H     0.52489   0.76959   0.61347   0.00000  Uiso   1.00
H1601  H     0.44888   0.93064   0.94947   0.00000  Uiso   1.00
H1602  H     0.55111   0.73602   0.55053   0.00000  Uiso   1.00
H1603  H     0.44514   0.70827   0.78948   0.00000  Uiso   1.00
H1604  H     0.55486   0.95839   0.71052   0.00000  Uiso   1.00
H1605  H     0.55486   0.70971   0.71053   0.00000  Uiso   1.00
H1606  H     0.44514   0.95696   0.78947   0.00000  Uiso   1.00
N1607  N     0.50000   0.95240   0.75000   0.00000  Uiso   1.00
N1608  N     0.50000   0.71427   0.75000   0.00000  Uiso   1.00
O1609  O     0.43892   0.87154   0.74999   0.00000  Uiso   1.00
O1610  O     0.56108   0.79513   0.75000   0.00000  Uiso   1.00
O1611  O     0.56108   0.87154   0.75000   0.00000  Uiso   1.00
O1612  O     0.43892   0.79513   0.74999   0.00000  Uiso   1.00
O1613  O     0.49999   0.87156   0.68392   0.00000  Uiso   1.00
O1614  O     0.50001   0.79511   0.81607   0.00000  Uiso   1.00
O1615  O     0.50001   0.87156   0.81607   0.00000  Uiso   1.00
O1616  O     0.49999   0.79511   0.68392   0.00000  Uiso   1.00
Zn1617 Zn    0.50000   0.88437   0.75000   0.00000  Uiso   1.00
Zn1618 Zn    0.50000   0.78229   0.75000   0.00000  Uiso   1.00
C1619  C     0.53634   0.75261   0.88584   0.00000  Uiso   1.00
C1620  C     0.51187   0.71297   0.88929   0.00000  Uiso   1.00
C1621  C     0.52431   0.67355   0.86768   0.00000  Uiso   1.00
C1622  C     0.56072   0.67368   0.84182   0.00000  Uiso   1.00
C1623  C     0.58471   0.71325   0.83743   0.00000  Uiso   1.00
C1624  C     0.57262   0.75263   0.85932   0.00000  Uiso   1.00
H1625  H     0.48356   0.71251   0.90917   0.00000  Uiso   1.00
H1626  H     0.50564   0.97629   0.87082   0.00000  Uiso   1.00
H1627  H     0.57014   0.97655   0.82491   0.00000  Uiso   1.00
H1628  H     0.61275   0.71339   0.81716   0.00000  Uiso   1.00
H1629  H     0.59163   0.78293   0.85600   0.00000  Uiso   1.00
C1630  C     0.46366   0.91405   0.61416   0.00000  Uiso   1.00
C1631  C     0.42738   0.91403   0.64069   0.00000  Uiso   1.00
C1632  C     0.41529   0.95342   0.66258   0.00000  Uiso   1.00
C1633  C     0.43929   0.99299   0.65817   0.00000  Uiso   1.00
C1634  C     0.47569   0.99312   0.63232   0.00000  Uiso   1.00
C1635  C     0.48813   0.95369   0.61070   0.00000  Uiso   1.00
H1636  H     0.40838   0.88374   0.64401   0.00000  Uiso   1.00
H1637  H     0.38726   0.95328   0.68285   0.00000  Uiso   1.00
H1638  H     0.42987   0.69012   0.67509   0.00000  Uiso   1.00
H1639  H     0.49435   0.69037   0.62916   0.00000  Uiso   1.00
H1640  H     0.51643   0.95415   0.59081   0.00000  Uiso   1.00
C1641  C     0.42478   0.93782   0.53098   0.00000  Uiso   1.00
C1642  C     0.43191   0.98487   0.52601   0.00000  Uiso   1.00
C1643  C     0.40079   0.68268   0.53781   0.00000  Uiso   1.00
C1644  C     0.36211   0.66713   0.55378   0.00000  Uiso   1.00
C1645  C     0.35443   0.95374   0.55784   0.00000  Uiso   1.00
C1646  C     0.38553   0.92246   0.54623   0.00000  Uiso   1.00
H1647  H     0.46162   0.99733   0.51331   0.00000  Uiso   1.00
H1648  H     0.40661   0.71887   0.53438   0.00000  Uiso   1.00
H1649  H     0.33798   0.69127   0.56272   0.00000  Uiso   1.00
H1650  H     0.65766   0.94175   0.56983   0.00000  Uiso   1.00
H1651  H     0.37911   0.88633   0.54912   0.00000  Uiso   1.00
C1652  C     0.57520   0.72883   0.96902   0.00000  Uiso   1.00
C1653  C     0.61446   0.74419   0.95378   0.00000  Uiso   1.00
C1654  C     0.64555   0.71290   0.94217   0.00000  Uiso   1.00
C1655  C     0.63787   0.99951   0.94622   0.00000  Uiso   1.00
C1656  C     0.59918   0.98397   0.96218   0.00000  Uiso   1.00
C1657  C     0.56806   0.68178   0.97399   0.00000  Uiso   1.00
H1658  H     0.62089   0.78031   0.95089   0.00000  Uiso   1.00
H1659  H     0.34233   0.72488   0.93018   0.00000  Uiso   1.00
H1660  H     0.66199   0.97536   0.93728   0.00000  Uiso   1.00
H1661  H     0.59335   0.94778   0.96561   0.00000  Uiso   1.00
H1662  H     0.53835   0.66934   0.98668   0.00000  Uiso   1.00
Br1663 Br    0.38514   0.78742   0.66519   0.00000  Uiso   1.00
Br1664 Br    0.61486   0.87925   0.83481   0.00000  Uiso   1.00
Br1665 Br    0.61434   0.78935   0.66454   0.00000  Uiso   1.00
Br1666 Br    0.38565   0.87732   0.83546   0.00000  Uiso   1.00
C1667  C     0.75338   0.83339   0.74984   0.00000  Uiso   1.00
C1668  C     0.91328   0.83328   0.75016   0.00000  Uiso   1.00
C1669  C     0.79002   0.90468   0.51599   0.00000  Uiso   1.00
C1670  C     0.87664   0.76198   0.98401   0.00000  Uiso   1.00
C1671  C     0.68826   0.81354   0.71428   0.00000  Uiso   1.00
C1672  C     0.97841   0.85312   0.78572   0.00000  Uiso   1.00
C1673  C     0.97823   0.81368   0.71431   0.00000  Uiso   1.00
C1674  C     0.68844   0.85299   0.78569   0.00000  Uiso   1.00
C1675  C     0.95735   0.83326   0.75013   0.00000  Uiso   1.00
C1676  C     0.70931   0.83341   0.74987   0.00000  Uiso   1.00
C1677  C     0.80276   0.69030   0.77186   0.00000  Uiso   1.00
C1678  C     0.86391   0.97637   0.72813   0.00000  Uiso   1.00
C1679  C     0.86389   0.69110   0.72811   0.00000  Uiso   1.00
C1680  C     0.80277   0.97557   0.77189   0.00000  Uiso   1.00
C1681  C     0.83119   0.83399   0.66332   0.00000  Uiso   1.00
C1682  C     0.83548   0.83268   0.83668   0.00000  Uiso   1.00
C1683  C     0.85639   0.79434   0.90920   0.00000  Uiso   1.00
C1684  C     0.81028   0.87232   0.59080   0.00000  Uiso   1.00
C1685  C     0.83877   0.83161   0.88467   0.00000  Uiso   1.00
C1686  C     0.82790   0.83505   0.61533   0.00000  Uiso   1.00
C1687  C     0.82205   0.86898   0.90580   0.00000  Uiso   1.00
C1688  C     0.84461   0.79769   0.59420   0.00000  Uiso   1.00
C1689  C     0.81888   0.86914   0.95119   0.00000  Uiso   1.00
C1690  C     0.84778   0.79752   0.54881   0.00000  Uiso   1.00
C1691  C     0.83566   0.83290   0.97686   0.00000  Uiso   1.00
C1692  C     0.83100   0.83377   0.52314   0.00000  Uiso   1.00
C1693  C     0.85700   0.79602   0.95630   0.00000  Uiso   1.00
C1694  C     0.80966   0.87064   0.54369   0.00000  Uiso   1.00
C1695  C     0.79669   0.90436   0.97048   0.00000  Uiso   1.00
C1696  C     0.86996   0.76230   0.52952   0.00000  Uiso   1.00
H1697  H     0.80844   0.89708   0.88653   0.00000  Uiso   1.00
H1698  H     0.85822   0.76959   0.61347   0.00000  Uiso   1.00
H1699  H     0.78221   0.93064   0.94947   0.00000  Uiso   1.00
H1700  H     0.88445   0.73602   0.55053   0.00000  Uiso   1.00
H1701  H     0.77847   0.70827   0.78948   0.00000  Uiso   1.00
H1702  H     0.88819   0.95839   0.71052   0.00000  Uiso   1.00
H1703  H     0.88819   0.70971   0.71053   0.00000  Uiso   1.00
H1704  H     0.77847   0.95696   0.78947   0.00000  Uiso   1.00
N1705  N     0.83333   0.95240   0.75000   0.00000  Uiso   1.00
N1706  N     0.83333   0.71427   0.75000   0.00000  Uiso   1.00
O1707  O     0.77226   0.87154   0.74999   0.00000  Uiso   1.00
O1708  O     0.89441   0.79513   0.75000   0.00000  Uiso   1.00
O1709  O     0.89441   0.87154   0.75000   0.00000  Uiso   1.00
O1710  O     0.77226   0.79513   0.74999   0.00000  Uiso   1.00
O1711  O     0.83333   0.87156   0.68392   0.00000  Uiso   1.00
O1712  O     0.83334   0.79511   0.81607   0.00000  Uiso   1.00
O1713  O     0.83334   0.87156   0.81607   0.00000  Uiso   1.00
O1714  O     0.83333   0.79511   0.68392   0.00000  Uiso   1.00
Zn1715 Zn    0.83333   0.88437   0.75000   0.00000  Uiso   1.00
Zn1716 Zn    0.83333   0.78229   0.75000   0.00000  Uiso   1.00
C1717  C     0.86967   0.75261   0.88584   0.00000  Uiso   1.00
C1718  C     0.84520   0.71297   0.88929   0.00000  Uiso   1.00
C1719  C     0.85765   0.67355   0.86768   0.00000  Uiso   1.00
C1720  C     0.89405   0.67368   0.84182   0.00000  Uiso   1.00
C1721  C     0.91805   0.71325   0.83743   0.00000  Uiso   1.00
C1722  C     0.90596   0.75263   0.85932   0.00000  Uiso   1.00
H1723  H     0.81689   0.71251   0.90917   0.00000  Uiso   1.00
H1724  H     0.83898   0.97629   0.87082   0.00000  Uiso   1.00
H1725  H     0.90347   0.97655   0.82491   0.00000  Uiso   1.00
H1726  H     0.94608   0.71339   0.81716   0.00000  Uiso   1.00
H1727  H     0.92496   0.78293   0.85600   0.00000  Uiso   1.00
C1728  C     0.79700   0.91405   0.61416   0.00000  Uiso   1.00
C1729  C     0.76071   0.91403   0.64069   0.00000  Uiso   1.00
C1730  C     0.74862   0.95342   0.66258   0.00000  Uiso   1.00
C1731  C     0.77262   0.99299   0.65817   0.00000  Uiso   1.00
C1732  C     0.80902   0.99312   0.63232   0.00000  Uiso   1.00
C1733  C     0.82146   0.95369   0.61070   0.00000  Uiso   1.00
H1734  H     0.74171   0.88374   0.64401   0.00000  Uiso   1.00
H1735  H     0.72060   0.95328   0.68285   0.00000  Uiso   1.00
H1736  H     0.76320   0.69012   0.67509   0.00000  Uiso   1.00
H1737  H     0.82769   0.69037   0.62916   0.00000  Uiso   1.00
H1738  H     0.84977   0.95415   0.59081   0.00000  Uiso   1.00
C1739  C     0.75812   0.93782   0.53098   0.00000  Uiso   1.00
C1740  C     0.76524   0.98487   0.52601   0.00000  Uiso   1.00
C1741  C     0.73413   0.68268   0.53781   0.00000  Uiso   1.00
C1742  C     0.69544   0.66713   0.55378   0.00000  Uiso   1.00
C1743  C     0.68777   0.95374   0.55784   0.00000  Uiso   1.00
C1744  C     0.71886   0.92246   0.54623   0.00000  Uiso   1.00
H1745  H     0.79496   0.99733   0.51331   0.00000  Uiso   1.00
H1746  H     0.73994   0.71887   0.53438   0.00000  Uiso   1.00
H1747  H     0.67131   0.69127   0.56272   0.00000  Uiso   1.00
H1748  H     0.99100   0.94175   0.56983   0.00000  Uiso   1.00
H1749  H     0.71245   0.88633   0.54912   0.00000  Uiso   1.00
C1750  C     0.90854   0.72883   0.96902   0.00000  Uiso   1.00
C1751  C     0.94779   0.74419   0.95378   0.00000  Uiso   1.00
C1752  C     0.97889   0.71290   0.94217   0.00000  Uiso   1.00
C1753  C     0.97120   0.99951   0.94622   0.00000  Uiso   1.00
C1754  C     0.93251   0.98397   0.96218   0.00000  Uiso   1.00
C1755  C     0.90140   0.68178   0.97399   0.00000  Uiso   1.00
H1756  H     0.95422   0.78031   0.95089   0.00000  Uiso   1.00
H1757  H     0.67566   0.72488   0.93018   0.00000  Uiso   1.00
H1758  H     0.99533   0.97536   0.93728   0.00000  Uiso   1.00
H1759  H     0.92669   0.94778   0.96561   0.00000  Uiso   1.00
H1760  H     0.87168   0.66934   0.98668   0.00000  Uiso   1.00
Br1761 Br    0.71847   0.78742   0.66519   0.00000  Uiso   1.00
Br1762 Br    0.94820   0.87925   0.83481   0.00000  Uiso   1.00
Br1763 Br    0.94768   0.78935   0.66454   0.00000  Uiso   1.00
Br1764 Br    0.71899   0.87732   0.83546   0.00000  Uiso   1.00
loop_
_geom_bond_atom_site_label_1
_geom_bond_atom_site_label_2
_geom_bond_distance
_geom_bond_site_symmetry_2
_ccdc_geom_bond_type
C1     O44     1.272   .     A
C1     O41     1.274   .     A
C1     C10     1.403   .     S
C2     O43     1.272   .     A
C2     O42     1.274   .     A
C2     C9      1.403   .     S
C3     C28     1.428   .     A
C3     C73     1.483   .     S
C3     C911    1.387   1_554 S
C4     C84     1.483   .     S
C4     C27     1.428   .     A
C4     C912    1.387   .     S
C5     Br95    1.937   .     S
C5     C10     1.402   .     A
C5     C203    1.381   1_455 S
C6     C9      1.402   .     A
C6     Br96    1.937   .     S
C6     C106    1.381   .     S
C7     C9      1.401   .     A
C7     Br97    1.936   .     S
C7     C103    1.381   .     S
C8     Br98    1.936   .     S
C8     C10     1.401   .     A
C8     C202    1.381   1_455 S
C11    H35     1.082   .     S
C11    N40     1.365   .     A
C11    C602    1.412   1_545 S
C12    H36     1.082   .     S
C12    N39     1.365   .     A
C12    C307    1.412   .     S
C13    N40     1.365   .     A
C13    H37     1.081   .     S
C13    C600    1.412   1_545 S
C14    N39     1.365   .     A
C14    H38     1.081   .     S
C14    C305    1.412   .     S
C15    O48     1.288   .     A
C15    C20     1.447   .     S
C15    O45     1.281   .     A
C16    O47     1.288   .     A
C16    O46     1.281   .     A
C16    C19     1.447   .     S
C17    C51     1.488   .     S
C17    C27     1.419   .     A
C17    C19     1.419   .     A
C18    C28     1.419   .     A
C18    C62     1.488   .     S
C18    C20     1.419   .     A
C19    C21     1.387   .     A
C20    C22     1.387   .     A
C21    H31     1.086   .     S
C21    C23     1.370   .     A
C22    H32     1.086   .     S
C22    C24     1.370   .     A
C23    C29     1.390   .     A
C23    C25     1.404   .     A
C24    C26     1.404   .     A
C24    C30     1.390   .     A
C25    C27     1.431   .     A
C25    C908    1.401   .     S
C26    C28     1.431   .     A
C26    C907    1.401   1_554 S
C29    H33     1.087   .     S
C29    C885    1.387   .     S
C30    H34     1.087   .     S
C30    C886    1.387   1_554 S
N39    Zn49    1.999   .     S
N40    Zn50    1.999   .     S
O41    Zn49    1.982   .     S
O42    Zn50    1.982   .     S
O43    Zn49    1.979   .     S
O44    Zn50    1.979   .     S
O45    Zn49    2.032   .     S
O46    Zn50    2.032   .     S
O47    Zn49    2.014   .     S
O48    Zn50    2.014   .     S
C51    C56     1.406   .     A
C51    C52     1.406   .     A
C52    C53     1.398   .     A
C52    H57     1.083   .     S
C53    C54     1.397   .     A
C53    H646    1.082   1_545 S
C54    C55     1.398   .     A
C54    H647    1.082   1_545 S
C55    C56     1.398   .     A
C55    H60     1.082   .     S
C56    H61     1.081   .     S
H58    C347    1.082   .     S
H59    C348    1.082   .     S
C62    C67     1.406   .     A
C62    C63     1.406   .     A
C63    H68     1.081   .     S
C63    C64     1.398   .     A
C64    H69     1.082   .     S
C64    C65     1.398   .     A
C65    C66     1.397   .     A
C65    H364    1.082   .     S
C66    C67     1.398   .     A
C66    H365    1.082   .     S
C67    H72     1.083   .     S
H70    C653    1.082   1_545 S
H71    C654    1.082   1_545 S
C73    C74     1.406   .     A
C73    C78     1.405   .     A
C74    H79     1.083   .     S
C74    C369    1.398   .     S
C75    H80     1.082   .     S
C75    C76     1.398   .     A
C75    C662    1.398   1_545 S
C76    H81     1.082   .     S
C76    C665    1.398   1_545 S
C77    C78     1.399   .     A
C77    C370    1.398   .     S
C77    H278    1.082   1_455 S
C78    H83     1.083   .     S
H82    C175    1.082   .     S
C84    C85     1.405   .     A
C84    C89     1.406   .     A
C85    C86     1.399   .     A
C85    H90     1.083   .     S
C86    C675    1.398   1_545 S
C86    H189    1.082   .     S
C87    C88     1.398   .     A
C87    H92     1.082   .     S
C87    C380    1.398   .     S
C88    H93     1.082   .     S
C88    C383    1.398   .     S
C89    H94     1.083   .     S
C89    C676    1.398   1_545 S
H91    C282    1.082   1_455 S
C99    O142    1.272   .     A
C99    O139    1.274   .     A
C99    C108    1.403   .     S
C100   O141    1.272   .     A
C100   O140    1.274   .     A
C100   C107    1.403   .     S
C101   C126    1.428   .     A
C101   C171    1.483   .     S
C101   C1009   1.387   1_554 S
C102   C182    1.483   .     S
C102   C125    1.428   .     A
C102   C1010   1.387   .     S
C103   Br193   1.937   .     S
C103   C108    1.402   .     A
C104   C107    1.402   .     A
C104   Br194   1.937   .     S
C104   C204    1.381   .     S
C105   C107    1.401   .     A
C105   Br195   1.936   .     S
C105   C201    1.381   .     S
C106   Br196   1.936   .     S
C106   C108    1.401   .     A
C109   H133    1.082   .     S
C109   N138    1.365   .     A
C109   C700    1.412   1_545 S
C110   H134    1.082   .     S
C110   N137    1.365   .     A
C110   C405    1.412   .     S
C111   N138    1.365   .     A
C111   H135    1.081   .     S
C111   C698    1.412   1_545 S
C112   N137    1.365   .     A
C112   H136    1.081   .     S
C112   C403    1.412   .     S
C113   O146    1.288   .     A
C113   C118    1.447   .     S
C113   O143    1.281   .     A
C114   O145    1.288   .     A
C114   O144    1.281   .     A
C114   C117    1.447   .     S
C115   C149    1.488   .     S
C115   C125    1.419   .     A
C115   C117    1.419   .     A
C116   C126    1.419   .     A
C116   C160    1.488   .     S
C116   C118    1.419   .     A
C117   C119    1.387   .     A
C118   C120    1.387   .     A
C119   H129    1.086   .     S
C119   C121    1.370   .     A
C120   H130    1.086   .     S
C120   C122    1.370   .     A
C121   C127    1.390   .     A
C121   C123    1.404   .     A
C122   C124    1.404   .     A
C122   C128    1.390   .     A
C123   C125    1.431   .     A
C123   C1006   1.401   .     S
C124   C126    1.431   .     A
C124   C1005   1.401   1_554 S
C127   H131    1.087   .     S
C127   C983    1.387   .     S
C128   H132    1.087   .     S
C128   C984    1.387   1_554 S
N137   Zn147   1.999   .     S
N138   Zn148   1.999   .     S
O139   Zn147   1.982   .     S
O140   Zn148   1.982   .     S
O141   Zn147   1.979   .     S
O142   Zn148   1.979   .     S
O143   Zn147   2.032   .     S
O144   Zn148   2.032   .     S
O145   Zn147   2.014   .     S
O146   Zn148   2.014   .     S
C149   C154    1.406   .     A
C149   C150    1.406   .     A
C150   C151    1.398   .     A
C150   H155    1.083   .     S
C151   C152    1.397   .     A
C151   H744    1.082   1_545 S
C152   C153    1.398   .     A
C152   H745    1.082   1_545 S
C153   C154    1.398   .     A
C153   H158    1.082   .     S
C154   H159    1.081   .     S
H156   C445    1.082   .     S
H157   C446    1.082   .     S
C160   C165    1.406   .     A
C160   C161    1.406   .     A
C161   H166    1.081   .     S
C161   C162    1.398   .     A
C162   H167    1.082   .     S
C162   C163    1.398   .     A
C163   C164    1.397   .     A
C163   H462    1.082   .     S
C164   C165    1.398   .     A
C164   H463    1.082   .     S
C165   H170    1.083   .     S
H168   C751    1.082   1_545 S
H169   C752    1.082   1_545 S
C171   C172    1.406   .     A
C171   C176    1.405   .     A
C172   H177    1.083   .     S
C172   C467    1.398   .     S
C173   H178    1.082   .     S
C173   C174    1.398   .     A
C173   C760    1.398   1_545 S
C174   H179    1.082   .     S
C174   C763    1.398   1_545 S
C175   C176    1.399   .     A
C175   C468    1.398   .     S
C176   H181    1.083   .     S
H180   C273    1.082   .     S
C182   C183    1.405   .     A
C182   C187    1.406   .     A
C183   C184    1.399   .     A
C183   H188    1.083   .     S
C184   C773    1.398   1_545 S
C184   H287    1.082   .     S
C185   C186    1.398   .     A
C185   H190    1.082   .     S
C185   C478    1.398   .     S
C186   H191    1.082   .     S
C186   C481    1.398   .     S
C187   H192    1.083   .     S
C187   C774    1.398   1_545 S
C197   O240    1.272   .     A
C197   O237    1.274   .     A
C197   C206    1.403   .     S
C198   O239    1.272   .     A
C198   O238    1.274   .     A
C198   C205    1.403   .     S
C199   C224    1.428   .     A
C199   C269    1.483   .     S
C199   C1107   1.387   1_554 S
C200   C280    1.483   .     S
C200   C223    1.428   .     A
C200   C1108   1.387   .     S
C201   Br291   1.937   .     S
C201   C206    1.402   .     A
C202   C205    1.402   .     A
C202   Br292   1.937   .     S
C202   C8      1.381   1_655 S
C203   C205    1.401   .     A
C203   Br293   1.936   .     S
C203   C5      1.381   1_655 S
C204   Br294   1.936   .     S
C204   C206    1.401   .     A
C207   H231    1.082   .     S
C207   N236    1.365   .     A
C207   C798    1.412   1_545 S
C208   H232    1.082   .     S
C208   N235    1.365   .     A
C208   C503    1.412   .     S
C209   N236    1.365   .     A
C209   H233    1.081   .     S
C209   C796    1.412   1_545 S
C210   N235    1.365   .     A
C210   H234    1.081   .     S
C210   C501    1.412   .     S
C211   O244    1.288   .     A
C211   C216    1.447   .     S
C211   O241    1.281   .     A
C212   O243    1.288   .     A
C212   O242    1.281   .     A
C212   C215    1.447   .     S
C213   C247    1.488   .     S
C213   C223    1.419   .     A
C213   C215    1.419   .     A
C214   C224    1.419   .     A
C214   C258    1.488   .     S
C214   C216    1.419   .     A
C215   C217    1.387   .     A
C216   C218    1.387   .     A
C217   H227    1.086   .     S
C217   C219    1.370   .     A
C218   H228    1.086   .     S
C218   C220    1.370   .     A
C219   C225    1.390   .     A
C219   C221    1.404   .     A
C220   C222    1.404   .     A
C220   C226    1.390   .     A
C221   C223    1.431   .     A
C221   C1104   1.401   .     S
C222   C224    1.431   .     A
C222   C1103   1.401   1_554 S
C225   H229    1.087   .     S
C225   C1081   1.387   .     S
C226   H230    1.087   .     S
C226   C1082   1.387   1_554 S
N235   Zn245   1.999   .     S
N236   Zn246   1.999   .     S
O237   Zn245   1.982   .     S
O238   Zn246   1.982   .     S
O239   Zn245   1.979   .     S
O240   Zn246   1.979   .     S
O241   Zn245   2.032   .     S
O242   Zn246   2.032   .     S
O243   Zn245   2.014   .     S
O244   Zn246   2.014   .     S
C247   C252    1.406   .     A
C247   C248    1.406   .     A
C248   C249    1.398   .     A
C248   H253    1.083   .     S
C249   C250    1.397   .     A
C249   H842    1.082   1_545 S
C250   C251    1.398   .     A
C250   H843    1.082   1_545 S
C251   C252    1.398   .     A
C251   H256    1.082   .     S
C252   H257    1.081   .     S
H254   C543    1.082   .     S
H255   C544    1.082   .     S
C258   C263    1.406   .     A
C258   C259    1.406   .     A
C259   H264    1.081   .     S
C259   C260    1.398   .     A
C260   H265    1.082   .     S
C260   C261    1.398   .     A
C261   C262    1.397   .     A
C261   H560    1.082   .     S
C262   C263    1.398   .     A
C262   H561    1.082   .     S
C263   H268    1.083   .     S
H266   C849    1.082   1_545 S
H267   C850    1.082   1_545 S
C269   C270    1.406   .     A
C269   C274    1.405   .     A
C270   H275    1.083   .     S
C270   C565    1.398   .     S
C271   H276    1.082   .     S
C271   C272    1.398   .     A
C271   C858    1.398   1_545 S
C272   H277    1.082   .     S
C272   C861    1.398   1_545 S
C273   C274    1.399   .     A
C273   C566    1.398   .     S
C274   H279    1.083   .     S
H278   C77     1.082   1_655 S
C280   C281    1.405   .     A
C280   C285    1.406   .     A
C281   C282    1.399   .     A
C281   H286    1.083   .     S
C282   C871    1.398   1_545 S
C282   H91     1.082   1_655 S
C283   C284    1.398   .     A
C283   H288    1.082   .     S
C283   C576    1.398   .     S
C284   H289    1.082   .     S
C284   C579    1.398   .     S
C285   H290    1.083   .     S
C285   C872    1.398   1_545 S
C295   O338    1.272   .     A
C295   O335    1.274   .     A
C295   C304    1.403   .     S
C296   O337    1.272   .     A
C296   O336    1.274   .     A
C296   C303    1.403   .     S
C297   C322    1.428   .     A
C297   C367    1.483   .     S
C297   C1205   1.387   1_554 S
C298   C378    1.483   .     S
C298   C321    1.428   .     A
C298   C1206   1.387   .     S
C299   Br389   1.937   .     S
C299   C304    1.402   .     A
C299   C497    1.381   1_455 S
C300   C303    1.402   .     A
C300   Br390   1.937   .     S
C300   C400    1.381   .     S
C301   C303    1.401   .     A
C301   Br391   1.936   .     S
C301   C397    1.381   .     S
C302   Br392   1.936   .     S
C302   C304    1.401   .     A
C302   C496    1.381   1_455 S
C305   H329    1.082   .     S
C305   N334    1.365   .     A
C306   H330    1.082   .     S
C306   N333    1.365   .     A
C306   C601    1.412   .     S
C307   N334    1.365   .     A
C307   H331    1.081   .     S
C308   N333    1.365   .     A
C308   H332    1.081   .     S
C308   C599    1.412   .     S
C309   O342    1.288   .     A
C309   C314    1.447   .     S
C309   O339    1.281   .     A
C310   O341    1.288   .     A
C310   O340    1.281   .     A
C310   C313    1.447   .     S
C311   C345    1.488   .     S
C311   C321    1.419   .     A
C311   C313    1.419   .     A
C312   C322    1.419   .     A
C312   C356    1.488   .     S
C312   C314    1.419   .     A
C313   C315    1.387   .     A
C314   C316    1.387   .     A
C315   H325    1.086   .     S
C315   C317    1.370   .     A
C316   H326    1.086   .     S
C316   C318    1.370   .     A
C317   C323    1.390   .     A
C317   C319    1.404   .     A
C318   C320    1.404   .     A
C318   C324    1.390   .     A
C319   C321    1.431   .     A
C319   C1202   1.401   .     S
C320   C322    1.431   .     A
C320   C1201   1.401   1_554 S
C323   H327    1.087   .     S
C323   C1179   1.387   .     S
C324   H328    1.087   .     S
C324   C1180   1.387   1_554 S
N333   Zn343   1.999   .     S
N334   Zn344   1.999   .     S
O335   Zn343   1.982   .     S
O336   Zn344   1.982   .     S
O337   Zn343   1.979   .     S
O338   Zn344   1.979   .     S
O339   Zn343   2.032   .     S
O340   Zn344   2.032   .     S
O341   Zn343   2.014   .     S
O342   Zn344   2.014   .     S
C345   C350    1.406   .     A
C345   C346    1.406   .     A
C346   C347    1.398   .     A
C346   H351    1.083   .     S
C347   C348    1.397   .     A
C348   C349    1.398   .     A
C349   C350    1.398   .     A
C349   H354    1.082   .     S
C350   H355    1.081   .     S
H352   C641    1.082   .     S
H353   C642    1.082   .     S
C356   C361    1.406   .     A
C356   C357    1.406   .     A
C357   H362    1.081   .     S
C357   C358    1.398   .     A
C358   H363    1.082   .     S
C358   C359    1.398   .     A
C359   C360    1.397   .     A
C359   H658    1.082   .     S
C360   C361    1.398   .     A
C360   H659    1.082   .     S
C361   H366    1.083   .     S
C367   C368    1.406   .     A
C367   C372    1.405   .     A
C368   H373    1.083   .     S
C368   C663    1.398   .     S
C369   H374    1.082   .     S
C369   C370    1.398   .     A
C370   H375    1.082   .     S
C371   C372    1.399   .     A
C371   C664    1.398   .     S
C371   H572    1.082   1_455 S
C372   H377    1.083   .     S
H376   C469    1.082   .     S
C378   C379    1.405   .     A
C378   C383    1.406   .     A
C379   C380    1.399   .     A
C379   H384    1.083   .     S
C380   H483    1.082   .     S
C381   C382    1.398   .     A
C381   H386    1.082   .     S
C381   C674    1.398   .     S
C382   H387    1.082   .     S
C382   C677    1.398   .     S
C383   H388    1.083   .     S
H385   C576    1.082   1_455 S
C393   O436    1.272   .     A
C393   O433    1.274   .     A
C393   C402    1.403   .     S
C394   O435    1.272   .     A
C394   O434    1.274   .     A
C394   C401    1.403   .     S
C395   C420    1.428   .     A
C395   C465    1.483   .     S
C395   C1303   1.387   1_554 S
C396   C476    1.483   .     S
C396   C419    1.428   .     A
C396   C1304   1.387   .     S
C397   Br487   1.937   .     S
C397   C402    1.402   .     A
C398   C401    1.402   .     A
C398   Br488   1.937   .     S
C398   C498    1.381   .     S
C399   C401    1.401   .     A
C399   Br489   1.936   .     S
C399   C495    1.381   .     S
C400   Br490   1.936   .     S
C400   C402    1.401   .     A
C403   H427    1.082   .     S
C403   N432    1.365   .     A
C404   H428    1.082   .     S
C404   N431    1.365   .     A
C404   C699    1.412   .     S
C405   N432    1.365   .     A
C405   H429    1.081   .     S
C406   N431    1.365   .     A
C406   H430    1.081   .     S
C406   C697    1.412   .     S
C407   O440    1.288   .     A
C407   C412    1.447   .     S
C407   O437    1.281   .     A
C408   O439    1.288   .     A
C408   O438    1.281   .     A
C408   C411    1.447   .     S
C409   C443    1.488   .     S
C409   C419    1.419   .     A
C409   C411    1.419   .     A
C410   C420    1.419   .     A
C410   C454    1.488   .     S
C410   C412    1.419   .     A
C411   C413    1.387   .     A
C412   C414    1.387   .     A
C413   H423    1.086   .     S
C413   C415    1.370   .     A
C414   H424    1.086   .     S
C414   C416    1.370   .     A
C415   C421    1.390   .     A
C415   C417    1.404   .     A
C416   C418    1.404   .     A
C416   C422    1.390   .     A
C417   C419    1.431   .     A
C417   C1300   1.401   .     S
C418   C420    1.431   .     A
C418   C1299   1.401   1_554 S
C421   H425    1.087   .     S
C421   C1277   1.387   .     S
C422   H426    1.087   .     S
C422   C1278   1.387   1_554 S
N431   Zn441   1.999   .     S
N432   Zn442   1.999   .     S
O433   Zn441   1.982   .     S
O434   Zn442   1.982   .     S
O435   Zn441   1.979   .     S
O436   Zn442   1.979   .     S
O437   Zn441   2.032   .     S
O438   Zn442   2.032   .     S
O439   Zn441   2.014   .     S
O440   Zn442   2.014   .     S
C443   C448    1.406   .     A
C443   C444    1.406   .     A
C444   C445    1.398   .     A
C444   H449    1.083   .     S
C445   C446    1.397   .     A
C446   C447    1.398   .     A
C447   C448    1.398   .     A
C447   H452    1.082   .     S
C448   H453    1.081   .     S
H450   C739    1.082   .     S
H451   C740    1.082   .     S
C454   C459    1.406   .     A
C454   C455    1.406   .     A
C455   H460    1.081   .     S
C455   C456    1.398   .     A
C456   H461    1.082   .     S
C456   C457    1.398   .     A
C457   C458    1.397   .     A
C457   H756    1.082   .     S
C458   C459    1.398   .     A
C458   H757    1.082   .     S
C459   H464    1.083   .     S
C465   C466    1.406   .     A
C465   C470    1.405   .     A
C466   H471    1.083   .     S
C466   C761    1.398   .     S
C467   H472    1.082   .     S
C467   C468    1.398   .     A
C468   H473    1.082   .     S
C469   C470    1.399   .     A
C469   C762    1.398   .     S
C470   H475    1.083   .     S
H474   C567    1.082   .     S
C476   C477    1.405   .     A
C476   C481    1.406   .     A
C477   C478    1.399   .     A
C477   H482    1.083   .     S
C478   H581    1.082   .     S
C479   C480    1.398   .     A
C479   H484    1.082   .     S
C479   C772    1.398   .     S
C480   H485    1.082   .     S
C480   C775    1.398   .     S
C481   H486    1.083   .     S
C491   O534    1.272   .     A
C491   O531    1.274   .     A
C491   C500    1.403   .     S
C492   O533    1.272   .     A
C492   O532    1.274   .     A
C492   C499    1.403   .     S
C493   C518    1.428   .     A
C493   C563    1.483   .     S
C493   C1401   1.387   1_554 S
C494   C574    1.483   .     S
C494   C517    1.428   .     A
C494   C1402   1.387   .     S
C495   Br585   1.937   .     S
C495   C500    1.402   .     A
C496   C499    1.402   .     A
C496   Br586   1.937   .     S
C496   C302    1.381   1_655 S
C497   C499    1.401   .     A
C497   Br587   1.936   .     S
C497   C299    1.381   1_655 S
C498   Br588   1.936   .     S
C498   C500    1.401   .     A
C501   H525    1.082   .     S
C501   N530    1.365   .     A
C502   H526    1.082   .     S
C502   N529    1.365   .     A
C502   C797    1.412   .     S
C503   N530    1.365   .     A
C503   H527    1.081   .     S
C504   N529    1.365   .     A
C504   H528    1.081   .     S
C504   C795    1.412   .     S
C505   O538    1.288   .     A
C505   C510    1.447   .     S
C505   O535    1.281   .     A
C506   O537    1.288   .     A
C506   O536    1.281   .     A
C506   C509    1.447   .     S
C507   C541    1.488   .     S
C507   C517    1.419   .     A
C507   C509    1.419   .     A
C508   C518    1.419   .     A
C508   C552    1.488   .     S
C508   C510    1.419   .     A
C509   C511    1.387   .     A
C510   C512    1.387   .     A
C511   H521    1.086   .     S
C511   C513    1.370   .     A
C512   H522    1.086   .     S
C512   C514    1.370   .     A
C513   C519    1.390   .     A
C513   C515    1.404   .     A
C514   C516    1.404   .     A
C514   C520    1.390   .     A
C515   C517    1.431   .     A
C515   C1398   1.401   .     S
C516   C518    1.431   .     A
C516   C1397   1.401   1_554 S
C519   H523    1.087   .     S
C519   C1375   1.387   .     S
C520   H524    1.087   .     S
C520   C1376   1.387   1_554 S
N529   Zn539   1.999   .     S
N530   Zn540   1.999   .     S
O531   Zn539   1.982   .     S
O532   Zn540   1.982   .     S
O533   Zn539   1.979   .     S
O534   Zn540   1.979   .     S
O535   Zn539   2.032   .     S
O536   Zn540   2.032   .     S
O537   Zn539   2.014   .     S
O538   Zn540   2.014   .     S
C541   C546    1.406   .     A
C541   C542    1.406   .     A
C542   C543    1.398   .     A
C542   H547    1.083   .     S
C543   C544    1.397   .     A
C544   C545    1.398   .     A
C545   C546    1.398   .     A
C545   H550    1.082   .     S
C546   H551    1.081   .     S
H548   C837    1.082   .     S
H549   C838    1.082   .     S
C552   C557    1.406   .     A
C552   C553    1.406   .     A
C553   H558    1.081   .     S
C553   C554    1.398   .     A
C554   H559    1.082   .     S
C554   C555    1.398   .     A
C555   C556    1.397   .     A
C555   H854    1.082   .     S
C556   C557    1.398   .     A
C556   H855    1.082   .     S
C557   H562    1.083   .     S
C563   C564    1.406   .     A
C563   C568    1.405   .     A
C564   H569    1.083   .     S
C564   C859    1.398   .     S
C565   H570    1.082   .     S
C565   C566    1.398   .     A
C566   H571    1.082   .     S
C567   C568    1.399   .     A
C567   C860    1.398   .     S
C568   H573    1.083   .     S
H572   C371    1.082   1_655 S
C574   C575    1.405   .     A
C574   C579    1.406   .     A
C575   C576    1.399   .     A
C575   H580    1.083   .     S
C576   H385    1.082   1_655 S
C577   C578    1.398   .     A
C577   H582    1.082   .     S
C577   C870    1.398   .     S
C578   H583    1.082   .     S
C578   C873    1.398   .     S
C579   H584    1.083   .     S
C589   O632    1.272   .     A
C589   O629    1.274   .     A
C589   C598    1.403   .     S
C590   O631    1.272   .     A
C590   O630    1.274   .     A
C590   C597    1.403   .     S
C591   C616    1.428   .     A
C591   C661    1.483   .     S
C591   C1499   1.387   1_554 S
C592   C672    1.483   .     S
C592   C615    1.428   .     A
C592   C1500   1.387   .     S
C593   Br683   1.937   .     S
C593   C598    1.402   .     A
C593   C791    1.381   1_455 S
C594   C597    1.402   .     A
C594   Br684   1.937   .     S
C594   C694    1.381   .     S
C595   C597    1.401   .     A
C595   Br685   1.936   .     S
C595   C691    1.381   .     S
C596   Br686   1.936   .     S
C596   C598    1.401   .     A
C596   C790    1.381   1_455 S
C599   H623    1.082   .     S
C599   N628    1.365   .     A
C600   H624    1.082   .     S
C600   N627    1.365   .     A
C600   C13     1.412   1_565 S
C601   N628    1.365   .     A
C601   H625    1.081   .     S
C602   N627    1.365   .     A
C602   H626    1.081   .     S
C602   C11     1.412   1_565 S
C603   O636    1.288   .     A
C603   C608    1.447   .     S
C603   O633    1.281   .     A
C604   O635    1.288   .     A
C604   O634    1.281   .     A
C604   C607    1.447   .     S
C605   C639    1.488   .     S
C605   C615    1.419   .     A
C605   C607    1.419   .     A
C606   C616    1.419   .     A
C606   C650    1.488   .     S
C606   C608    1.419   .     A
C607   C609    1.387   .     A
C608   C610    1.387   .     A
C609   H619    1.086   .     S
C609   C611    1.370   .     A
C610   H620    1.086   .     S
C610   C612    1.370   .     A
C611   C617    1.390   .     A
C611   C613    1.404   .     A
C612   C614    1.404   .     A
C612   C618    1.390   .     A
C613   C615    1.431   .     A
C613   C1496   1.401   .     S
C614   C616    1.431   .     A
C614   C1495   1.401   1_554 S
C617   H621    1.087   .     S
C617   C1473   1.387   .     S
C618   H622    1.087   .     S
C618   C1474   1.387   1_554 S
N627   Zn637   1.999   .     S
N628   Zn638   1.999   .     S
O629   Zn637   1.982   .     S
O630   Zn638   1.982   .     S
O631   Zn637   1.979   .     S
O632   Zn638   1.979   .     S
O633   Zn637   2.032   .     S
O634   Zn638   2.032   .     S
O635   Zn637   2.014   .     S
O636   Zn638   2.014   .     S
C639   C644    1.406   .     A
C639   C640    1.406   .     A
C640   C641    1.398   .     A
C640   H645    1.083   .     S
C641   C642    1.397   .     A
C642   C643    1.398   .     A
C643   C644    1.398   .     A
C643   H648    1.082   .     S
C644   H649    1.081   .     S
H646   C53     1.082   1_565 S
H647   C54     1.082   1_565 S
C650   C655    1.406   .     A
C650   C651    1.406   .     A
C651   H656    1.081   .     S
C651   C652    1.398   .     A
C652   H657    1.082   .     S
C652   C653    1.398   .     A
C653   C654    1.397   .     A
C653   H70     1.082   1_565 S
C654   C655    1.398   .     A
C654   H71     1.082   1_565 S
C655   H660    1.083   .     S
C661   C662    1.406   .     A
C661   C666    1.405   .     A
C662   H667    1.083   .     S
C662   C75     1.398   1_565 S
C663   H668    1.082   .     S
C663   C664    1.398   .     A
C664   H669    1.082   .     S
C665   C666    1.399   .     A
C665   C76     1.398   1_565 S
C665   H866    1.082   1_455 S
C666   H671    1.083   .     S
H670   C763    1.082   .     S
C672   C673    1.405   .     A
C672   C677    1.406   .     A
C673   C674    1.399   .     A
C673   H678    1.083   .     S
C674   H777    1.082   .     S
C675   C676    1.398   .     A
C675   H680    1.082   .     S
C675   C86     1.398   1_565 S
C676   H681    1.082   .     S
C676   C89     1.398   1_565 S
C677   H682    1.083   .     S
H679   C870    1.082   1_455 S
C687   O730    1.272   .     A
C687   O727    1.274   .     A
C687   C696    1.403   .     S
C688   O729    1.272   .     A
C688   O728    1.274   .     A
C688   C695    1.403   .     S
C689   C714    1.428   .     A
C689   C759    1.483   .     S
C689   C1597   1.387   1_554 S
C690   C770    1.483   .     S
C690   C713    1.428   .     A
C690   C1598   1.387   .     S
C691   Br781   1.937   .     S
C691   C696    1.402   .     A
C692   C695    1.402   .     A
C692   Br782   1.937   .     S
C692   C792    1.381   .     S
C693   C695    1.401   .     A
C693   Br783   1.936   .     S
C693   C789    1.381   .     S
C694   Br784   1.936   .     S
C694   C696    1.401   .     A
C697   H721    1.082   .     S
C697   N726    1.365   .     A
C698   H722    1.082   .     S
C698   N725    1.365   .     A
C698   C111    1.412   1_565 S
C699   N726    1.365   .     A
C699   H723    1.081   .     S
C700   N725    1.365   .     A
C700   H724    1.081   .     S
C700   C109    1.412   1_565 S
C701   O734    1.288   .     A
C701   C706    1.447   .     S
C701   O731    1.281   .     A
C702   O733    1.288   .     A
C702   O732    1.281   .     A
C702   C705    1.447   .     S
C703   C737    1.488   .     S
C703   C713    1.419   .     A
C703   C705    1.419   .     A
C704   C714    1.419   .     A
C704   C748    1.488   .     S
C704   C706    1.419   .     A
C705   C707    1.387   .     A
C706   C708    1.387   .     A
C707   H717    1.086   .     S
C707   C709    1.370   .     A
C708   H718    1.086   .     S
C708   C710    1.370   .     A
C709   C715    1.390   .     A
C709   C711    1.404   .     A
C710   C712    1.404   .     A
C710   C716    1.390   .     A
C711   C713    1.431   .     A
C711   C1594   1.401   .     S
C712   C714    1.431   .     A
C712   C1593   1.401   1_554 S
C715   H719    1.087   .     S
C715   C1571   1.387   .     S
C716   H720    1.087   .     S
C716   C1572   1.387   1_554 S
N725   Zn735   1.999   .     S
N726   Zn736   1.999   .     S
O727   Zn735   1.982   .     S
O728   Zn736   1.982   .     S
O729   Zn735   1.979   .     S
O730   Zn736   1.979   .     S
O731   Zn735   2.032   .     S
O732   Zn736   2.032   .     S
O733   Zn735   2.014   .     S
O734   Zn736   2.014   .     S
C737   C742    1.406   .     A
C737   C738    1.406   .     A
C738   C739    1.398   .     A
C738   H743    1.083   .     S
C739   C740    1.397   .     A
C740   C741    1.398   .     A
C741   C742    1.398   .     A
C741   H746    1.082   .     S
C742   H747    1.081   .     S
H744   C151    1.082   1_565 S
H745   C152    1.082   1_565 S
C748   C753    1.406   .     A
C748   C749    1.406   .     A
C749   H754    1.081   .     S
C749   C750    1.398   .     A
C750   H755    1.082   .     S
C750   C751    1.398   .     A
C751   C752    1.397   .     A
C751   H168    1.082   1_565 S
C752   C753    1.398   .     A
C752   H169    1.082   1_565 S
C753   H758    1.083   .     S
C759   C760    1.406   .     A
C759   C764    1.405   .     A
C760   H765    1.083   .     S
C760   C173    1.398   1_565 S
C761   H766    1.082   .     S
C761   C762    1.398   .     A
C762   H767    1.082   .     S
C763   C764    1.399   .     A
C763   C174    1.398   1_565 S
C764   H769    1.083   .     S
H768   C861    1.082   .     S
C770   C771    1.405   .     A
C770   C775    1.406   .     A
C771   C772    1.399   .     A
C771   H776    1.083   .     S
C772   H875    1.082   .     S
C773   C774    1.398   .     A
C773   H778    1.082   .     S
C773   C184    1.398   1_565 S
C774   H779    1.082   .     S
C774   C187    1.398   1_565 S
C775   H780    1.083   .     S
C785   O828    1.272   .     A
C785   O825    1.274   .     A
C785   C794    1.403   .     S
C786   O827    1.272   .     A
C786   O826    1.274   .     A
C786   C793    1.403   .     S
C787   C812    1.428   .     A
C787   C857    1.483   .     S
C787   C1695   1.387   1_554 S
C788   C868    1.483   .     S
C788   C811    1.428   .     A
C788   C1696   1.387   .     S
C789   Br879   1.937   .     S
C789   C794    1.402   .     A
C790   C793    1.402   .     A
C790   Br880   1.937   .     S
C790   C596    1.381   1_655 S
C791   C793    1.401   .     A
C791   Br881   1.936   .     S
C791   C593    1.381   1_655 S
C792   Br882   1.936   .     S
C792   C794    1.401   .     A
C795   H819    1.082   .     S
C795   N824    1.365   .     A
C796   H820    1.082   .     S
C796   N823    1.365   .     A
C796   C209    1.412   1_565 S
C797   N824    1.365   .     A
C797   H821    1.081   .     S
C798   N823    1.365   .     A
C798   H822    1.081   .     S
C798   C207    1.412   1_565 S
C799   O832    1.288   .     A
C799   C804    1.447   .     S
C799   O829    1.281   .     A
C800   O831    1.288   .     A
C800   O830    1.281   .     A
C800   C803    1.447   .     S
C801   C835    1.488   .     S
C801   C811    1.419   .     A
C801   C803    1.419   .     A
C802   C812    1.419   .     A
C802   C846    1.488   .     S
C802   C804    1.419   .     A
C803   C805    1.387   .     A
C804   C806    1.387   .     A
C805   H815    1.086   .     S
C805   C807    1.370   .     A
C806   H816    1.086   .     S
C806   C808    1.370   .     A
C807   C813    1.390   .     A
C807   C809    1.404   .     A
C808   C810    1.404   .     A
C808   C814    1.390   .     A
C809   C811    1.431   .     A
C809   C1692   1.401   .     S
C810   C812    1.431   .     A
C810   C1691   1.401   1_554 S
C813   H817    1.087   .     S
C813   C1669   1.387   .     S
C814   H818    1.087   .     S
C814   C1670   1.387   1_554 S
N823   Zn833   1.999   .     S
N824   Zn834   1.999   .     S
O825   Zn833   1.982   .     S
O826   Zn834   1.982   .     S
O827   Zn833   1.979   .     S
O828   Zn834   1.979   .     S
O829   Zn833   2.032   .     S
O830   Zn834   2.032   .     S
O831   Zn833   2.014   .     S
O832   Zn834   2.014   .     S
C835   C840    1.406   .     A
C835   C836    1.406   .     A
C836   C837    1.398   .     A
C836   H841    1.083   .     S
C837   C838    1.397   .     A
C838   C839    1.398   .     A
C839   C840    1.398   .     A
C839   H844    1.082   .     S
C840   H845    1.081   .     S
H842   C249    1.082   1_565 S
H843   C250    1.082   1_565 S
C846   C851    1.406   .     A
C846   C847    1.406   .     A
C847   H852    1.081   .     S
C847   C848    1.398   .     A
C848   H853    1.082   .     S
C848   C849    1.398   .     A
C849   C850    1.397   .     A
C849   H266    1.082   1_565 S
C850   C851    1.398   .     A
C850   H267    1.082   1_565 S
C851   H856    1.083   .     S
C857   C858    1.406   .     A
C857   C862    1.405   .     A
C858   H863    1.083   .     S
C858   C271    1.398   1_565 S
C859   H864    1.082   .     S
C859   C860    1.398   .     A
C860   H865    1.082   .     S
C861   C862    1.399   .     A
C861   C272    1.398   1_565 S
C862   H867    1.083   .     S
H866   C665    1.082   1_655 S
C868   C869    1.405   .     A
C868   C873    1.406   .     A
C869   C870    1.399   .     A
C869   H874    1.083   .     S
C870   H679    1.082   1_655 S
C871   C872    1.398   .     A
C871   H876    1.082   .     S
C871   C282    1.398   1_565 S
C872   H877    1.082   .     S
C872   C285    1.398   1_565 S
C873   H878    1.083   .     S
C883   O926    1.272   .     A
C883   O923    1.274   .     A
C883   C892    1.403   .     S
C884   O925    1.272   .     A
C884   O924    1.274   .     A
C884   C891    1.403   .     S
C885   C910    1.428   .     A
C885   C955    1.483   .     S
C886   C966    1.483   .     S
C886   C909    1.428   .     A
C886   C30     1.387   1_556 S
C887   Br977   1.937   .     S
C887   C892    1.402   .     A
C887   C1085   1.381   1_455 S
C888   C891    1.402   .     A
C888   Br978   1.937   .     S
C888   C988    1.381   .     S
C889   C891    1.401   .     A
C889   Br979   1.936   .     S
C889   C985    1.381   .     S
C890   Br980   1.936   .     S
C890   C892    1.401   .     A
C890   C1084   1.381   1_455 S
C893   H917    1.082   .     S
C893   N922    1.365   .     A
C893   C1484   1.412   1_545 S
C894   H918    1.082   .     S
C894   N921    1.365   .     A
C894   C1189   1.412   .     S
C895   N922    1.365   .     A
C895   H919    1.081   .     S
C895   C1482   1.412   1_545 S
C896   N921    1.365   .     A
C896   H920    1.081   .     S
C896   C1187   1.412   .     S
C897   O930    1.288   .     A
C897   C902    1.447   .     S
C897   O927    1.281   .     A
C898   O929    1.288   .     A
C898   O928    1.281   .     A
C898   C901    1.447   .     S
C899   C933    1.488   .     S
C899   C909    1.419   .     A
C899   C901    1.419   .     A
C900   C910    1.419   .     A
C900   C944    1.488   .     S
C900   C902    1.419   .     A
C901   C903    1.387   .     A
C902   C904    1.387   .     A
C903   H913    1.086   .     S
C903   C905    1.370   .     A
C904   H914    1.086   .     S
C904   C906    1.370   .     A
C905   C911    1.390   .     A
C905   C907    1.404   .     A
C906   C908    1.404   .     A
C906   C912    1.390   .     A
C907   C909    1.431   .     A
C907   C26     1.401   1_556 S
C908   C910    1.431   .     A
C911   H915    1.087   .     S
C911   C3      1.387   1_556 S
C912   H916    1.087   .     S
N921   Zn931   1.999   .     S
N922   Zn932   1.999   .     S
O923   Zn931   1.982   .     S
O924   Zn932   1.982   .     S
O925   Zn931   1.979   .     S
O926   Zn932   1.979   .     S
O927   Zn931   2.032   .     S
O928   Zn932   2.032   .     S
O929   Zn931   2.014   .     S
O930   Zn932   2.014   .     S
C933   C938    1.406   .     A
C933   C934    1.406   .     A
C934   C935    1.398   .     A
C934   H939    1.083   .     S
C935   C936    1.397   .     A
C935   H1528   1.082   1_545 S
C936   C937    1.398   .     A
C936   H1529   1.082   1_545 S
C937   C938    1.398   .     A
C937   H942    1.082   .     S
C938   H943    1.081   .     S
H940   C1229   1.082   .     S
H941   C1230   1.082   .     S
C944   C949    1.406   .     A
C944   C945    1.406   .     A
C945   H950    1.081   .     S
C945   C946    1.398   .     A
C946   H951    1.082   .     S
C946   C947    1.398   .     A
C947   C948    1.397   .     A
C947   H1246   1.082   .     S
C948   C949    1.398   .     A
C948   H1247   1.082   .     S
C949   H954    1.083   .     S
H952   C1535   1.082   1_545 S
H953   C1536   1.082   1_545 S
C955   C956    1.406   .     A
C955   C960    1.405   .     A
C956   H961    1.083   .     S
C956   C1251   1.398   .     S
C957   H962    1.082   .     S
C957   C958    1.398   .     A
C957   C1544   1.398   1_545 S
C958   H963    1.082   .     S
C958   C1547   1.398   1_545 S
C959   C960    1.399   .     A
C959   C1252   1.398   .     S
C959   H1160   1.082   1_455 S
C960   H965    1.083   .     S
H964   C1057   1.082   .     S
C966   C967    1.405   .     A
C966   C971    1.406   .     A
C967   C968    1.399   .     A
C967   H972    1.083   .     S
C968   C1557   1.398   1_545 S
C968   H1071   1.082   .     S
C969   C970    1.398   .     A
C969   H974    1.082   .     S
C969   C1262   1.398   .     S
C970   H975    1.082   .     S
C970   C1265   1.398   .     S
C971   H976    1.083   .     S
C971   C1558   1.398   1_545 S
H973   C1164   1.082   1_455 S
C981   O1024   1.272   .     A
C981   O1021   1.274   .     A
C981   C990    1.403   .     S
C982   O1023   1.272   .     A
C982   O1022   1.274   .     A
C982   C989    1.403   .     S
C983   C1008   1.428   .     A
C983   C1053   1.483   .     S
C984   C1064   1.483   .     S
C984   C1007   1.428   .     A
C984   C128    1.387   1_556 S
C985   Br1075  1.937   .     S
C985   C990    1.402   .     A
C986   C989    1.402   .     A
C986   Br1076  1.937   .     S
C986   C1086   1.381   .     S
C987   C989    1.401   .     A
C987   Br1077  1.936   .     S
C987   C1083   1.381   .     S
C988   Br1078  1.936   .     S
C988   C990    1.401   .     A
C991   H1015   1.082   .     S
C991   N1020   1.365   .     A
C991   C1582   1.412   1_545 S
C992   H1016   1.082   .     S
C992   N1019   1.365   .     A
C992   C1287   1.412   .     S
C993   N1020   1.365   .     A
C993   H1017   1.081   .     S
C993   C1580   1.412   1_545 S
C994   N1019   1.365   .     A
C994   H1018   1.081   .     S
C994   C1285   1.412   .     S
C995   O1028   1.288   .     A
C995   C1000   1.447   .     S
C995   O1025   1.281   .     A
C996   O1027   1.288   .     A
C996   O1026   1.281   .     A
C996   C999    1.447   .     S
C997   C1031   1.488   .     S
C997   C1007   1.419   .     A
C997   C999    1.419   .     A
C998   C1008   1.419   .     A
C998   C1042   1.488   .     S
C998   C1000   1.419   .     A
C999   C1001   1.387   .     A
C1000  C1002   1.387   .     A
C1001  H1011   1.086   .     S
C1001  C1003   1.370   .     A
C1002  H1012   1.086   .     S
C1002  C1004   1.370   .     A
C1003  C1009   1.390   .     A
C1003  C1005   1.404   .     A
C1004  C1006   1.404   .     A
C1004  C1010   1.390   .     A
C1005  C1007   1.431   .     A
C1005  C124    1.401   1_556 S
C1006  C1008   1.431   .     A
C1009  H1013   1.087   .     S
C1009  C101    1.387   1_556 S
C1010  H1014   1.087   .     S
N1019  Zn1029  1.999   .     S
N1020  Zn1030  1.999   .     S
O1021  Zn1029  1.982   .     S
O1022  Zn1030  1.982   .     S
O1023  Zn1029  1.979   .     S
O1024  Zn1030  1.979   .     S
O1025  Zn1029  2.032   .     S
O1026  Zn1030  2.032   .     S
O1027  Zn1029  2.014   .     S
O1028  Zn1030  2.014   .     S
C1031  C1036   1.406   .     A
C1031  C1032   1.406   .     A
C1032  C1033   1.398   .     A
C1032  H1037   1.083   .     S
C1033  C1034   1.397   .     A
C1033  H1626   1.082   1_545 S
C1034  C1035   1.398   .     A
C1034  H1627   1.082   1_545 S
C1035  C1036   1.398   .     A
C1035  H1040   1.082   .     S
C1036  H1041   1.081   .     S
H1038  C1327   1.082   .     S
H1039  C1328   1.082   .     S
C1042  C1047   1.406   .     A
C1042  C1043   1.406   .     A
C1043  H1048   1.081   .     S
C1043  C1044   1.398   .     A
C1044  H1049   1.082   .     S
C1044  C1045   1.398   .     A
C1045  C1046   1.397   .     A
C1045  H1344   1.082   .     S
C1046  C1047   1.398   .     A
C1046  H1345   1.082   .     S
C1047  H1052   1.083   .     S
H1050  C1633   1.082   1_545 S
H1051  C1634   1.082   1_545 S
C1053  C1054   1.406   .     A
C1053  C1058   1.405   .     A
C1054  H1059   1.083   .     S
C1054  C1349   1.398   .     S
C1055  H1060   1.082   .     S
C1055  C1056   1.398   .     A
C1055  C1642   1.398   1_545 S
C1056  H1061   1.082   .     S
C1056  C1645   1.398   1_545 S
C1057  C1058   1.399   .     A
C1057  C1350   1.398   .     S
C1058  H1063   1.083   .     S
H1062  C1155   1.082   .     S
C1064  C1065   1.405   .     A
C1064  C1069   1.406   .     A
C1065  C1066   1.399   .     A
C1065  H1070   1.083   .     S
C1066  C1655   1.398   1_545 S
C1066  H1169   1.082   .     S
C1067  C1068   1.398   .     A
C1067  H1072   1.082   .     S
C1067  C1360   1.398   .     S
C1068  H1073   1.082   .     S
C1068  C1363   1.398   .     S
C1069  H1074   1.083   .     S
C1069  C1656   1.398   1_545 S
C1079  O1122   1.272   .     A
C1079  O1119   1.274   .     A
C1079  C1088   1.403   .     S
C1080  O1121   1.272   .     A
C1080  O1120   1.274   .     A
C1080  C1087   1.403   .     S
C1081  C1106   1.428   .     A
C1081  C1151   1.483   .     S
C1082  C1162   1.483   .     S
C1082  C1105   1.428   .     A
C1082  C226    1.387   1_556 S
C1083  Br1173  1.937   .     S
C1083  C1088   1.402   .     A
C1084  C1087   1.402   .     A
C1084  Br1174  1.937   .     S
C1084  C890    1.381   1_655 S
C1085  C1087   1.401   .     A
C1085  Br1175  1.936   .     S
C1085  C887    1.381   1_655 S
C1086  Br1176  1.936   .     S
C1086  C1088   1.401   .     A
C1089  H1113   1.082   .     S
C1089  N1118   1.365   .     A
C1089  C1680   1.412   1_545 S
C1090  H1114   1.082   .     S
C1090  N1117   1.365   .     A
C1090  C1385   1.412   .     S
C1091  N1118   1.365   .     A
C1091  H1115   1.081   .     S
C1091  C1678   1.412   1_545 S
C1092  N1117   1.365   .     A
C1092  H1116   1.081   .     S
C1092  C1383   1.412   .     S
C1093  O1126   1.288   .     A
C1093  C1098   1.447   .     S
C1093  O1123   1.281   .     A
C1094  O1125   1.288   .     A
C1094  O1124   1.281   .     A
C1094  C1097   1.447   .     S
C1095  C1129   1.488   .     S
C1095  C1105   1.419   .     A
C1095  C1097   1.419   .     A
C1096  C1106   1.419   .     A
C1096  C1140   1.488   .     S
C1096  C1098   1.419   .     A
C1097  C1099   1.387   .     A
C1098  C1100   1.387   .     A
C1099  H1109   1.086   .     S
C1099  C1101   1.370   .     A
C1100  H1110   1.086   .     S
C1100  C1102   1.370   .     A
C1101  C1107   1.390   .     A
C1101  C1103   1.404   .     A
C1102  C1104   1.404   .     A
C1102  C1108   1.390   .     A
C1103  C1105   1.431   .     A
C1103  C222    1.401   1_556 S
C1104  C1106   1.431   .     A
C1107  H1111   1.087   .     S
C1107  C199    1.387   1_556 S
C1108  H1112   1.087   .     S
N1117  Zn1127  1.999   .     S
N1118  Zn1128  1.999   .     S
O1119  Zn1127  1.982   .     S
O1120  Zn1128  1.982   .     S
O1121  Zn1127  1.979   .     S
O1122  Zn1128  1.979   .     S
O1123  Zn1127  2.032   .     S
O1124  Zn1128  2.032   .     S
O1125  Zn1127  2.014   .     S
O1126  Zn1128  2.014   .     S
C1129  C1134   1.406   .     A
C1129  C1130   1.406   .     A
C1130  C1131   1.398   .     A
C1130  H1135   1.083   .     S
C1131  C1132   1.397   .     A
C1131  H1724   1.082   1_545 S
C1132  C1133   1.398   .     A
C1132  H1725   1.082   1_545 S
C1133  C1134   1.398   .     A
C1133  H1138   1.082   .     S
C1134  H1139   1.081   .     S
H1136  C1425   1.082   .     S
H1137  C1426   1.082   .     S
C1140  C1145   1.406   .     A
C1140  C1141   1.406   .     A
C1141  H1146   1.081   .     S
C1141  C1142   1.398   .     A
C1142  H1147   1.082   .     S
C1142  C1143   1.398   .     A
C1143  C1144   1.397   .     A
C1143  H1442   1.082   .     S
C1144  C1145   1.398   .     A
C1144  H1443   1.082   .     S
C1145  H1150   1.083   .     S
H1148  C1731   1.082   1_545 S
H1149  C1732   1.082   1_545 S
C1151  C1152   1.406   .     A
C1151  C1156   1.405   .     A
C1152  H1157   1.083   .     S
C1152  C1447   1.398   .     S
C1153  H1158   1.082   .     S
C1153  C1154   1.398   .     A
C1153  C1740   1.398   1_545 S
C1154  H1159   1.082   .     S
C1154  C1743   1.398   1_545 S
C1155  C1156   1.399   .     A
C1155  C1448   1.398   .     S
C1156  H1161   1.083   .     S
H1160  C959    1.082   1_655 S
C1162  C1163   1.405   .     A
C1162  C1167   1.406   .     A
C1163  C1164   1.399   .     A
C1163  H1168   1.083   .     S
C1164  C1753   1.398   1_545 S
C1164  H973    1.082   1_655 S
C1165  C1166   1.398   .     A
C1165  H1170   1.082   .     S
C1165  C1458   1.398   .     S
C1166  H1171   1.082   .     S
C1166  C1461   1.398   .     S
C1167  H1172   1.083   .     S
C1167  C1754   1.398   1_545 S
C1177  O1220   1.272   .     A
C1177  O1217   1.274   .     A
C1177  C1186   1.403   .     S
C1178  O1219   1.272   .     A
C1178  O1218   1.274   .     A
C1178  C1185   1.403   .     S
C1179  C1204   1.428   .     A
C1179  C1249   1.483   .     S
C1180  C1260   1.483   .     S
C1180  C1203   1.428   .     A
C1180  C324    1.387   1_556 S
C1181  Br1271  1.937   .     S
C1181  C1186   1.402   .     A
C1181  C1379   1.381   1_455 S
C1182  C1185   1.402   .     A
C1182  Br1272  1.937   .     S
C1182  C1282   1.381   .     S
C1183  C1185   1.401   .     A
C1183  Br1273  1.936   .     S
C1183  C1279   1.381   .     S
C1184  Br1274  1.936   .     S
C1184  C1186   1.401   .     A
C1184  C1378   1.381   1_455 S
C1187  H1211   1.082   .     S
C1187  N1216   1.365   .     A
C1188  H1212   1.082   .     S
C1188  N1215   1.365   .     A
C1188  C1483   1.412   .     S
C1189  N1216   1.365   .     A
C1189  H1213   1.081   .     S
C1190  N1215   1.365   .     A
C1190  H1214   1.081   .     S
C1190  C1481   1.412   .     S
C1191  O1224   1.288   .     A
C1191  C1196   1.447   .     S
C1191  O1221   1.281   .     A
C1192  O1223   1.288   .     A
C1192  O1222   1.281   .     A
C1192  C1195   1.447   .     S
C1193  C1227   1.488   .     S
C1193  C1203   1.419   .     A
C1193  C1195   1.419   .     A
C1194  C1204   1.419   .     A
C1194  C1238   1.488   .     S
C1194  C1196   1.419   .     A
C1195  C1197   1.387   .     A
C1196  C1198   1.387   .     A
C1197  H1207   1.086   .     S
C1197  C1199   1.370   .     A
C1198  H1208   1.086   .     S
C1198  C1200   1.370   .     A
C1199  C1205   1.390   .     A
C1199  C1201   1.404   .     A
C1200  C1202   1.404   .     A
C1200  C1206   1.390   .     A
C1201  C1203   1.431   .     A
C1201  C320    1.401   1_556 S
C1202  C1204   1.431   .     A
C1205  H1209   1.087   .     S
C1205  C297    1.387   1_556 S
C1206  H1210   1.087   .     S
N1215  Zn1225  1.999   .     S
N1216  Zn1226  1.999   .     S
O1217  Zn1225  1.982   .     S
O1218  Zn1226  1.982   .     S
O1219  Zn1225  1.979   .     S
O1220  Zn1226  1.979   .     S
O1221  Zn1225  2.032   .     S
O1222  Zn1226  2.032   .     S
O1223  Zn1225  2.014   .     S
O1224  Zn1226  2.014   .     S
C1227  C1232   1.406   .     A
C1227  C1228   1.406   .     A
C1228  C1229   1.398   .     A
C1228  H1233   1.083   .     S
C1229  C1230   1.397   .     A
C1230  C1231   1.398   .     A
C1231  C1232   1.398   .     A
C1231  H1236   1.082   .     S
C1232  H1237   1.081   .     S
H1234  C1523   1.082   .     S
H1235  C1524   1.082   .     S
C1238  C1243   1.406   .     A
C1238  C1239   1.406   .     A
C1239  H1244   1.081   .     S
C1239  C1240   1.398   .     A
C1240  H1245   1.082   .     S
C1240  C1241   1.398   .     A
C1241  C1242   1.397   .     A
C1241  H1540   1.082   .     S
C1242  C1243   1.398   .     A
C1242  H1541   1.082   .     S
C1243  H1248   1.083   .     S
C1249  C1250   1.406   .     A
C1249  C1254   1.405   .     A
C1250  H1255   1.083   .     S
C1250  C1545   1.398   .     S
C1251  H1256   1.082   .     S
C1251  C1252   1.398   .     A
C1252  H1257   1.082   .     S
C1253  C1254   1.399   .     A
C1253  C1546   1.398   .     S
C1253  H1454   1.082   1_455 S
C1254  H1259   1.083   .     S
H1258  C1351   1.082   .     S
C1260  C1261   1.405   .     A
C1260  C1265   1.406   .     A
C1261  C1262   1.399   .     A
C1261  H1266   1.083   .     S
C1262  H1365   1.082   .     S
C1263  C1264   1.398   .     A
C1263  H1268   1.082   .     S
C1263  C1556   1.398   .     S
C1264  H1269   1.082   .     S
C1264  C1559   1.398   .     S
C1265  H1270   1.083   .     S
H1267  C1458   1.082   1_455 S
C1275  O1318   1.272   .     A
C1275  O1315   1.274   .     A
C1275  C1284   1.403   .     S
C1276  O1317   1.272   .     A
C1276  O1316   1.274   .     A
C1276  C1283   1.403   .     S
C1277  C1302   1.428   .     A
C1277  C1347   1.483   .     S
C1278  C1358   1.483   .     S
C1278  C1301   1.428   .     A
C1278  C422    1.387   1_556 S
C1279  Br1369  1.937   .     S
C1279  C1284   1.402   .     A
C1280  C1283   1.402   .     A
C1280  Br1370  1.937   .     S
C1280  C1380   1.381   .     S
C1281  C1283   1.401   .     A
C1281  Br1371  1.936   .     S
C1281  C1377   1.381   .     S
C1282  Br1372  1.936   .     S
C1282  C1284   1.401   .     A
C1285  H1309   1.082   .     S
C1285  N1314   1.365   .     A
C1286  H1310   1.082   .     S
C1286  N1313   1.365   .     A
C1286  C1581   1.412   .     S
C1287  N1314   1.365   .     A
C1287  H1311   1.081   .     S
C1288  N1313   1.365   .     A
C1288  H1312   1.081   .     S
C1288  C1579   1.412   .     S
C1289  O1322   1.288   .     A
C1289  C1294   1.447   .     S
C1289  O1319   1.281   .     A
C1290  O1321   1.288   .     A
C1290  O1320   1.281   .     A
C1290  C1293   1.447   .     S
C1291  C1325   1.488   .     S
C1291  C1301   1.419   .     A
C1291  C1293   1.419   .     A
C1292  C1302   1.419   .     A
C1292  C1336   1.488   .     S
C1292  C1294   1.419   .     A
C1293  C1295   1.387   .     A
C1294  C1296   1.387   .     A
C1295  H1305   1.086   .     S
C1295  C1297   1.370   .     A
C1296  H1306   1.086   .     S
C1296  C1298   1.370   .     A
C1297  C1303   1.390   .     A
C1297  C1299   1.404   .     A
C1298  C1300   1.404   .     A
C1298  C1304   1.390   .     A
C1299  C1301   1.431   .     A
C1299  C418    1.401   1_556 S
C1300  C1302   1.431   .     A
C1303  H1307   1.087   .     S
C1303  C395    1.387   1_556 S
C1304  H1308   1.087   .     S
N1313  Zn1323  1.999   .     S
N1314  Zn1324  1.999   .     S
O1315  Zn1323  1.982   .     S
O1316  Zn1324  1.982   .     S
O1317  Zn1323  1.979   .     S
O1318  Zn1324  1.979   .     S
O1319  Zn1323  2.032   .     S
O1320  Zn1324  2.032   .     S
O1321  Zn1323  2.014   .     S
O1322  Zn1324  2.014   .     S
C1325  C1330   1.406   .     A
C1325  C1326   1.406   .     A
C1326  C1327   1.398   .     A
C1326  H1331   1.083   .     S
C1327  C1328   1.397   .     A
C1328  C1329   1.398   .     A
C1329  C1330   1.398   .     A
C1329  H1334   1.082   .     S
C1330  H1335   1.081   .     S
H1332  C1621   1.082   .     S
H1333  C1622   1.082   .     S
C1336  C1341   1.406   .     A
C1336  C1337   1.406   .     A
C1337  H1342   1.081   .     S
C1337  C1338   1.398   .     A
C1338  H1343   1.082   .     S
C1338  C1339   1.398   .     A
C1339  C1340   1.397   .     A
C1339  H1638   1.082   .     S
C1340  C1341   1.398   .     A
C1340  H1639   1.082   .     S
C1341  H1346   1.083   .     S
C1347  C1348   1.406   .     A
C1347  C1352   1.405   .     A
C1348  H1353   1.083   .     S
C1348  C1643   1.398   .     S
C1349  H1354   1.082   .     S
C1349  C1350   1.398   .     A
C1350  H1355   1.082   .     S
C1351  C1352   1.399   .     A
C1351  C1644   1.398   .     S
C1352  H1357   1.083   .     S
H1356  C1449   1.082   .     S
C1358  C1359   1.405   .     A
C1358  C1363   1.406   .     A
C1359  C1360   1.399   .     A
C1359  H1364   1.083   .     S
C1360  H1463   1.082   .     S
C1361  C1362   1.398   .     A
C1361  H1366   1.082   .     S
C1361  C1654   1.398   .     S
C1362  H1367   1.082   .     S
C1362  C1657   1.398   .     S
C1363  H1368   1.083   .     S
C1373  O1416   1.272   .     A
C1373  O1413   1.274   .     A
C1373  C1382   1.403   .     S
C1374  O1415   1.272   .     A
C1374  O1414   1.274   .     A
C1374  C1381   1.403   .     S
C1375  C1400   1.428   .     A
C1375  C1445   1.483   .     S
C1376  C1456   1.483   .     S
C1376  C1399   1.428   .     A
C1376  C520    1.387   1_556 S
C1377  Br1467  1.937   .     S
C1377  C1382   1.402   .     A
C1378  C1381   1.402   .     A
C1378  Br1468  1.937   .     S
C1378  C1184   1.381   1_655 S
C1379  C1381   1.401   .     A
C1379  Br1469  1.936   .     S
C1379  C1181   1.381   1_655 S
C1380  Br1470  1.936   .     S
C1380  C1382   1.401   .     A
C1383  H1407   1.082   .     S
C1383  N1412   1.365   .     A
C1384  H1408   1.082   .     S
C1384  N1411   1.365   .     A
C1384  C1679   1.412   .     S
C1385  N1412   1.365   .     A
C1385  H1409   1.081   .     S
C1386  N1411   1.365   .     A
C1386  H1410   1.081   .     S
C1386  C1677   1.412   .     S
C1387  O1420   1.288   .     A
C1387  C1392   1.447   .     S
C1387  O1417   1.281   .     A
C1388  O1419   1.288   .     A
C1388  O1418   1.281   .     A
C1388  C1391   1.447   .     S
C1389  C1423   1.488   .     S
C1389  C1399   1.419   .     A
C1389  C1391   1.419   .     A
C1390  C1400   1.419   .     A
C1390  C1434   1.488   .     S
C1390  C1392   1.419   .     A
C1391  C1393   1.387   .     A
C1392  C1394   1.387   .     A
C1393  H1403   1.086   .     S
C1393  C1395   1.370   .     A
C1394  H1404   1.086   .     S
C1394  C1396   1.370   .     A
C1395  C1401   1.390   .     A
C1395  C1397   1.404   .     A
C1396  C1398   1.404   .     A
C1396  C1402   1.390   .     A
C1397  C1399   1.431   .     A
C1397  C516    1.401   1_556 S
C1398  C1400   1.431   .     A
C1401  H1405   1.087   .     S
C1401  C493    1.387   1_556 S
C1402  H1406   1.087   .     S
N1411  Zn1421  1.999   .     S
N1412  Zn1422  1.999   .     S
O1413  Zn1421  1.982   .     S
O1414  Zn1422  1.982   .     S
O1415  Zn1421  1.979   .     S
O1416  Zn1422  1.979   .     S
O1417  Zn1421  2.032   .     S
O1418  Zn1422  2.032   .     S
O1419  Zn1421  2.014   .     S
O1420  Zn1422  2.014   .     S
C1423  C1428   1.406   .     A
C1423  C1424   1.406   .     A
C1424  C1425   1.398   .     A
C1424  H1429   1.083   .     S
C1425  C1426   1.397   .     A
C1426  C1427   1.398   .     A
C1427  C1428   1.398   .     A
C1427  H1432   1.082   .     S
C1428  H1433   1.081   .     S
H1430  C1719   1.082   .     S
H1431  C1720   1.082   .     S
C1434  C1439   1.406   .     A
C1434  C1435   1.406   .     A
C1435  H1440   1.081   .     S
C1435  C1436   1.398   .     A
C1436  H1441   1.082   .     S
C1436  C1437   1.398   .     A
C1437  C1438   1.397   .     A
C1437  H1736   1.082   .     S
C1438  C1439   1.398   .     A
C1438  H1737   1.082   .     S
C1439  H1444   1.083   .     S
C1445  C1446   1.406   .     A
C1445  C1450   1.405   .     A
C1446  H1451   1.083   .     S
C1446  C1741   1.398   .     S
C1447  H1452   1.082   .     S
C1447  C1448   1.398   .     A
C1448  H1453   1.082   .     S
C1449  C1450   1.399   .     A
C1449  C1742   1.398   .     S
C1450  H1455   1.083   .     S
H1454  C1253   1.082   1_655 S
C1456  C1457   1.405   .     A
C1456  C1461   1.406   .     A
C1457  C1458   1.399   .     A
C1457  H1462   1.083   .     S
C1458  H1267   1.082   1_655 S
C1459  C1460   1.398   .     A
C1459  H1464   1.082   .     S
C1459  C1752   1.398   .     S
C1460  H1465   1.082   .     S
C1460  C1755   1.398   .     S
C1461  H1466   1.083   .     S
C1471  O1514   1.272   .     A
C1471  O1511   1.274   .     A
C1471  C1480   1.403   .     S
C1472  O1513   1.272   .     A
C1472  O1512   1.274   .     A
C1472  C1479   1.403   .     S
C1473  C1498   1.428   .     A
C1473  C1543   1.483   .     S
C1474  C1554   1.483   .     S
C1474  C1497   1.428   .     A
C1474  C618    1.387   1_556 S
C1475  Br1565  1.937   .     S
C1475  C1480   1.402   .     A
C1475  C1673   1.381   1_455 S
C1476  C1479   1.402   .     A
C1476  Br1566  1.937   .     S
C1476  C1576   1.381   .     S
C1477  C1479   1.401   .     A
C1477  Br1567  1.936   .     S
C1477  C1573   1.381   .     S
C1478  Br1568  1.936   .     S
C1478  C1480   1.401   .     A
C1478  C1672   1.381   1_455 S
C1481  H1505   1.082   .     S
C1481  N1510   1.365   .     A
C1482  H1506   1.082   .     S
C1482  N1509   1.365   .     A
C1482  C895    1.412   1_565 S
C1483  N1510   1.365   .     A
C1483  H1507   1.081   .     S
C1484  N1509   1.365   .     A
C1484  H1508   1.081   .     S
C1484  C893    1.412   1_565 S
C1485  O1518   1.288   .     A
C1485  C1490   1.447   .     S
C1485  O1515   1.281   .     A
C1486  O1517   1.288   .     A
C1486  O1516   1.281   .     A
C1486  C1489   1.447   .     S
C1487  C1521   1.488   .     S
C1487  C1497   1.419   .     A
C1487  C1489   1.419   .     A
C1488  C1498   1.419   .     A
C1488  C1532   1.488   .     S
C1488  C1490   1.419   .     A
C1489  C1491   1.387   .     A
C1490  C1492   1.387   .     A
C1491  H1501   1.086   .     S
C1491  C1493   1.370   .     A
C1492  H1502   1.086   .     S
C1492  C1494   1.370   .     A
C1493  C1499   1.390   .     A
C1493  C1495   1.404   .     A
C1494  C1496   1.404   .     A
C1494  C1500   1.390   .     A
C1495  C1497   1.431   .     A
C1495  C614    1.401   1_556 S
C1496  C1498   1.431   .     A
C1499  H1503   1.087   .     S
C1499  C591    1.387   1_556 S
C1500  H1504   1.087   .     S
N1509  Zn1519  1.999   .     S
N1510  Zn1520  1.999   .     S
O1511  Zn1519  1.982   .     S
O1512  Zn1520  1.982   .     S
O1513  Zn1519  1.979   .     S
O1514  Zn1520  1.979   .     S
O1515  Zn1519  2.032   .     S
O1516  Zn1520  2.032   .     S
O1517  Zn1519  2.014   .     S
O1518  Zn1520  2.014   .     S
C1521  C1526   1.406   .     A
C1521  C1522   1.406   .     A
C1522  C1523   1.398   .     A
C1522  H1527   1.083   .     S
C1523  C1524   1.397   .     A
C1524  C1525   1.398   .     A
C1525  C1526   1.398   .     A
C1525  H1530   1.082   .     S
C1526  H1531   1.081   .     S
H1528  C935    1.082   1_565 S
H1529  C936    1.082   1_565 S
C1532  C1537   1.406   .     A
C1532  C1533   1.406   .     A
C1533  H1538   1.081   .     S
C1533  C1534   1.398   .     A
C1534  H1539   1.082   .     S
C1534  C1535   1.398   .     A
C1535  C1536   1.397   .     A
C1535  H952    1.082   1_565 S
C1536  C1537   1.398   .     A
C1536  H953    1.082   1_565 S
C1537  H1542   1.083   .     S
C1543  C1544   1.406   .     A
C1543  C1548   1.405   .     A
C1544  H1549   1.083   .     S
C1544  C957    1.398   1_565 S
C1545  H1550   1.082   .     S
C1545  C1546   1.398   .     A
C1546  H1551   1.082   .     S
C1547  C1548   1.399   .     A
C1547  C958    1.398   1_565 S
C1547  H1748   1.082   1_455 S
C1548  H1553   1.083   .     S
H1552  C1645   1.082   .     S
C1554  C1555   1.405   .     A
C1554  C1559   1.406   .     A
C1555  C1556   1.399   .     A
C1555  H1560   1.083   .     S
C1556  H1659   1.082   .     S
C1557  C1558   1.398   .     A
C1557  H1562   1.082   .     S
C1557  C968    1.398   1_565 S
C1558  H1563   1.082   .     S
C1558  C971    1.398   1_565 S
C1559  H1564   1.083   .     S
H1561  C1752   1.082   1_455 S
C1569  O1612   1.272   .     A
C1569  O1609   1.274   .     A
C1569  C1578   1.403   .     S
C1570  O1611   1.272   .     A
C1570  O1610   1.274   .     A
C1570  C1577   1.403   .     S
C1571  C1596   1.428   .     A
C1571  C1641   1.483   .     S
C1572  C1652   1.483   .     S
C1572  C1595   1.428   .     A
C1572  C716    1.387   1_556 S
C1573  Br1663  1.937   .     S
C1573  C1578   1.402   .     A
C1574  C1577   1.402   .     A
C1574  Br1664  1.937   .     S
C1574  C1674   1.381   .     S
C1575  C1577   1.401   .     A
C1575  Br1665  1.936   .     S
C1575  C1671   1.381   .     S
C1576  Br1666  1.936   .     S
C1576  C1578   1.401   .     A
C1579  H1603   1.082   .     S
C1579  N1608   1.365   .     A
C1580  H1604   1.082   .     S
C1580  N1607   1.365   .     A
C1580  C993    1.412   1_565 S
C1581  N1608   1.365   .     A
C1581  H1605   1.081   .     S
C1582  N1607   1.365   .     A
C1582  H1606   1.081   .     S
C1582  C991    1.412   1_565 S
C1583  O1616   1.288   .     A
C1583  C1588   1.447   .     S
C1583  O1613   1.281   .     A
C1584  O1615   1.288   .     A
C1584  O1614   1.281   .     A
C1584  C1587   1.447   .     S
C1585  C1619   1.488   .     S
C1585  C1595   1.419   .     A
C1585  C1587   1.419   .     A
C1586  C1596   1.419   .     A
C1586  C1630   1.488   .     S
C1586  C1588   1.419   .     A
C1587  C1589   1.387   .     A
C1588  C1590   1.387   .     A
C1589  H1599   1.086   .     S
C1589  C1591   1.370   .     A
C1590  H1600   1.086   .     S
C1590  C1592   1.370   .     A
C1591  C1597   1.390   .     A
C1591  C1593   1.404   .     A
C1592  C1594   1.404   .     A
C1592  C1598   1.390   .     A
C1593  C1595   1.431   .     A
C1593  C712    1.401   1_556 S
C1594  C1596   1.431   .     A
C1597  H1601   1.087   .     S
C1597  C689    1.387   1_556 S
C1598  H1602   1.087   .     S
N1607  Zn1617  1.999   .     S
N1608  Zn1618  1.999   .     S
O1609  Zn1617  1.982   .     S
O1610  Zn1618  1.982   .     S
O1611  Zn1617  1.979   .     S
O1612  Zn1618  1.979   .     S
O1613  Zn1617  2.032   .     S
O1614  Zn1618  2.032   .     S
O1615  Zn1617  2.014   .     S
O1616  Zn1618  2.014   .     S
C1619  C1624   1.406   .     A
C1619  C1620   1.406   .     A
C1620  C1621   1.398   .     A
C1620  H1625   1.083   .     S
C1621  C1622   1.397   .     A
C1622  C1623   1.398   .     A
C1623  C1624   1.398   .     A
C1623  H1628   1.082   .     S
C1624  H1629   1.081   .     S
H1626  C1033   1.082   1_565 S
H1627  C1034   1.082   1_565 S
C1630  C1635   1.406   .     A
C1630  C1631   1.406   .     A
C1631  H1636   1.081   .     S
C1631  C1632   1.398   .     A
C1632  H1637   1.082   .     S
C1632  C1633   1.398   .     A
C1633  C1634   1.397   .     A
C1633  H1050   1.082   1_565 S
C1634  C1635   1.398   .     A
C1634  H1051   1.082   1_565 S
C1635  H1640   1.083   .     S
C1641  C1642   1.406   .     A
C1641  C1646   1.405   .     A
C1642  H1647   1.083   .     S
C1642  C1055   1.398   1_565 S
C1643  H1648   1.082   .     S
C1643  C1644   1.398   .     A
C1644  H1649   1.082   .     S
C1645  C1646   1.399   .     A
C1645  C1056   1.398   1_565 S
C1646  H1651   1.083   .     S
H1650  C1743   1.082   .     S
C1652  C1653   1.405   .     A
C1652  C1657   1.406   .     A
C1653  C1654   1.399   .     A
C1653  H1658   1.083   .     S
C1654  H1757   1.082   .     S
C1655  C1656   1.398   .     A
C1655  H1660   1.082   .     S
C1655  C1066   1.398   1_565 S
C1656  H1661   1.082   .     S
C1656  C1069   1.398   1_565 S
C1657  H1662   1.083   .     S
C1667  O1710   1.272   .     A
C1667  O1707   1.274   .     A
C1667  C1676   1.403   .     S
C1668  O1709   1.272   .     A
C1668  O1708   1.274   .     A
C1668  C1675   1.403   .     S
C1669  C1694   1.428   .     A
C1669  C1739   1.483   .     S
C1670  C1750   1.483   .     S
C1670  C1693   1.428   .     A
C1670  C814    1.387   1_556 S
C1671  Br1761  1.937   .     S
C1671  C1676   1.402   .     A
C1672  C1675   1.402   .     A
C1672  Br1762  1.937   .     S
C1672  C1478   1.381   1_655 S
C1673  C1675   1.401   .     A
C1673  Br1763  1.936   .     S
C1673  C1475   1.381   1_655 S
C1674  Br1764  1.936   .     S
C1674  C1676   1.401   .     A
C1677  H1701   1.082   .     S
C1677  N1706   1.365   .     A
C1678  H1702   1.082   .     S
C1678  N1705   1.365   .     A
C1678  C1091   1.412   1_565 S
C1679  N1706   1.365   .     A
C1679  H1703   1.081   .     S
C1680  N1705   1.365   .     A
C1680  H1704   1.081   .     S
C1680  C1089   1.412   1_565 S
C1681  O1714   1.288   .     A
C1681  C1686   1.447   .     S
C1681  O1711   1.281   .     A
C1682  O1713   1.288   .     A
C1682  O1712   1.281   .     A
C1682  C1685   1.447   .     S
C1683  C1717   1.488   .     S
C1683  C1693   1.419   .     A
C1683  C1685   1.419   .     A
C1684  C1694   1.419   .     A
C1684  C1728   1.488   .     S
C1684  C1686   1.419   .     A
C1685  C1687   1.387   .     A
C1686  C1688   1.387   .     A
C1687  H1697   1.086   .     S
C1687  C1689   1.370   .     A
C1688  H1698   1.086   .     S
C1688  C1690   1.370   .     A
C1689  C1695   1.390   .     A
C1689  C1691   1.404   .     A
C1690  C1692   1.404   .     A
C1690  C1696   1.390   .     A
C1691  C1693   1.431   .     A
C1691  C810    1.401   1_556 S
C1692  C1694   1.431   .     A
C1695  H1699   1.087   .     S
C1695  C787    1.387   1_556 S
C1696  H1700   1.087   .     S
N1705  Zn1715  1.999   .     S
N1706  Zn1716  1.999   .     S
O1707  Zn1715  1.982   .     S
O1708  Zn1716  1.982   .     S
O1709  Zn1715  1.979   .     S
O1710  Zn1716  1.979   .     S
O1711  Zn1715  2.032   .     S
O1712  Zn1716  2.032   .     S
O1713  Zn1715  2.014   .     S
O1714  Zn1716  2.014   .     S
C1717  C1722   1.406   .     A
C1717  C1718   1.406   .     A
C1718  C1719   1.398   .     A
C1718  H1723   1.083   .     S
C1719  C1720   1.397   .     A
C1720  C1721   1.398   .     A
C1721  C1722   1.398   .     A
C1721  H1726   1.082   .     S
C1722  H1727   1.081   .     S
H1724  C1131   1.082   1_565 S
H1725  C1132   1.082   1_565 S
C1728  C1733   1.406   .     A
C1728  C1729   1.406   .     A
C1729  H1734   1.081   .     S
C1729  C1730   1.398   .     A
C1730  H1735   1.082   .     S
C1730  C1731   1.398   .     A
C1731  C1732   1.397   .     A
C1731  H1148   1.082   1_565 S
C1732  C1733   1.398   .     A
C1732  H1149   1.082   1_565 S
C1733  H1738   1.083   .     S
C1739  C1740   1.406   .     A
C1739  C1744   1.405   .     A
C1740  H1745   1.083   .     S
C1740  C1153   1.398   1_565 S
C1741  H1746   1.082   .     S
C1741  C1742   1.398   .     A
C1742  H1747   1.082   .     S
C1743  C1744   1.399   .     A
C1743  C1154   1.398   1_565 S
C1744  H1749   1.083   .     S
H1748  C1547   1.082   1_655 S
C1750  C1751   1.405   .     A
C1750  C1755   1.406   .     A
C1751  C1752   1.399   .     A
C1751  H1756   1.083   .     S
C1752  H1561   1.082   1_655 S
C1753  C1754   1.398   .     A
C1753  H1758   1.082   .     S
C1753  C1164   1.398   1_565 S
C1754  H1759   1.082   .     S
C1754  C1167   1.398   1_565 S
C1755  H1760   1.083   .     S
