data_str_m2_o1_o17_pcu_sym.192
_audit_creation_date              2020-01-03
_audit_creation_method            'Materials Studio'
_symmetry_space_group_name_H-M    'P1'
_symmetry_Int_Tables_number       1
_symmetry_cell_setting            triclinic
loop_
_symmetry_equiv_pos_as_xyz
  x,y,z
_cell_length_a                    32.7787
_cell_length_b                    28.5735
_cell_length_c                    30.1542
_cell_angle_alpha                 89.9079
_cell_angle_beta                  90.0352
_cell_angle_gamma                 89.8616
loop_
_atom_site_label
_atom_site_type_symbol
_atom_site_fract_x
_atom_site_fract_y
_atom_site_fract_z
_atom_site_U_iso_or_equiv
_atom_site_adp_type
_atom_site_occupancy
C1     C     0.08723   0.16673   0.25005   0.00000  Uiso   1.00
C2     C     0.24588   0.16666   0.25007   0.00000  Uiso   1.00
C3     C     0.14606   0.08401   0.02268   0.00000  Uiso   1.00
C4     C     0.18650   0.24939   0.47730   0.00000  Uiso   1.00
C5     C     0.02019   0.12422   0.25118   0.00000  Uiso   1.00
C6     C     0.31211   0.20747   0.23812   0.00000  Uiso   1.00
C7     C     0.31237   0.12625   0.26248   0.00000  Uiso   1.00
C8     C     0.02000   0.20957   0.24943   0.00000  Uiso   1.00
C9     C     0.29037   0.16677   0.25021   0.00000  Uiso   1.00
C10    C     0.04234   0.16688   0.25025   0.00000  Uiso   1.00
C11    C     0.15369   0.02482   0.21374   0.00000  Uiso   1.00
C12    C     0.17995   0.30848   0.28614   0.00000  Uiso   1.00
C13    C     0.17968   0.02464   0.28625   0.00000  Uiso   1.00
C14    C     0.15360   0.30867   0.21377   0.00000  Uiso   1.00
C15    C     0.16640   0.16670   0.16432   0.00000  Uiso   1.00
C16    C     0.16674   0.16663   0.33567   0.00000  Uiso   1.00
C17    C     0.17643   0.20767   0.40704   0.00000  Uiso   1.00
C18    C     0.15641   0.12566   0.09296   0.00000  Uiso   1.00
C19    C     0.16686   0.16661   0.38405   0.00000  Uiso   1.00
C20    C     0.16597   0.16675   0.11594   0.00000  Uiso   1.00
C21    C     0.15727   0.12565   0.40723   0.00000  Uiso   1.00
C22    C     0.17518   0.20778   0.09271   0.00000  Uiso   1.00
C23    C     0.15678   0.12554   0.45340   0.00000  Uiso   1.00
C24    C     0.17572   0.20787   0.04656   0.00000  Uiso   1.00
C25    C     0.16649   0.16685   0.47671   0.00000  Uiso   1.00
C26    C     0.16610   0.16654   0.02326   0.00000  Uiso   1.00
C27    C     0.17656   0.20839   0.45347   0.00000  Uiso   1.00
C28    C     0.15609   0.12498   0.04651   0.00000  Uiso   1.00
C29    C     0.14648   0.08469   0.47641   0.00000  Uiso   1.00
C30    C     0.18597   0.24874   0.02356   0.00000  Uiso   1.00
Cu31   Cu    0.16667   0.21355   0.25000   0.00000  Uiso   1.00
Cu32   Cu    0.16667   0.11978   0.25000   0.00000  Uiso   1.00
H33    H     0.18402   0.23895   0.38852   0.00000  Uiso   1.00
H34    H     0.14894   0.09436   0.11150   0.00000  Uiso   1.00
H35    H     0.14972   0.09392   0.38935   0.00000  Uiso   1.00
H36    H     0.18235   0.23964   0.11053   0.00000  Uiso   1.00
H37    H     0.13860   0.05322   0.45825   0.00000  Uiso   1.00
H38    H     0.19377   0.28023   0.04173   0.00000  Uiso   1.00
H39    H     0.14320   0.04321   0.18458   0.00000  Uiso   1.00
H40    H     0.19102   0.29002   0.31505   0.00000  Uiso   1.00
H41    H     0.19038   0.04293   0.31532   0.00000  Uiso   1.00
H42    H     0.14276   0.29035   0.18476   0.00000  Uiso   1.00
N43    N     0.16667   0.28402   0.25000   0.00000  Uiso   1.00
N44    N     0.16667   0.04931   0.25000   0.00000  Uiso   1.00
O45    O     0.10655   0.20625   0.25000   0.00000  Uiso   1.00
O46    O     0.22679   0.12709   0.25001   0.00000  Uiso   1.00
O47    O     0.22679   0.20625   0.25001   0.00000  Uiso   1.00
O48    O     0.10655   0.12709   0.25000   0.00000  Uiso   1.00
O49    O     0.16666   0.20627   0.18513   0.00000  Uiso   1.00
O50    O     0.16668   0.12707   0.31487   0.00000  Uiso   1.00
O51    O     0.16668   0.20627   0.31487   0.00000  Uiso   1.00
O52    O     0.16666   0.12707   0.18513   0.00000  Uiso   1.00
C53    C     0.13482   0.04093   0.04469   0.00000  Uiso   1.00
N54    N     0.12573   0.00651   0.06235   0.00000  Uiso   1.00
C55    C     0.19771   0.29250   0.45531   0.00000  Uiso   1.00
N56    N     0.20677   0.32694   0.43766   0.00000  Uiso   1.00
S57    S     0.03960   0.07023   0.23056   0.00000  Uiso   1.00
O58    O     0.06471   0.04683   0.26597   0.00000  Uiso   1.00
O59    O     0.00537   0.03832   0.21729   0.00000  Uiso   1.00
O60    O     0.06876   0.07981   0.18558   0.00000  Uiso   1.00
H61    H     0.05126   0.09815   0.16513   0.00000  Uiso   1.00
S62    S     0.29122   0.25142   0.20260   0.00000  Uiso   1.00
O63    O     0.26821   0.28696   0.22950   0.00000  Uiso   1.00
O64    O     0.32472   0.27551   0.17743   0.00000  Uiso   1.00
O65    O     0.25929   0.22659   0.16591   0.00000  Uiso   1.00
H66    H     0.24916   0.25289   0.14750   0.00000  Uiso   1.00
S67    S     0.29199   0.08237   0.29808   0.00000  Uiso   1.00
O68    O     0.26986   0.04632   0.27109   0.00000  Uiso   1.00
O69    O     0.32584   0.05900   0.32352   0.00000  Uiso   1.00
O70    O     0.25942   0.10695   0.33437   0.00000  Uiso   1.00
H71    H     0.25112   0.08113   0.35436   0.00000  Uiso   1.00
S72    S     0.03965   0.26405   0.26836   0.00000  Uiso   1.00
O73    O     0.06312   0.28672   0.23137   0.00000  Uiso   1.00
O74    O     0.00540   0.29575   0.28235   0.00000  Uiso   1.00
O75    O     0.07040   0.25574   0.31241   0.00000  Uiso   1.00
H76    H     0.08491   0.28584   0.31627   0.00000  Uiso   1.00
C77    C     0.42056   0.16673   0.25005   0.00000  Uiso   1.00
C78    C     0.57922   0.16666   0.25007   0.00000  Uiso   1.00
C79    C     0.47939   0.08401   0.02268   0.00000  Uiso   1.00
C80    C     0.51983   0.24939   0.47730   0.00000  Uiso   1.00
C81    C     0.35353   0.12422   0.25118   0.00000  Uiso   1.00
C82    C     0.64544   0.20747   0.23812   0.00000  Uiso   1.00
C83    C     0.64571   0.12625   0.26248   0.00000  Uiso   1.00
C84    C     0.35333   0.20957   0.24943   0.00000  Uiso   1.00
C85    C     0.62371   0.16677   0.25021   0.00000  Uiso   1.00
C86    C     0.37568   0.16688   0.25025   0.00000  Uiso   1.00
C87    C     0.48702   0.02482   0.21374   0.00000  Uiso   1.00
C88    C     0.51329   0.30848   0.28614   0.00000  Uiso   1.00
C89    C     0.51302   0.02464   0.28625   0.00000  Uiso   1.00
C90    C     0.48693   0.30867   0.21377   0.00000  Uiso   1.00
C91    C     0.49973   0.16670   0.16432   0.00000  Uiso   1.00
C92    C     0.50007   0.16663   0.33567   0.00000  Uiso   1.00
C93    C     0.50976   0.20767   0.40704   0.00000  Uiso   1.00
C94    C     0.48974   0.12566   0.09296   0.00000  Uiso   1.00
C95    C     0.50019   0.16661   0.38405   0.00000  Uiso   1.00
C96    C     0.49931   0.16675   0.11594   0.00000  Uiso   1.00
C97    C     0.49060   0.12565   0.40723   0.00000  Uiso   1.00
C98    C     0.50851   0.20778   0.09271   0.00000  Uiso   1.00
C99    C     0.49011   0.12554   0.45340   0.00000  Uiso   1.00
C100   C     0.50905   0.20787   0.04656   0.00000  Uiso   1.00
C101   C     0.49983   0.16685   0.47671   0.00000  Uiso   1.00
C102   C     0.49943   0.16654   0.02326   0.00000  Uiso   1.00
C103   C     0.50990   0.20839   0.45347   0.00000  Uiso   1.00
C104   C     0.48942   0.12498   0.04651   0.00000  Uiso   1.00
C105   C     0.47982   0.08469   0.47641   0.00000  Uiso   1.00
C106   C     0.51930   0.24874   0.02356   0.00000  Uiso   1.00
Cu107  Cu    0.50000   0.21355   0.25000   0.00000  Uiso   1.00
Cu108  Cu    0.50000   0.11978   0.25000   0.00000  Uiso   1.00
H109   H     0.51736   0.23895   0.38852   0.00000  Uiso   1.00
H110   H     0.48228   0.09436   0.11150   0.00000  Uiso   1.00
H111   H     0.48306   0.09392   0.38935   0.00000  Uiso   1.00
H112   H     0.51569   0.23964   0.11053   0.00000  Uiso   1.00
H113   H     0.47194   0.05322   0.45825   0.00000  Uiso   1.00
H114   H     0.52711   0.28023   0.04173   0.00000  Uiso   1.00
H115   H     0.47653   0.04321   0.18458   0.00000  Uiso   1.00
H116   H     0.52436   0.29002   0.31505   0.00000  Uiso   1.00
H117   H     0.52371   0.04293   0.31532   0.00000  Uiso   1.00
H118   H     0.47609   0.29035   0.18476   0.00000  Uiso   1.00
N119   N     0.50000   0.28402   0.25000   0.00000  Uiso   1.00
N120   N     0.50000   0.04931   0.25000   0.00000  Uiso   1.00
O121   O     0.43988   0.20625   0.25000   0.00000  Uiso   1.00
O122   O     0.56012   0.12709   0.25001   0.00000  Uiso   1.00
O123   O     0.56012   0.20625   0.25001   0.00000  Uiso   1.00
O124   O     0.43988   0.12709   0.25000   0.00000  Uiso   1.00
O125   O     0.49999   0.20627   0.18513   0.00000  Uiso   1.00
O126   O     0.50001   0.12707   0.31487   0.00000  Uiso   1.00
O127   O     0.50001   0.20627   0.31487   0.00000  Uiso   1.00
O128   O     0.49999   0.12707   0.18513   0.00000  Uiso   1.00
C129   C     0.46815   0.04093   0.04469   0.00000  Uiso   1.00
N130   N     0.45907   0.00651   0.06235   0.00000  Uiso   1.00
C131   C     0.53105   0.29250   0.45531   0.00000  Uiso   1.00
N132   N     0.54011   0.32694   0.43766   0.00000  Uiso   1.00
S133   S     0.37293   0.07023   0.23056   0.00000  Uiso   1.00
O134   O     0.39804   0.04683   0.26597   0.00000  Uiso   1.00
O135   O     0.33870   0.03832   0.21729   0.00000  Uiso   1.00
O136   O     0.40209   0.07981   0.18558   0.00000  Uiso   1.00
H137   H     0.38459   0.09815   0.16513   0.00000  Uiso   1.00
S138   S     0.62455   0.25142   0.20260   0.00000  Uiso   1.00
O139   O     0.60155   0.28696   0.22950   0.00000  Uiso   1.00
O140   O     0.65805   0.27551   0.17743   0.00000  Uiso   1.00
O141   O     0.59263   0.22659   0.16591   0.00000  Uiso   1.00
H142   H     0.58249   0.25289   0.14750   0.00000  Uiso   1.00
S143   S     0.62532   0.08237   0.29808   0.00000  Uiso   1.00
O144   O     0.60320   0.04632   0.27109   0.00000  Uiso   1.00
O145   O     0.65917   0.05900   0.32352   0.00000  Uiso   1.00
O146   O     0.59275   0.10695   0.33437   0.00000  Uiso   1.00
H147   H     0.58445   0.08113   0.35436   0.00000  Uiso   1.00
S148   S     0.37298   0.26405   0.26836   0.00000  Uiso   1.00
O149   O     0.39646   0.28672   0.23137   0.00000  Uiso   1.00
O150   O     0.33873   0.29575   0.28235   0.00000  Uiso   1.00
O151   O     0.40374   0.25574   0.31241   0.00000  Uiso   1.00
H152   H     0.41824   0.28584   0.31627   0.00000  Uiso   1.00
C153   C     0.75390   0.16673   0.25005   0.00000  Uiso   1.00
C154   C     0.91255   0.16666   0.25007   0.00000  Uiso   1.00
C155   C     0.81273   0.08401   0.02268   0.00000  Uiso   1.00
C156   C     0.85316   0.24939   0.47730   0.00000  Uiso   1.00
C157   C     0.68686   0.12422   0.25118   0.00000  Uiso   1.00
C158   C     0.97877   0.20747   0.23812   0.00000  Uiso   1.00
C159   C     0.97904   0.12625   0.26248   0.00000  Uiso   1.00
C160   C     0.68666   0.20957   0.24943   0.00000  Uiso   1.00
C161   C     0.95704   0.16677   0.25021   0.00000  Uiso   1.00
C162   C     0.70901   0.16688   0.25025   0.00000  Uiso   1.00
C163   C     0.82036   0.02482   0.21374   0.00000  Uiso   1.00
C164   C     0.84662   0.30848   0.28614   0.00000  Uiso   1.00
C165   C     0.84635   0.02464   0.28625   0.00000  Uiso   1.00
C166   C     0.82026   0.30867   0.21377   0.00000  Uiso   1.00
C167   C     0.83307   0.16670   0.16432   0.00000  Uiso   1.00
C168   C     0.83341   0.16663   0.33567   0.00000  Uiso   1.00
C169   C     0.84309   0.20767   0.40704   0.00000  Uiso   1.00
C170   C     0.82307   0.12566   0.09296   0.00000  Uiso   1.00
C171   C     0.83352   0.16661   0.38405   0.00000  Uiso   1.00
C172   C     0.83264   0.16675   0.11594   0.00000  Uiso   1.00
C173   C     0.82394   0.12565   0.40723   0.00000  Uiso   1.00
C174   C     0.84185   0.20778   0.09271   0.00000  Uiso   1.00
C175   C     0.82345   0.12554   0.45340   0.00000  Uiso   1.00
C176   C     0.84238   0.20787   0.04656   0.00000  Uiso   1.00
C177   C     0.83316   0.16685   0.47671   0.00000  Uiso   1.00
C178   C     0.83277   0.16654   0.02326   0.00000  Uiso   1.00
C179   C     0.84323   0.20839   0.45347   0.00000  Uiso   1.00
C180   C     0.82276   0.12498   0.04651   0.00000  Uiso   1.00
C181   C     0.81315   0.08469   0.47641   0.00000  Uiso   1.00
C182   C     0.85263   0.24874   0.02356   0.00000  Uiso   1.00
Cu183  Cu    0.83333   0.21355   0.25000   0.00000  Uiso   1.00
Cu184  Cu    0.83333   0.11978   0.25000   0.00000  Uiso   1.00
H185   H     0.85069   0.23895   0.38852   0.00000  Uiso   1.00
H186   H     0.81561   0.09436   0.11150   0.00000  Uiso   1.00
H187   H     0.81639   0.09392   0.38935   0.00000  Uiso   1.00
H188   H     0.84902   0.23964   0.11053   0.00000  Uiso   1.00
H189   H     0.80527   0.05322   0.45825   0.00000  Uiso   1.00
H190   H     0.86044   0.28023   0.04173   0.00000  Uiso   1.00
H191   H     0.80986   0.04321   0.18458   0.00000  Uiso   1.00
H192   H     0.85769   0.29002   0.31505   0.00000  Uiso   1.00
H193   H     0.85704   0.04293   0.31532   0.00000  Uiso   1.00
H194   H     0.80942   0.29035   0.18476   0.00000  Uiso   1.00
N195   N     0.83333   0.28402   0.25000   0.00000  Uiso   1.00
N196   N     0.83333   0.04931   0.25000   0.00000  Uiso   1.00
O197   O     0.77321   0.20625   0.25000   0.00000  Uiso   1.00
O198   O     0.89345   0.12709   0.25001   0.00000  Uiso   1.00
O199   O     0.89345   0.20625   0.25001   0.00000  Uiso   1.00
O200   O     0.77321   0.12709   0.25000   0.00000  Uiso   1.00
O201   O     0.83332   0.20627   0.18513   0.00000  Uiso   1.00
O202   O     0.83334   0.12707   0.31487   0.00000  Uiso   1.00
O203   O     0.83334   0.20627   0.31487   0.00000  Uiso   1.00
O204   O     0.83332   0.12707   0.18513   0.00000  Uiso   1.00
C205   C     0.80148   0.04093   0.04469   0.00000  Uiso   1.00
N206   N     0.79240   0.00651   0.06235   0.00000  Uiso   1.00
C207   C     0.86438   0.29250   0.45531   0.00000  Uiso   1.00
N208   N     0.87344   0.32694   0.43766   0.00000  Uiso   1.00
S209   S     0.70626   0.07023   0.23056   0.00000  Uiso   1.00
O210   O     0.73138   0.04683   0.26597   0.00000  Uiso   1.00
O211   O     0.67204   0.03832   0.21729   0.00000  Uiso   1.00
O212   O     0.73542   0.07981   0.18558   0.00000  Uiso   1.00
H213   H     0.71792   0.09815   0.16513   0.00000  Uiso   1.00
S214   S     0.95789   0.25142   0.20260   0.00000  Uiso   1.00
O215   O     0.93488   0.28696   0.22950   0.00000  Uiso   1.00
O216   O     0.99139   0.27551   0.17743   0.00000  Uiso   1.00
O217   O     0.92596   0.22659   0.16591   0.00000  Uiso   1.00
H218   H     0.91583   0.25289   0.14750   0.00000  Uiso   1.00
S219   S     0.95865   0.08237   0.29808   0.00000  Uiso   1.00
O220   O     0.93653   0.04632   0.27109   0.00000  Uiso   1.00
O221   O     0.99251   0.05900   0.32352   0.00000  Uiso   1.00
O222   O     0.92609   0.10695   0.33437   0.00000  Uiso   1.00
H223   H     0.91778   0.08113   0.35436   0.00000  Uiso   1.00
S224   S     0.70631   0.26405   0.26836   0.00000  Uiso   1.00
O225   O     0.72979   0.28672   0.23137   0.00000  Uiso   1.00
O226   O     0.67206   0.29575   0.28235   0.00000  Uiso   1.00
O227   O     0.73707   0.25574   0.31241   0.00000  Uiso   1.00
H228   H     0.75157   0.28584   0.31627   0.00000  Uiso   1.00
C229   C     0.08723   0.50007   0.25005   0.00000  Uiso   1.00
C230   C     0.24588   0.49999   0.25007   0.00000  Uiso   1.00
C231   C     0.14606   0.41735   0.02268   0.00000  Uiso   1.00
C232   C     0.18650   0.58272   0.47730   0.00000  Uiso   1.00
C233   C     0.02019   0.45755   0.25118   0.00000  Uiso   1.00
C234   C     0.31211   0.54080   0.23812   0.00000  Uiso   1.00
C235   C     0.31237   0.45959   0.26248   0.00000  Uiso   1.00
C236   C     0.02000   0.54290   0.24943   0.00000  Uiso   1.00
C237   C     0.29037   0.50010   0.25021   0.00000  Uiso   1.00
C238   C     0.04234   0.50021   0.25025   0.00000  Uiso   1.00
C239   C     0.15369   0.35815   0.21374   0.00000  Uiso   1.00
C240   C     0.17995   0.64181   0.28614   0.00000  Uiso   1.00
C241   C     0.17968   0.35797   0.28625   0.00000  Uiso   1.00
C242   C     0.15360   0.64200   0.21377   0.00000  Uiso   1.00
C243   C     0.16640   0.50003   0.16432   0.00000  Uiso   1.00
C244   C     0.16674   0.49997   0.33567   0.00000  Uiso   1.00
C245   C     0.17643   0.54100   0.40704   0.00000  Uiso   1.00
C246   C     0.15641   0.45900   0.09296   0.00000  Uiso   1.00
C247   C     0.16686   0.49994   0.38405   0.00000  Uiso   1.00
C248   C     0.16597   0.50008   0.11594   0.00000  Uiso   1.00
C249   C     0.15727   0.45899   0.40723   0.00000  Uiso   1.00
C250   C     0.17518   0.54112   0.09271   0.00000  Uiso   1.00
C251   C     0.15678   0.45887   0.45340   0.00000  Uiso   1.00
C252   C     0.17572   0.54120   0.04656   0.00000  Uiso   1.00
C253   C     0.16649   0.50018   0.47671   0.00000  Uiso   1.00
C254   C     0.16610   0.49987   0.02326   0.00000  Uiso   1.00
C255   C     0.17656   0.54172   0.45347   0.00000  Uiso   1.00
C256   C     0.15609   0.45832   0.04651   0.00000  Uiso   1.00
C257   C     0.14648   0.41802   0.47641   0.00000  Uiso   1.00
C258   C     0.18597   0.58208   0.02356   0.00000  Uiso   1.00
Cu259  Cu    0.16667   0.54689   0.25000   0.00000  Uiso   1.00
Cu260  Cu    0.16667   0.45311   0.25000   0.00000  Uiso   1.00
H261   H     0.18402   0.57228   0.38852   0.00000  Uiso   1.00
H262   H     0.14894   0.42769   0.11150   0.00000  Uiso   1.00
H263   H     0.14972   0.42726   0.38935   0.00000  Uiso   1.00
H264   H     0.18235   0.57298   0.11053   0.00000  Uiso   1.00
H265   H     0.13860   0.38655   0.45825   0.00000  Uiso   1.00
H266   H     0.19377   0.61356   0.04173   0.00000  Uiso   1.00
H267   H     0.14320   0.37654   0.18458   0.00000  Uiso   1.00
H268   H     0.19102   0.62335   0.31505   0.00000  Uiso   1.00
H269   H     0.19038   0.37626   0.31532   0.00000  Uiso   1.00
H270   H     0.14276   0.62368   0.18476   0.00000  Uiso   1.00
N271   N     0.16667   0.61736   0.25000   0.00000  Uiso   1.00
N272   N     0.16667   0.38264   0.25000   0.00000  Uiso   1.00
O273   O     0.10655   0.53958   0.25000   0.00000  Uiso   1.00
O274   O     0.22679   0.46042   0.25001   0.00000  Uiso   1.00
O275   O     0.22679   0.53958   0.25001   0.00000  Uiso   1.00
O276   O     0.10655   0.46042   0.25000   0.00000  Uiso   1.00
O277   O     0.16666   0.53960   0.18513   0.00000  Uiso   1.00
O278   O     0.16668   0.46040   0.31487   0.00000  Uiso   1.00
O279   O     0.16668   0.53960   0.31487   0.00000  Uiso   1.00
O280   O     0.16666   0.46040   0.18513   0.00000  Uiso   1.00
C281   C     0.13482   0.37426   0.04469   0.00000  Uiso   1.00
N282   N     0.12573   0.33984   0.06235   0.00000  Uiso   1.00
C283   C     0.19771   0.62583   0.45531   0.00000  Uiso   1.00
N284   N     0.20677   0.66027   0.43766   0.00000  Uiso   1.00
S285   S     0.03960   0.40356   0.23056   0.00000  Uiso   1.00
O286   O     0.06471   0.38016   0.26597   0.00000  Uiso   1.00
O287   O     0.00537   0.37166   0.21729   0.00000  Uiso   1.00
O288   O     0.06876   0.41314   0.18558   0.00000  Uiso   1.00
H289   H     0.05126   0.43148   0.16513   0.00000  Uiso   1.00
S290   S     0.29122   0.58475   0.20260   0.00000  Uiso   1.00
O291   O     0.26821   0.62029   0.22950   0.00000  Uiso   1.00
O292   O     0.32472   0.60884   0.17743   0.00000  Uiso   1.00
O293   O     0.25929   0.55992   0.16591   0.00000  Uiso   1.00
H294   H     0.24916   0.58623   0.14750   0.00000  Uiso   1.00
S295   S     0.29199   0.41570   0.29808   0.00000  Uiso   1.00
O296   O     0.26986   0.37965   0.27109   0.00000  Uiso   1.00
O297   O     0.32584   0.39233   0.32352   0.00000  Uiso   1.00
O298   O     0.25942   0.44028   0.33437   0.00000  Uiso   1.00
H299   H     0.25112   0.41447   0.35436   0.00000  Uiso   1.00
S300   S     0.03965   0.59739   0.26836   0.00000  Uiso   1.00
O301   O     0.06312   0.62005   0.23137   0.00000  Uiso   1.00
O302   O     0.00540   0.62909   0.28235   0.00000  Uiso   1.00
O303   O     0.07040   0.58907   0.31241   0.00000  Uiso   1.00
H304   H     0.08491   0.61917   0.31627   0.00000  Uiso   1.00
C305   C     0.42056   0.50007   0.25005   0.00000  Uiso   1.00
C306   C     0.57922   0.49999   0.25007   0.00000  Uiso   1.00
C307   C     0.47939   0.41735   0.02268   0.00000  Uiso   1.00
C308   C     0.51983   0.58272   0.47730   0.00000  Uiso   1.00
C309   C     0.35353   0.45755   0.25118   0.00000  Uiso   1.00
C310   C     0.64544   0.54080   0.23812   0.00000  Uiso   1.00
C311   C     0.64571   0.45959   0.26248   0.00000  Uiso   1.00
C312   C     0.35333   0.54290   0.24943   0.00000  Uiso   1.00
C313   C     0.62371   0.50010   0.25021   0.00000  Uiso   1.00
C314   C     0.37568   0.50021   0.25025   0.00000  Uiso   1.00
C315   C     0.48702   0.35815   0.21374   0.00000  Uiso   1.00
C316   C     0.51329   0.64181   0.28614   0.00000  Uiso   1.00
C317   C     0.51302   0.35797   0.28625   0.00000  Uiso   1.00
C318   C     0.48693   0.64200   0.21377   0.00000  Uiso   1.00
C319   C     0.49973   0.50003   0.16432   0.00000  Uiso   1.00
C320   C     0.50007   0.49997   0.33567   0.00000  Uiso   1.00
C321   C     0.50976   0.54100   0.40704   0.00000  Uiso   1.00
C322   C     0.48974   0.45900   0.09296   0.00000  Uiso   1.00
C323   C     0.50019   0.49994   0.38405   0.00000  Uiso   1.00
C324   C     0.49931   0.50008   0.11594   0.00000  Uiso   1.00
C325   C     0.49060   0.45899   0.40723   0.00000  Uiso   1.00
C326   C     0.50851   0.54112   0.09271   0.00000  Uiso   1.00
C327   C     0.49011   0.45887   0.45340   0.00000  Uiso   1.00
C328   C     0.50905   0.54120   0.04656   0.00000  Uiso   1.00
C329   C     0.49983   0.50018   0.47671   0.00000  Uiso   1.00
C330   C     0.49943   0.49987   0.02326   0.00000  Uiso   1.00
C331   C     0.50990   0.54172   0.45347   0.00000  Uiso   1.00
C332   C     0.48942   0.45832   0.04651   0.00000  Uiso   1.00
C333   C     0.47982   0.41802   0.47641   0.00000  Uiso   1.00
C334   C     0.51930   0.58208   0.02356   0.00000  Uiso   1.00
Cu335  Cu    0.50000   0.54689   0.25000   0.00000  Uiso   1.00
Cu336  Cu    0.50000   0.45311   0.25000   0.00000  Uiso   1.00
H337   H     0.51736   0.57228   0.38852   0.00000  Uiso   1.00
H338   H     0.48228   0.42769   0.11150   0.00000  Uiso   1.00
H339   H     0.48306   0.42726   0.38935   0.00000  Uiso   1.00
H340   H     0.51569   0.57298   0.11053   0.00000  Uiso   1.00
H341   H     0.47194   0.38655   0.45825   0.00000  Uiso   1.00
H342   H     0.52711   0.61356   0.04173   0.00000  Uiso   1.00
H343   H     0.47653   0.37654   0.18458   0.00000  Uiso   1.00
H344   H     0.52436   0.62335   0.31505   0.00000  Uiso   1.00
H345   H     0.52371   0.37626   0.31532   0.00000  Uiso   1.00
H346   H     0.47609   0.62368   0.18476   0.00000  Uiso   1.00
N347   N     0.50000   0.61736   0.25000   0.00000  Uiso   1.00
N348   N     0.50000   0.38264   0.25000   0.00000  Uiso   1.00
O349   O     0.43988   0.53958   0.25000   0.00000  Uiso   1.00
O350   O     0.56012   0.46042   0.25001   0.00000  Uiso   1.00
O351   O     0.56012   0.53958   0.25001   0.00000  Uiso   1.00
O352   O     0.43988   0.46042   0.25000   0.00000  Uiso   1.00
O353   O     0.49999   0.53960   0.18513   0.00000  Uiso   1.00
O354   O     0.50001   0.46040   0.31487   0.00000  Uiso   1.00
O355   O     0.50001   0.53960   0.31487   0.00000  Uiso   1.00
O356   O     0.49999   0.46040   0.18513   0.00000  Uiso   1.00
C357   C     0.46815   0.37426   0.04469   0.00000  Uiso   1.00
N358   N     0.45907   0.33984   0.06235   0.00000  Uiso   1.00
C359   C     0.53105   0.62583   0.45531   0.00000  Uiso   1.00
N360   N     0.54011   0.66027   0.43766   0.00000  Uiso   1.00
S361   S     0.37293   0.40356   0.23056   0.00000  Uiso   1.00
O362   O     0.39804   0.38016   0.26597   0.00000  Uiso   1.00
O363   O     0.33870   0.37166   0.21729   0.00000  Uiso   1.00
O364   O     0.40209   0.41314   0.18558   0.00000  Uiso   1.00
H365   H     0.38459   0.43148   0.16513   0.00000  Uiso   1.00
S366   S     0.62455   0.58475   0.20260   0.00000  Uiso   1.00
O367   O     0.60155   0.62029   0.22950   0.00000  Uiso   1.00
O368   O     0.65805   0.60884   0.17743   0.00000  Uiso   1.00
O369   O     0.59263   0.55992   0.16591   0.00000  Uiso   1.00
H370   H     0.58249   0.58623   0.14750   0.00000  Uiso   1.00
S371   S     0.62532   0.41570   0.29808   0.00000  Uiso   1.00
O372   O     0.60320   0.37965   0.27109   0.00000  Uiso   1.00
O373   O     0.65917   0.39233   0.32352   0.00000  Uiso   1.00
O374   O     0.59275   0.44028   0.33437   0.00000  Uiso   1.00
H375   H     0.58445   0.41447   0.35436   0.00000  Uiso   1.00
S376   S     0.37298   0.59739   0.26836   0.00000  Uiso   1.00
O377   O     0.39646   0.62005   0.23137   0.00000  Uiso   1.00
O378   O     0.33873   0.62909   0.28235   0.00000  Uiso   1.00
O379   O     0.40374   0.58907   0.31241   0.00000  Uiso   1.00
H380   H     0.41824   0.61917   0.31627   0.00000  Uiso   1.00
C381   C     0.75390   0.50007   0.25005   0.00000  Uiso   1.00
C382   C     0.91255   0.49999   0.25007   0.00000  Uiso   1.00
C383   C     0.81273   0.41735   0.02268   0.00000  Uiso   1.00
C384   C     0.85316   0.58272   0.47730   0.00000  Uiso   1.00
C385   C     0.68686   0.45755   0.25118   0.00000  Uiso   1.00
C386   C     0.97877   0.54080   0.23812   0.00000  Uiso   1.00
C387   C     0.97904   0.45959   0.26248   0.00000  Uiso   1.00
C388   C     0.68666   0.54290   0.24943   0.00000  Uiso   1.00
C389   C     0.95704   0.50010   0.25021   0.00000  Uiso   1.00
C390   C     0.70901   0.50021   0.25025   0.00000  Uiso   1.00
C391   C     0.82036   0.35815   0.21374   0.00000  Uiso   1.00
C392   C     0.84662   0.64181   0.28614   0.00000  Uiso   1.00
C393   C     0.84635   0.35797   0.28625   0.00000  Uiso   1.00
C394   C     0.82026   0.64200   0.21377   0.00000  Uiso   1.00
C395   C     0.83307   0.50003   0.16432   0.00000  Uiso   1.00
C396   C     0.83341   0.49997   0.33567   0.00000  Uiso   1.00
C397   C     0.84309   0.54100   0.40704   0.00000  Uiso   1.00
C398   C     0.82307   0.45900   0.09296   0.00000  Uiso   1.00
C399   C     0.83352   0.49994   0.38405   0.00000  Uiso   1.00
C400   C     0.83264   0.50008   0.11594   0.00000  Uiso   1.00
C401   C     0.82394   0.45899   0.40723   0.00000  Uiso   1.00
C402   C     0.84185   0.54112   0.09271   0.00000  Uiso   1.00
C403   C     0.82345   0.45887   0.45340   0.00000  Uiso   1.00
C404   C     0.84238   0.54120   0.04656   0.00000  Uiso   1.00
C405   C     0.83316   0.50018   0.47671   0.00000  Uiso   1.00
C406   C     0.83277   0.49987   0.02326   0.00000  Uiso   1.00
C407   C     0.84323   0.54172   0.45347   0.00000  Uiso   1.00
C408   C     0.82276   0.45832   0.04651   0.00000  Uiso   1.00
C409   C     0.81315   0.41802   0.47641   0.00000  Uiso   1.00
C410   C     0.85263   0.58208   0.02356   0.00000  Uiso   1.00
Cu411  Cu    0.83333   0.54689   0.25000   0.00000  Uiso   1.00
Cu412  Cu    0.83333   0.45311   0.25000   0.00000  Uiso   1.00
H413   H     0.85069   0.57228   0.38852   0.00000  Uiso   1.00
H414   H     0.81561   0.42769   0.11150   0.00000  Uiso   1.00
H415   H     0.81639   0.42726   0.38935   0.00000  Uiso   1.00
H416   H     0.84902   0.57298   0.11053   0.00000  Uiso   1.00
H417   H     0.80527   0.38655   0.45825   0.00000  Uiso   1.00
H418   H     0.86044   0.61356   0.04173   0.00000  Uiso   1.00
H419   H     0.80986   0.37654   0.18458   0.00000  Uiso   1.00
H420   H     0.85769   0.62335   0.31505   0.00000  Uiso   1.00
H421   H     0.85704   0.37626   0.31532   0.00000  Uiso   1.00
H422   H     0.80942   0.62368   0.18476   0.00000  Uiso   1.00
N423   N     0.83333   0.61736   0.25000   0.00000  Uiso   1.00
N424   N     0.83333   0.38264   0.25000   0.00000  Uiso   1.00
O425   O     0.77321   0.53958   0.25000   0.00000  Uiso   1.00
O426   O     0.89345   0.46042   0.25001   0.00000  Uiso   1.00
O427   O     0.89345   0.53958   0.25001   0.00000  Uiso   1.00
O428   O     0.77321   0.46042   0.25000   0.00000  Uiso   1.00
O429   O     0.83332   0.53960   0.18513   0.00000  Uiso   1.00
O430   O     0.83334   0.46040   0.31487   0.00000  Uiso   1.00
O431   O     0.83334   0.53960   0.31487   0.00000  Uiso   1.00
O432   O     0.83332   0.46040   0.18513   0.00000  Uiso   1.00
C433   C     0.80148   0.37426   0.04469   0.00000  Uiso   1.00
N434   N     0.79240   0.33984   0.06235   0.00000  Uiso   1.00
C435   C     0.86438   0.62583   0.45531   0.00000  Uiso   1.00
N436   N     0.87344   0.66027   0.43766   0.00000  Uiso   1.00
S437   S     0.70626   0.40356   0.23056   0.00000  Uiso   1.00
O438   O     0.73138   0.38016   0.26597   0.00000  Uiso   1.00
O439   O     0.67204   0.37166   0.21729   0.00000  Uiso   1.00
O440   O     0.73542   0.41314   0.18558   0.00000  Uiso   1.00
H441   H     0.71792   0.43148   0.16513   0.00000  Uiso   1.00
S442   S     0.95789   0.58475   0.20260   0.00000  Uiso   1.00
O443   O     0.93488   0.62029   0.22950   0.00000  Uiso   1.00
O444   O     0.99139   0.60884   0.17743   0.00000  Uiso   1.00
O445   O     0.92596   0.55992   0.16591   0.00000  Uiso   1.00
H446   H     0.91583   0.58623   0.14750   0.00000  Uiso   1.00
S447   S     0.95865   0.41570   0.29808   0.00000  Uiso   1.00
O448   O     0.93653   0.37965   0.27109   0.00000  Uiso   1.00
O449   O     0.99251   0.39233   0.32352   0.00000  Uiso   1.00
O450   O     0.92609   0.44028   0.33437   0.00000  Uiso   1.00
H451   H     0.91778   0.41447   0.35436   0.00000  Uiso   1.00
S452   S     0.70631   0.59739   0.26836   0.00000  Uiso   1.00
O453   O     0.72979   0.62005   0.23137   0.00000  Uiso   1.00
O454   O     0.67206   0.62909   0.28235   0.00000  Uiso   1.00
O455   O     0.73707   0.58907   0.31241   0.00000  Uiso   1.00
H456   H     0.75157   0.61917   0.31627   0.00000  Uiso   1.00
C457   C     0.08723   0.83340   0.25005   0.00000  Uiso   1.00
C458   C     0.24588   0.83332   0.25007   0.00000  Uiso   1.00
C459   C     0.14606   0.75068   0.02268   0.00000  Uiso   1.00
C460   C     0.18650   0.91606   0.47730   0.00000  Uiso   1.00
C461   C     0.02019   0.79089   0.25118   0.00000  Uiso   1.00
C462   C     0.31211   0.87414   0.23812   0.00000  Uiso   1.00
C463   C     0.31237   0.79292   0.26248   0.00000  Uiso   1.00
C464   C     0.02000   0.87624   0.24943   0.00000  Uiso   1.00
C465   C     0.29037   0.83343   0.25021   0.00000  Uiso   1.00
C466   C     0.04234   0.83355   0.25025   0.00000  Uiso   1.00
C467   C     0.15369   0.69148   0.21374   0.00000  Uiso   1.00
C468   C     0.17995   0.97514   0.28614   0.00000  Uiso   1.00
C469   C     0.17968   0.69131   0.28625   0.00000  Uiso   1.00
C470   C     0.15360   0.97533   0.21377   0.00000  Uiso   1.00
C471   C     0.16640   0.83337   0.16432   0.00000  Uiso   1.00
C472   C     0.16674   0.83330   0.33567   0.00000  Uiso   1.00
C473   C     0.17643   0.87434   0.40704   0.00000  Uiso   1.00
C474   C     0.15641   0.79233   0.09296   0.00000  Uiso   1.00
C475   C     0.16686   0.83327   0.38405   0.00000  Uiso   1.00
C476   C     0.16597   0.83341   0.11594   0.00000  Uiso   1.00
C477   C     0.15727   0.79232   0.40723   0.00000  Uiso   1.00
C478   C     0.17518   0.87445   0.09271   0.00000  Uiso   1.00
C479   C     0.15678   0.79221   0.45340   0.00000  Uiso   1.00
C480   C     0.17572   0.87454   0.04656   0.00000  Uiso   1.00
C481   C     0.16649   0.83351   0.47671   0.00000  Uiso   1.00
C482   C     0.16610   0.83320   0.02326   0.00000  Uiso   1.00
C483   C     0.17656   0.87506   0.45347   0.00000  Uiso   1.00
C484   C     0.15609   0.79165   0.04651   0.00000  Uiso   1.00
C485   C     0.14648   0.75135   0.47641   0.00000  Uiso   1.00
C486   C     0.18597   0.91541   0.02356   0.00000  Uiso   1.00
Cu487  Cu    0.16667   0.88022   0.25000   0.00000  Uiso   1.00
Cu488  Cu    0.16667   0.78645   0.25000   0.00000  Uiso   1.00
H489   H     0.18402   0.90561   0.38852   0.00000  Uiso   1.00
H490   H     0.14894   0.76102   0.11150   0.00000  Uiso   1.00
H491   H     0.14972   0.76059   0.38935   0.00000  Uiso   1.00
H492   H     0.18235   0.90631   0.11053   0.00000  Uiso   1.00
H493   H     0.13860   0.71989   0.45825   0.00000  Uiso   1.00
H494   H     0.19377   0.94689   0.04173   0.00000  Uiso   1.00
H495   H     0.14320   0.70987   0.18458   0.00000  Uiso   1.00
H496   H     0.19102   0.95668   0.31505   0.00000  Uiso   1.00
H497   H     0.19038   0.70960   0.31532   0.00000  Uiso   1.00
H498   H     0.14276   0.95702   0.18476   0.00000  Uiso   1.00
N499   N     0.16667   0.95069   0.25000   0.00000  Uiso   1.00
N500   N     0.16667   0.71598   0.25000   0.00000  Uiso   1.00
O501   O     0.10655   0.87291   0.25000   0.00000  Uiso   1.00
O502   O     0.22679   0.79375   0.25001   0.00000  Uiso   1.00
O503   O     0.22679   0.87291   0.25001   0.00000  Uiso   1.00
O504   O     0.10655   0.79375   0.25000   0.00000  Uiso   1.00
O505   O     0.16666   0.87293   0.18513   0.00000  Uiso   1.00
O506   O     0.16668   0.79373   0.31487   0.00000  Uiso   1.00
O507   O     0.16668   0.87293   0.31487   0.00000  Uiso   1.00
O508   O     0.16666   0.79373   0.18513   0.00000  Uiso   1.00
C509   C     0.13482   0.70760   0.04469   0.00000  Uiso   1.00
N510   N     0.12573   0.67318   0.06235   0.00000  Uiso   1.00
C511   C     0.19771   0.95916   0.45531   0.00000  Uiso   1.00
N512   N     0.20677   0.99360   0.43766   0.00000  Uiso   1.00
S513   S     0.03960   0.73689   0.23056   0.00000  Uiso   1.00
O514   O     0.06471   0.71350   0.26597   0.00000  Uiso   1.00
O515   O     0.00537   0.70499   0.21729   0.00000  Uiso   1.00
O516   O     0.06876   0.74647   0.18558   0.00000  Uiso   1.00
H517   H     0.05126   0.76482   0.16513   0.00000  Uiso   1.00
S518   S     0.29122   0.91808   0.20260   0.00000  Uiso   1.00
O519   O     0.26821   0.95363   0.22950   0.00000  Uiso   1.00
O520   O     0.32472   0.94218   0.17743   0.00000  Uiso   1.00
O521   O     0.25929   0.89325   0.16591   0.00000  Uiso   1.00
H522   H     0.24916   0.91956   0.14750   0.00000  Uiso   1.00
S523   S     0.29199   0.74903   0.29808   0.00000  Uiso   1.00
O524   O     0.26986   0.71299   0.27109   0.00000  Uiso   1.00
O525   O     0.32584   0.72567   0.32352   0.00000  Uiso   1.00
O526   O     0.25942   0.77361   0.33437   0.00000  Uiso   1.00
H527   H     0.25112   0.74780   0.35436   0.00000  Uiso   1.00
S528   S     0.03965   0.93072   0.26836   0.00000  Uiso   1.00
O529   O     0.06312   0.95339   0.23137   0.00000  Uiso   1.00
O530   O     0.00540   0.96242   0.28235   0.00000  Uiso   1.00
O531   O     0.07040   0.92240   0.31241   0.00000  Uiso   1.00
H532   H     0.08491   0.95250   0.31627   0.00000  Uiso   1.00
C533   C     0.42056   0.83340   0.25005   0.00000  Uiso   1.00
C534   C     0.57922   0.83332   0.25007   0.00000  Uiso   1.00
C535   C     0.47939   0.75068   0.02268   0.00000  Uiso   1.00
C536   C     0.51983   0.91606   0.47730   0.00000  Uiso   1.00
C537   C     0.35353   0.79089   0.25118   0.00000  Uiso   1.00
C538   C     0.64544   0.87414   0.23812   0.00000  Uiso   1.00
C539   C     0.64571   0.79292   0.26248   0.00000  Uiso   1.00
C540   C     0.35333   0.87624   0.24943   0.00000  Uiso   1.00
C541   C     0.62371   0.83343   0.25021   0.00000  Uiso   1.00
C542   C     0.37568   0.83355   0.25025   0.00000  Uiso   1.00
C543   C     0.48702   0.69148   0.21374   0.00000  Uiso   1.00
C544   C     0.51329   0.97514   0.28614   0.00000  Uiso   1.00
C545   C     0.51302   0.69131   0.28625   0.00000  Uiso   1.00
C546   C     0.48693   0.97533   0.21377   0.00000  Uiso   1.00
C547   C     0.49973   0.83337   0.16432   0.00000  Uiso   1.00
C548   C     0.50007   0.83330   0.33567   0.00000  Uiso   1.00
C549   C     0.50976   0.87434   0.40704   0.00000  Uiso   1.00
C550   C     0.48974   0.79233   0.09296   0.00000  Uiso   1.00
C551   C     0.50019   0.83327   0.38405   0.00000  Uiso   1.00
C552   C     0.49931   0.83341   0.11594   0.00000  Uiso   1.00
C553   C     0.49060   0.79232   0.40723   0.00000  Uiso   1.00
C554   C     0.50851   0.87445   0.09271   0.00000  Uiso   1.00
C555   C     0.49011   0.79221   0.45340   0.00000  Uiso   1.00
C556   C     0.50905   0.87454   0.04656   0.00000  Uiso   1.00
C557   C     0.49983   0.83351   0.47671   0.00000  Uiso   1.00
C558   C     0.49943   0.83320   0.02326   0.00000  Uiso   1.00
C559   C     0.50990   0.87506   0.45347   0.00000  Uiso   1.00
C560   C     0.48942   0.79165   0.04651   0.00000  Uiso   1.00
C561   C     0.47982   0.75135   0.47641   0.00000  Uiso   1.00
C562   C     0.51930   0.91541   0.02356   0.00000  Uiso   1.00
Cu563  Cu    0.50000   0.88022   0.25000   0.00000  Uiso   1.00
Cu564  Cu    0.50000   0.78645   0.25000   0.00000  Uiso   1.00
H565   H     0.51736   0.90561   0.38852   0.00000  Uiso   1.00
H566   H     0.48228   0.76102   0.11150   0.00000  Uiso   1.00
H567   H     0.48306   0.76059   0.38935   0.00000  Uiso   1.00
H568   H     0.51569   0.90631   0.11053   0.00000  Uiso   1.00
H569   H     0.47194   0.71989   0.45825   0.00000  Uiso   1.00
H570   H     0.52711   0.94689   0.04173   0.00000  Uiso   1.00
H571   H     0.47653   0.70987   0.18458   0.00000  Uiso   1.00
H572   H     0.52436   0.95668   0.31505   0.00000  Uiso   1.00
H573   H     0.52371   0.70960   0.31532   0.00000  Uiso   1.00
H574   H     0.47609   0.95702   0.18476   0.00000  Uiso   1.00
N575   N     0.50000   0.95069   0.25000   0.00000  Uiso   1.00
N576   N     0.50000   0.71598   0.25000   0.00000  Uiso   1.00
O577   O     0.43988   0.87291   0.25000   0.00000  Uiso   1.00
O578   O     0.56012   0.79375   0.25001   0.00000  Uiso   1.00
O579   O     0.56012   0.87291   0.25001   0.00000  Uiso   1.00
O580   O     0.43988   0.79375   0.25000   0.00000  Uiso   1.00
O581   O     0.49999   0.87293   0.18513   0.00000  Uiso   1.00
O582   O     0.50001   0.79373   0.31487   0.00000  Uiso   1.00
O583   O     0.50001   0.87293   0.31487   0.00000  Uiso   1.00
O584   O     0.49999   0.79373   0.18513   0.00000  Uiso   1.00
C585   C     0.46815   0.70760   0.04469   0.00000  Uiso   1.00
N586   N     0.45907   0.67318   0.06235   0.00000  Uiso   1.00
C587   C     0.53105   0.95916   0.45531   0.00000  Uiso   1.00
N588   N     0.54011   0.99360   0.43766   0.00000  Uiso   1.00
S589   S     0.37293   0.73689   0.23056   0.00000  Uiso   1.00
O590   O     0.39804   0.71350   0.26597   0.00000  Uiso   1.00
O591   O     0.33870   0.70499   0.21729   0.00000  Uiso   1.00
O592   O     0.40209   0.74647   0.18558   0.00000  Uiso   1.00
H593   H     0.38459   0.76482   0.16513   0.00000  Uiso   1.00
S594   S     0.62455   0.91808   0.20260   0.00000  Uiso   1.00
O595   O     0.60155   0.95363   0.22950   0.00000  Uiso   1.00
O596   O     0.65805   0.94218   0.17743   0.00000  Uiso   1.00
O597   O     0.59263   0.89325   0.16591   0.00000  Uiso   1.00
H598   H     0.58249   0.91956   0.14750   0.00000  Uiso   1.00
S599   S     0.62532   0.74903   0.29808   0.00000  Uiso   1.00
O600   O     0.60320   0.71299   0.27109   0.00000  Uiso   1.00
O601   O     0.65917   0.72567   0.32352   0.00000  Uiso   1.00
O602   O     0.59275   0.77361   0.33437   0.00000  Uiso   1.00
H603   H     0.58445   0.74780   0.35436   0.00000  Uiso   1.00
S604   S     0.37298   0.93072   0.26836   0.00000  Uiso   1.00
O605   O     0.39646   0.95339   0.23137   0.00000  Uiso   1.00
O606   O     0.33873   0.96242   0.28235   0.00000  Uiso   1.00
O607   O     0.40374   0.92240   0.31241   0.00000  Uiso   1.00
H608   H     0.41824   0.95250   0.31627   0.00000  Uiso   1.00
C609   C     0.75390   0.83340   0.25005   0.00000  Uiso   1.00
C610   C     0.91255   0.83332   0.25007   0.00000  Uiso   1.00
C611   C     0.81273   0.75068   0.02268   0.00000  Uiso   1.00
C612   C     0.85316   0.91606   0.47730   0.00000  Uiso   1.00
C613   C     0.68686   0.79089   0.25118   0.00000  Uiso   1.00
C614   C     0.97877   0.87414   0.23812   0.00000  Uiso   1.00
C615   C     0.97904   0.79292   0.26248   0.00000  Uiso   1.00
C616   C     0.68666   0.87624   0.24943   0.00000  Uiso   1.00
C617   C     0.95704   0.83343   0.25021   0.00000  Uiso   1.00
C618   C     0.70901   0.83355   0.25025   0.00000  Uiso   1.00
C619   C     0.82036   0.69148   0.21374   0.00000  Uiso   1.00
C620   C     0.84662   0.97514   0.28614   0.00000  Uiso   1.00
C621   C     0.84635   0.69131   0.28625   0.00000  Uiso   1.00
C622   C     0.82026   0.97533   0.21377   0.00000  Uiso   1.00
C623   C     0.83307   0.83337   0.16432   0.00000  Uiso   1.00
C624   C     0.83341   0.83330   0.33567   0.00000  Uiso   1.00
C625   C     0.84309   0.87434   0.40704   0.00000  Uiso   1.00
C626   C     0.82307   0.79233   0.09296   0.00000  Uiso   1.00
C627   C     0.83352   0.83327   0.38405   0.00000  Uiso   1.00
C628   C     0.83264   0.83341   0.11594   0.00000  Uiso   1.00
C629   C     0.82394   0.79232   0.40723   0.00000  Uiso   1.00
C630   C     0.84185   0.87445   0.09271   0.00000  Uiso   1.00
C631   C     0.82345   0.79221   0.45340   0.00000  Uiso   1.00
C632   C     0.84238   0.87454   0.04656   0.00000  Uiso   1.00
C633   C     0.83316   0.83351   0.47671   0.00000  Uiso   1.00
C634   C     0.83277   0.83320   0.02326   0.00000  Uiso   1.00
C635   C     0.84323   0.87506   0.45347   0.00000  Uiso   1.00
C636   C     0.82276   0.79165   0.04651   0.00000  Uiso   1.00
C637   C     0.81315   0.75135   0.47641   0.00000  Uiso   1.00
C638   C     0.85263   0.91541   0.02356   0.00000  Uiso   1.00
Cu639  Cu    0.83333   0.88022   0.25000   0.00000  Uiso   1.00
Cu640  Cu    0.83333   0.78645   0.25000   0.00000  Uiso   1.00
H641   H     0.85069   0.90561   0.38852   0.00000  Uiso   1.00
H642   H     0.81561   0.76102   0.11150   0.00000  Uiso   1.00
H643   H     0.81639   0.76059   0.38935   0.00000  Uiso   1.00
H644   H     0.84902   0.90631   0.11053   0.00000  Uiso   1.00
H645   H     0.80527   0.71989   0.45825   0.00000  Uiso   1.00
H646   H     0.86044   0.94689   0.04173   0.00000  Uiso   1.00
H647   H     0.80986   0.70987   0.18458   0.00000  Uiso   1.00
H648   H     0.85769   0.95668   0.31505   0.00000  Uiso   1.00
H649   H     0.85704   0.70960   0.31532   0.00000  Uiso   1.00
H650   H     0.80942   0.95702   0.18476   0.00000  Uiso   1.00
N651   N     0.83333   0.95069   0.25000   0.00000  Uiso   1.00
N652   N     0.83333   0.71598   0.25000   0.00000  Uiso   1.00
O653   O     0.77321   0.87291   0.25000   0.00000  Uiso   1.00
O654   O     0.89345   0.79375   0.25001   0.00000  Uiso   1.00
O655   O     0.89345   0.87291   0.25001   0.00000  Uiso   1.00
O656   O     0.77321   0.79375   0.25000   0.00000  Uiso   1.00
O657   O     0.83332   0.87293   0.18513   0.00000  Uiso   1.00
O658   O     0.83334   0.79373   0.31487   0.00000  Uiso   1.00
O659   O     0.83334   0.87293   0.31487   0.00000  Uiso   1.00
O660   O     0.83332   0.79373   0.18513   0.00000  Uiso   1.00
C661   C     0.80148   0.70760   0.04469   0.00000  Uiso   1.00
N662   N     0.79240   0.67318   0.06235   0.00000  Uiso   1.00
C663   C     0.86438   0.95916   0.45531   0.00000  Uiso   1.00
N664   N     0.87344   0.99360   0.43766   0.00000  Uiso   1.00
S665   S     0.70626   0.73689   0.23056   0.00000  Uiso   1.00
O666   O     0.73138   0.71350   0.26597   0.00000  Uiso   1.00
O667   O     0.67204   0.70499   0.21729   0.00000  Uiso   1.00
O668   O     0.73542   0.74647   0.18558   0.00000  Uiso   1.00
H669   H     0.71792   0.76482   0.16513   0.00000  Uiso   1.00
S670   S     0.95789   0.91808   0.20260   0.00000  Uiso   1.00
O671   O     0.93488   0.95363   0.22950   0.00000  Uiso   1.00
O672   O     0.99139   0.94218   0.17743   0.00000  Uiso   1.00
O673   O     0.92596   0.89325   0.16591   0.00000  Uiso   1.00
H674   H     0.91583   0.91956   0.14750   0.00000  Uiso   1.00
S675   S     0.95865   0.74903   0.29808   0.00000  Uiso   1.00
O676   O     0.93653   0.71299   0.27109   0.00000  Uiso   1.00
O677   O     0.99251   0.72567   0.32352   0.00000  Uiso   1.00
O678   O     0.92609   0.77361   0.33437   0.00000  Uiso   1.00
H679   H     0.91778   0.74780   0.35436   0.00000  Uiso   1.00
S680   S     0.70631   0.93072   0.26836   0.00000  Uiso   1.00
O681   O     0.72979   0.95339   0.23137   0.00000  Uiso   1.00
O682   O     0.67206   0.96242   0.28235   0.00000  Uiso   1.00
O683   O     0.73707   0.92240   0.31241   0.00000  Uiso   1.00
H684   H     0.75157   0.95250   0.31627   0.00000  Uiso   1.00
C685   C     0.08723   0.16673   0.75005   0.00000  Uiso   1.00
C686   C     0.24588   0.16666   0.75007   0.00000  Uiso   1.00
C687   C     0.14606   0.08401   0.52268   0.00000  Uiso   1.00
C688   C     0.18650   0.24939   0.97730   0.00000  Uiso   1.00
C689   C     0.02019   0.12422   0.75118   0.00000  Uiso   1.00
C690   C     0.31211   0.20747   0.73812   0.00000  Uiso   1.00
C691   C     0.31237   0.12625   0.76248   0.00000  Uiso   1.00
C692   C     0.02000   0.20957   0.74943   0.00000  Uiso   1.00
C693   C     0.29037   0.16677   0.75021   0.00000  Uiso   1.00
C694   C     0.04234   0.16688   0.75025   0.00000  Uiso   1.00
C695   C     0.15369   0.02482   0.71374   0.00000  Uiso   1.00
C696   C     0.17995   0.30848   0.78614   0.00000  Uiso   1.00
C697   C     0.17968   0.02464   0.78625   0.00000  Uiso   1.00
C698   C     0.15360   0.30867   0.71377   0.00000  Uiso   1.00
C699   C     0.16640   0.16670   0.66432   0.00000  Uiso   1.00
C700   C     0.16674   0.16663   0.83567   0.00000  Uiso   1.00
C701   C     0.17643   0.20767   0.90704   0.00000  Uiso   1.00
C702   C     0.15641   0.12566   0.59296   0.00000  Uiso   1.00
C703   C     0.16686   0.16661   0.88405   0.00000  Uiso   1.00
C704   C     0.16597   0.16675   0.61594   0.00000  Uiso   1.00
C705   C     0.15727   0.12565   0.90723   0.00000  Uiso   1.00
C706   C     0.17518   0.20778   0.59271   0.00000  Uiso   1.00
C707   C     0.15678   0.12554   0.95340   0.00000  Uiso   1.00
C708   C     0.17572   0.20787   0.54656   0.00000  Uiso   1.00
C709   C     0.16649   0.16685   0.97671   0.00000  Uiso   1.00
C710   C     0.16610   0.16654   0.52326   0.00000  Uiso   1.00
C711   C     0.17656   0.20839   0.95347   0.00000  Uiso   1.00
C712   C     0.15609   0.12498   0.54651   0.00000  Uiso   1.00
C713   C     0.14648   0.08469   0.97641   0.00000  Uiso   1.00
C714   C     0.18597   0.24874   0.52356   0.00000  Uiso   1.00
Cu715  Cu    0.16667   0.21355   0.75000   0.00000  Uiso   1.00
Cu716  Cu    0.16667   0.11978   0.75000   0.00000  Uiso   1.00
H717   H     0.18402   0.23895   0.88852   0.00000  Uiso   1.00
H718   H     0.14894   0.09436   0.61150   0.00000  Uiso   1.00
H719   H     0.14972   0.09392   0.88935   0.00000  Uiso   1.00
H720   H     0.18235   0.23964   0.61053   0.00000  Uiso   1.00
H721   H     0.13860   0.05322   0.95825   0.00000  Uiso   1.00
H722   H     0.19377   0.28023   0.54173   0.00000  Uiso   1.00
H723   H     0.14320   0.04321   0.68458   0.00000  Uiso   1.00
H724   H     0.19102   0.29002   0.81505   0.00000  Uiso   1.00
H725   H     0.19038   0.04293   0.81532   0.00000  Uiso   1.00
H726   H     0.14276   0.29035   0.68476   0.00000  Uiso   1.00
N727   N     0.16667   0.28402   0.75000   0.00000  Uiso   1.00
N728   N     0.16667   0.04931   0.75000   0.00000  Uiso   1.00
O729   O     0.10655   0.20625   0.75000   0.00000  Uiso   1.00
O730   O     0.22679   0.12709   0.75001   0.00000  Uiso   1.00
O731   O     0.22679   0.20625   0.75001   0.00000  Uiso   1.00
O732   O     0.10655   0.12709   0.75000   0.00000  Uiso   1.00
O733   O     0.16666   0.20627   0.68513   0.00000  Uiso   1.00
O734   O     0.16668   0.12707   0.81487   0.00000  Uiso   1.00
O735   O     0.16668   0.20627   0.81487   0.00000  Uiso   1.00
O736   O     0.16666   0.12707   0.68513   0.00000  Uiso   1.00
C737   C     0.13482   0.04093   0.54469   0.00000  Uiso   1.00
N738   N     0.12573   0.00651   0.56235   0.00000  Uiso   1.00
C739   C     0.19771   0.29250   0.95531   0.00000  Uiso   1.00
N740   N     0.20677   0.32694   0.93766   0.00000  Uiso   1.00
S741   S     0.03960   0.07023   0.73056   0.00000  Uiso   1.00
O742   O     0.06471   0.04683   0.76597   0.00000  Uiso   1.00
O743   O     0.00537   0.03832   0.71729   0.00000  Uiso   1.00
O744   O     0.06876   0.07981   0.68558   0.00000  Uiso   1.00
H745   H     0.05126   0.09815   0.66513   0.00000  Uiso   1.00
S746   S     0.29122   0.25142   0.70260   0.00000  Uiso   1.00
O747   O     0.26821   0.28696   0.72950   0.00000  Uiso   1.00
O748   O     0.32472   0.27551   0.67743   0.00000  Uiso   1.00
O749   O     0.25929   0.22659   0.66591   0.00000  Uiso   1.00
H750   H     0.24916   0.25289   0.64750   0.00000  Uiso   1.00
S751   S     0.29199   0.08237   0.79808   0.00000  Uiso   1.00
O752   O     0.26986   0.04632   0.77109   0.00000  Uiso   1.00
O753   O     0.32584   0.05900   0.82352   0.00000  Uiso   1.00
O754   O     0.25942   0.10695   0.83437   0.00000  Uiso   1.00
H755   H     0.25112   0.08113   0.85436   0.00000  Uiso   1.00
S756   S     0.03965   0.26405   0.76836   0.00000  Uiso   1.00
O757   O     0.06312   0.28672   0.73137   0.00000  Uiso   1.00
O758   O     0.00540   0.29575   0.78235   0.00000  Uiso   1.00
O759   O     0.07040   0.25574   0.81241   0.00000  Uiso   1.00
H760   H     0.08491   0.28584   0.81627   0.00000  Uiso   1.00
C761   C     0.42056   0.16673   0.75005   0.00000  Uiso   1.00
C762   C     0.57922   0.16666   0.75007   0.00000  Uiso   1.00
C763   C     0.47939   0.08401   0.52268   0.00000  Uiso   1.00
C764   C     0.51983   0.24939   0.97730   0.00000  Uiso   1.00
C765   C     0.35353   0.12422   0.75118   0.00000  Uiso   1.00
C766   C     0.64544   0.20747   0.73812   0.00000  Uiso   1.00
C767   C     0.64571   0.12625   0.76248   0.00000  Uiso   1.00
C768   C     0.35333   0.20957   0.74943   0.00000  Uiso   1.00
C769   C     0.62371   0.16677   0.75021   0.00000  Uiso   1.00
C770   C     0.37568   0.16688   0.75025   0.00000  Uiso   1.00
C771   C     0.48702   0.02482   0.71374   0.00000  Uiso   1.00
C772   C     0.51329   0.30848   0.78614   0.00000  Uiso   1.00
C773   C     0.51302   0.02464   0.78625   0.00000  Uiso   1.00
C774   C     0.48693   0.30867   0.71377   0.00000  Uiso   1.00
C775   C     0.49973   0.16670   0.66432   0.00000  Uiso   1.00
C776   C     0.50007   0.16663   0.83567   0.00000  Uiso   1.00
C777   C     0.50976   0.20767   0.90704   0.00000  Uiso   1.00
C778   C     0.48974   0.12566   0.59296   0.00000  Uiso   1.00
C779   C     0.50019   0.16661   0.88405   0.00000  Uiso   1.00
C780   C     0.49931   0.16675   0.61594   0.00000  Uiso   1.00
C781   C     0.49060   0.12565   0.90723   0.00000  Uiso   1.00
C782   C     0.50851   0.20778   0.59271   0.00000  Uiso   1.00
C783   C     0.49011   0.12554   0.95340   0.00000  Uiso   1.00
C784   C     0.50905   0.20787   0.54656   0.00000  Uiso   1.00
C785   C     0.49983   0.16685   0.97671   0.00000  Uiso   1.00
C786   C     0.49943   0.16654   0.52326   0.00000  Uiso   1.00
C787   C     0.50990   0.20839   0.95347   0.00000  Uiso   1.00
C788   C     0.48942   0.12498   0.54651   0.00000  Uiso   1.00
C789   C     0.47982   0.08469   0.97641   0.00000  Uiso   1.00
C790   C     0.51930   0.24874   0.52356   0.00000  Uiso   1.00
Cu791  Cu    0.50000   0.21355   0.75000   0.00000  Uiso   1.00
Cu792  Cu    0.50000   0.11978   0.75000   0.00000  Uiso   1.00
H793   H     0.51736   0.23895   0.88852   0.00000  Uiso   1.00
H794   H     0.48228   0.09436   0.61150   0.00000  Uiso   1.00
H795   H     0.48306   0.09392   0.88935   0.00000  Uiso   1.00
H796   H     0.51569   0.23964   0.61053   0.00000  Uiso   1.00
H797   H     0.47194   0.05322   0.95825   0.00000  Uiso   1.00
H798   H     0.52711   0.28023   0.54173   0.00000  Uiso   1.00
H799   H     0.47653   0.04321   0.68458   0.00000  Uiso   1.00
H800   H     0.52436   0.29002   0.81505   0.00000  Uiso   1.00
H801   H     0.52371   0.04293   0.81532   0.00000  Uiso   1.00
H802   H     0.47609   0.29035   0.68476   0.00000  Uiso   1.00
N803   N     0.50000   0.28402   0.75000   0.00000  Uiso   1.00
N804   N     0.50000   0.04931   0.75000   0.00000  Uiso   1.00
O805   O     0.43988   0.20625   0.75000   0.00000  Uiso   1.00
O806   O     0.56012   0.12709   0.75001   0.00000  Uiso   1.00
O807   O     0.56012   0.20625   0.75001   0.00000  Uiso   1.00
O808   O     0.43988   0.12709   0.75000   0.00000  Uiso   1.00
O809   O     0.49999   0.20627   0.68513   0.00000  Uiso   1.00
O810   O     0.50001   0.12707   0.81487   0.00000  Uiso   1.00
O811   O     0.50001   0.20627   0.81487   0.00000  Uiso   1.00
O812   O     0.49999   0.12707   0.68513   0.00000  Uiso   1.00
C813   C     0.46815   0.04093   0.54469   0.00000  Uiso   1.00
N814   N     0.45907   0.00651   0.56235   0.00000  Uiso   1.00
C815   C     0.53105   0.29250   0.95531   0.00000  Uiso   1.00
N816   N     0.54011   0.32694   0.93766   0.00000  Uiso   1.00
S817   S     0.37293   0.07023   0.73056   0.00000  Uiso   1.00
O818   O     0.39804   0.04683   0.76597   0.00000  Uiso   1.00
O819   O     0.33870   0.03832   0.71729   0.00000  Uiso   1.00
O820   O     0.40209   0.07981   0.68558   0.00000  Uiso   1.00
H821   H     0.38459   0.09815   0.66513   0.00000  Uiso   1.00
S822   S     0.62455   0.25142   0.70260   0.00000  Uiso   1.00
O823   O     0.60155   0.28696   0.72950   0.00000  Uiso   1.00
O824   O     0.65805   0.27551   0.67743   0.00000  Uiso   1.00
O825   O     0.59263   0.22659   0.66591   0.00000  Uiso   1.00
H826   H     0.58249   0.25289   0.64750   0.00000  Uiso   1.00
S827   S     0.62532   0.08237   0.79808   0.00000  Uiso   1.00
O828   O     0.60320   0.04632   0.77109   0.00000  Uiso   1.00
O829   O     0.65917   0.05900   0.82352   0.00000  Uiso   1.00
O830   O     0.59275   0.10695   0.83437   0.00000  Uiso   1.00
H831   H     0.58445   0.08113   0.85436   0.00000  Uiso   1.00
S832   S     0.37298   0.26405   0.76836   0.00000  Uiso   1.00
O833   O     0.39646   0.28672   0.73137   0.00000  Uiso   1.00
O834   O     0.33873   0.29575   0.78235   0.00000  Uiso   1.00
O835   O     0.40374   0.25574   0.81241   0.00000  Uiso   1.00
H836   H     0.41824   0.28584   0.81627   0.00000  Uiso   1.00
C837   C     0.75390   0.16673   0.75005   0.00000  Uiso   1.00
C838   C     0.91255   0.16666   0.75007   0.00000  Uiso   1.00
C839   C     0.81273   0.08401   0.52268   0.00000  Uiso   1.00
C840   C     0.85316   0.24939   0.97730   0.00000  Uiso   1.00
C841   C     0.68686   0.12422   0.75118   0.00000  Uiso   1.00
C842   C     0.97877   0.20747   0.73812   0.00000  Uiso   1.00
C843   C     0.97904   0.12625   0.76248   0.00000  Uiso   1.00
C844   C     0.68666   0.20957   0.74943   0.00000  Uiso   1.00
C845   C     0.95704   0.16677   0.75021   0.00000  Uiso   1.00
C846   C     0.70901   0.16688   0.75025   0.00000  Uiso   1.00
C847   C     0.82036   0.02482   0.71374   0.00000  Uiso   1.00
C848   C     0.84662   0.30848   0.78614   0.00000  Uiso   1.00
C849   C     0.84635   0.02464   0.78625   0.00000  Uiso   1.00
C850   C     0.82026   0.30867   0.71377   0.00000  Uiso   1.00
C851   C     0.83307   0.16670   0.66432   0.00000  Uiso   1.00
C852   C     0.83341   0.16663   0.83567   0.00000  Uiso   1.00
C853   C     0.84309   0.20767   0.90704   0.00000  Uiso   1.00
C854   C     0.82307   0.12566   0.59296   0.00000  Uiso   1.00
C855   C     0.83352   0.16661   0.88405   0.00000  Uiso   1.00
C856   C     0.83264   0.16675   0.61594   0.00000  Uiso   1.00
C857   C     0.82394   0.12565   0.90723   0.00000  Uiso   1.00
C858   C     0.84185   0.20778   0.59271   0.00000  Uiso   1.00
C859   C     0.82345   0.12554   0.95340   0.00000  Uiso   1.00
C860   C     0.84238   0.20787   0.54656   0.00000  Uiso   1.00
C861   C     0.83316   0.16685   0.97671   0.00000  Uiso   1.00
C862   C     0.83277   0.16654   0.52326   0.00000  Uiso   1.00
C863   C     0.84323   0.20839   0.95347   0.00000  Uiso   1.00
C864   C     0.82276   0.12498   0.54651   0.00000  Uiso   1.00
C865   C     0.81315   0.08469   0.97641   0.00000  Uiso   1.00
C866   C     0.85263   0.24874   0.52356   0.00000  Uiso   1.00
Cu867  Cu    0.83333   0.21355   0.75000   0.00000  Uiso   1.00
Cu868  Cu    0.83333   0.11978   0.75000   0.00000  Uiso   1.00
H869   H     0.85069   0.23895   0.88852   0.00000  Uiso   1.00
H870   H     0.81561   0.09436   0.61150   0.00000  Uiso   1.00
H871   H     0.81639   0.09392   0.88935   0.00000  Uiso   1.00
H872   H     0.84902   0.23964   0.61053   0.00000  Uiso   1.00
H873   H     0.80527   0.05322   0.95825   0.00000  Uiso   1.00
H874   H     0.86044   0.28023   0.54173   0.00000  Uiso   1.00
H875   H     0.80986   0.04321   0.68458   0.00000  Uiso   1.00
H876   H     0.85769   0.29002   0.81505   0.00000  Uiso   1.00
H877   H     0.85704   0.04293   0.81532   0.00000  Uiso   1.00
H878   H     0.80942   0.29035   0.68476   0.00000  Uiso   1.00
N879   N     0.83333   0.28402   0.75000   0.00000  Uiso   1.00
N880   N     0.83333   0.04931   0.75000   0.00000  Uiso   1.00
O881   O     0.77321   0.20625   0.75000   0.00000  Uiso   1.00
O882   O     0.89345   0.12709   0.75001   0.00000  Uiso   1.00
O883   O     0.89345   0.20625   0.75001   0.00000  Uiso   1.00
O884   O     0.77321   0.12709   0.75000   0.00000  Uiso   1.00
O885   O     0.83332   0.20627   0.68513   0.00000  Uiso   1.00
O886   O     0.83334   0.12707   0.81487   0.00000  Uiso   1.00
O887   O     0.83334   0.20627   0.81487   0.00000  Uiso   1.00
O888   O     0.83332   0.12707   0.68513   0.00000  Uiso   1.00
C889   C     0.80148   0.04093   0.54469   0.00000  Uiso   1.00
N890   N     0.79240   0.00651   0.56235   0.00000  Uiso   1.00
C891   C     0.86438   0.29250   0.95531   0.00000  Uiso   1.00
N892   N     0.87344   0.32694   0.93766   0.00000  Uiso   1.00
S893   S     0.70626   0.07023   0.73056   0.00000  Uiso   1.00
O894   O     0.73138   0.04683   0.76597   0.00000  Uiso   1.00
O895   O     0.67204   0.03832   0.71729   0.00000  Uiso   1.00
O896   O     0.73542   0.07981   0.68558   0.00000  Uiso   1.00
H897   H     0.71792   0.09815   0.66513   0.00000  Uiso   1.00
S898   S     0.95789   0.25142   0.70260   0.00000  Uiso   1.00
O899   O     0.93488   0.28696   0.72950   0.00000  Uiso   1.00
O900   O     0.99139   0.27551   0.67743   0.00000  Uiso   1.00
O901   O     0.92596   0.22659   0.66591   0.00000  Uiso   1.00
H902   H     0.91583   0.25289   0.64750   0.00000  Uiso   1.00
S903   S     0.95865   0.08237   0.79808   0.00000  Uiso   1.00
O904   O     0.93653   0.04632   0.77109   0.00000  Uiso   1.00
O905   O     0.99251   0.05900   0.82352   0.00000  Uiso   1.00
O906   O     0.92609   0.10695   0.83437   0.00000  Uiso   1.00
H907   H     0.91778   0.08113   0.85436   0.00000  Uiso   1.00
S908   S     0.70631   0.26405   0.76836   0.00000  Uiso   1.00
O909   O     0.72979   0.28672   0.73137   0.00000  Uiso   1.00
O910   O     0.67206   0.29575   0.78235   0.00000  Uiso   1.00
O911   O     0.73707   0.25574   0.81241   0.00000  Uiso   1.00
H912   H     0.75157   0.28584   0.81627   0.00000  Uiso   1.00
C913   C     0.08723   0.50007   0.75005   0.00000  Uiso   1.00
C914   C     0.24588   0.49999   0.75007   0.00000  Uiso   1.00
C915   C     0.14606   0.41735   0.52268   0.00000  Uiso   1.00
C916   C     0.18650   0.58272   0.97730   0.00000  Uiso   1.00
C917   C     0.02019   0.45755   0.75118   0.00000  Uiso   1.00
C918   C     0.31211   0.54080   0.73812   0.00000  Uiso   1.00
C919   C     0.31237   0.45959   0.76248   0.00000  Uiso   1.00
C920   C     0.02000   0.54290   0.74943   0.00000  Uiso   1.00
C921   C     0.29037   0.50010   0.75021   0.00000  Uiso   1.00
C922   C     0.04234   0.50021   0.75025   0.00000  Uiso   1.00
C923   C     0.15369   0.35815   0.71374   0.00000  Uiso   1.00
C924   C     0.17995   0.64181   0.78614   0.00000  Uiso   1.00
C925   C     0.17968   0.35797   0.78625   0.00000  Uiso   1.00
C926   C     0.15360   0.64200   0.71377   0.00000  Uiso   1.00
C927   C     0.16640   0.50003   0.66432   0.00000  Uiso   1.00
C928   C     0.16674   0.49997   0.83567   0.00000  Uiso   1.00
C929   C     0.17643   0.54100   0.90704   0.00000  Uiso   1.00
C930   C     0.15641   0.45900   0.59296   0.00000  Uiso   1.00
C931   C     0.16686   0.49994   0.88405   0.00000  Uiso   1.00
C932   C     0.16597   0.50008   0.61594   0.00000  Uiso   1.00
C933   C     0.15727   0.45899   0.90723   0.00000  Uiso   1.00
C934   C     0.17518   0.54112   0.59271   0.00000  Uiso   1.00
C935   C     0.15678   0.45887   0.95340   0.00000  Uiso   1.00
C936   C     0.17572   0.54120   0.54656   0.00000  Uiso   1.00
C937   C     0.16649   0.50018   0.97671   0.00000  Uiso   1.00
C938   C     0.16610   0.49987   0.52326   0.00000  Uiso   1.00
C939   C     0.17656   0.54172   0.95347   0.00000  Uiso   1.00
C940   C     0.15609   0.45832   0.54651   0.00000  Uiso   1.00
C941   C     0.14648   0.41802   0.97641   0.00000  Uiso   1.00
C942   C     0.18597   0.58208   0.52356   0.00000  Uiso   1.00
Cu943  Cu    0.16667   0.54689   0.75000   0.00000  Uiso   1.00
Cu944  Cu    0.16667   0.45311   0.75000   0.00000  Uiso   1.00
H945   H     0.18402   0.57228   0.88852   0.00000  Uiso   1.00
H946   H     0.14894   0.42769   0.61150   0.00000  Uiso   1.00
H947   H     0.14972   0.42726   0.88935   0.00000  Uiso   1.00
H948   H     0.18235   0.57298   0.61053   0.00000  Uiso   1.00
H949   H     0.13860   0.38655   0.95825   0.00000  Uiso   1.00
H950   H     0.19377   0.61356   0.54173   0.00000  Uiso   1.00
H951   H     0.14320   0.37654   0.68458   0.00000  Uiso   1.00
H952   H     0.19102   0.62335   0.81505   0.00000  Uiso   1.00
H953   H     0.19038   0.37626   0.81532   0.00000  Uiso   1.00
H954   H     0.14276   0.62368   0.68476   0.00000  Uiso   1.00
N955   N     0.16667   0.61736   0.75000   0.00000  Uiso   1.00
N956   N     0.16667   0.38264   0.75000   0.00000  Uiso   1.00
O957   O     0.10655   0.53958   0.75000   0.00000  Uiso   1.00
O958   O     0.22679   0.46042   0.75001   0.00000  Uiso   1.00
O959   O     0.22679   0.53958   0.75001   0.00000  Uiso   1.00
O960   O     0.10655   0.46042   0.75000   0.00000  Uiso   1.00
O961   O     0.16666   0.53960   0.68513   0.00000  Uiso   1.00
O962   O     0.16668   0.46040   0.81487   0.00000  Uiso   1.00
O963   O     0.16668   0.53960   0.81487   0.00000  Uiso   1.00
O964   O     0.16666   0.46040   0.68513   0.00000  Uiso   1.00
C965   C     0.13482   0.37426   0.54469   0.00000  Uiso   1.00
N966   N     0.12573   0.33984   0.56235   0.00000  Uiso   1.00
C967   C     0.19771   0.62583   0.95531   0.00000  Uiso   1.00
N968   N     0.20677   0.66027   0.93766   0.00000  Uiso   1.00
S969   S     0.03960   0.40356   0.73056   0.00000  Uiso   1.00
O970   O     0.06471   0.38016   0.76597   0.00000  Uiso   1.00
O971   O     0.00537   0.37166   0.71729   0.00000  Uiso   1.00
O972   O     0.06876   0.41314   0.68558   0.00000  Uiso   1.00
H973   H     0.05126   0.43148   0.66513   0.00000  Uiso   1.00
S974   S     0.29122   0.58475   0.70260   0.00000  Uiso   1.00
O975   O     0.26821   0.62029   0.72950   0.00000  Uiso   1.00
O976   O     0.32472   0.60884   0.67743   0.00000  Uiso   1.00
O977   O     0.25929   0.55992   0.66591   0.00000  Uiso   1.00
H978   H     0.24916   0.58623   0.64750   0.00000  Uiso   1.00
S979   S     0.29199   0.41570   0.79808   0.00000  Uiso   1.00
O980   O     0.26986   0.37965   0.77109   0.00000  Uiso   1.00
O981   O     0.32584   0.39233   0.82352   0.00000  Uiso   1.00
O982   O     0.25942   0.44028   0.83437   0.00000  Uiso   1.00
H983   H     0.25112   0.41447   0.85436   0.00000  Uiso   1.00
S984   S     0.03965   0.59739   0.76836   0.00000  Uiso   1.00
O985   O     0.06312   0.62005   0.73137   0.00000  Uiso   1.00
O986   O     0.00540   0.62909   0.78235   0.00000  Uiso   1.00
O987   O     0.07040   0.58907   0.81241   0.00000  Uiso   1.00
H988   H     0.08491   0.61917   0.81627   0.00000  Uiso   1.00
C989   C     0.42056   0.50007   0.75005   0.00000  Uiso   1.00
C990   C     0.57922   0.49999   0.75007   0.00000  Uiso   1.00
C991   C     0.47939   0.41735   0.52268   0.00000  Uiso   1.00
C992   C     0.51983   0.58272   0.97730   0.00000  Uiso   1.00
C993   C     0.35353   0.45755   0.75118   0.00000  Uiso   1.00
C994   C     0.64544   0.54080   0.73812   0.00000  Uiso   1.00
C995   C     0.64571   0.45959   0.76248   0.00000  Uiso   1.00
C996   C     0.35333   0.54290   0.74943   0.00000  Uiso   1.00
C997   C     0.62371   0.50010   0.75021   0.00000  Uiso   1.00
C998   C     0.37568   0.50021   0.75025   0.00000  Uiso   1.00
C999   C     0.48702   0.35815   0.71374   0.00000  Uiso   1.00
C1000  C     0.51329   0.64181   0.78614   0.00000  Uiso   1.00
C1001  C     0.51302   0.35797   0.78625   0.00000  Uiso   1.00
C1002  C     0.48693   0.64200   0.71377   0.00000  Uiso   1.00
C1003  C     0.49973   0.50003   0.66432   0.00000  Uiso   1.00
C1004  C     0.50007   0.49997   0.83567   0.00000  Uiso   1.00
C1005  C     0.50976   0.54100   0.90704   0.00000  Uiso   1.00
C1006  C     0.48974   0.45900   0.59296   0.00000  Uiso   1.00
C1007  C     0.50019   0.49994   0.88405   0.00000  Uiso   1.00
C1008  C     0.49931   0.50008   0.61594   0.00000  Uiso   1.00
C1009  C     0.49060   0.45899   0.90723   0.00000  Uiso   1.00
C1010  C     0.50851   0.54112   0.59271   0.00000  Uiso   1.00
C1011  C     0.49011   0.45887   0.95340   0.00000  Uiso   1.00
C1012  C     0.50905   0.54120   0.54656   0.00000  Uiso   1.00
C1013  C     0.49983   0.50018   0.97671   0.00000  Uiso   1.00
C1014  C     0.49943   0.49987   0.52326   0.00000  Uiso   1.00
C1015  C     0.50990   0.54172   0.95347   0.00000  Uiso   1.00
C1016  C     0.48942   0.45832   0.54651   0.00000  Uiso   1.00
C1017  C     0.47982   0.41802   0.97641   0.00000  Uiso   1.00
C1018  C     0.51930   0.58208   0.52356   0.00000  Uiso   1.00
Cu1019 Cu    0.50000   0.54689   0.75000   0.00000  Uiso   1.00
Cu1020 Cu    0.50000   0.45311   0.75000   0.00000  Uiso   1.00
H1021  H     0.51736   0.57228   0.88852   0.00000  Uiso   1.00
H1022  H     0.48228   0.42769   0.61150   0.00000  Uiso   1.00
H1023  H     0.48306   0.42726   0.88935   0.00000  Uiso   1.00
H1024  H     0.51569   0.57298   0.61053   0.00000  Uiso   1.00
H1025  H     0.47194   0.38655   0.95825   0.00000  Uiso   1.00
H1026  H     0.52711   0.61356   0.54173   0.00000  Uiso   1.00
H1027  H     0.47653   0.37654   0.68458   0.00000  Uiso   1.00
H1028  H     0.52436   0.62335   0.81505   0.00000  Uiso   1.00
H1029  H     0.52371   0.37626   0.81532   0.00000  Uiso   1.00
H1030  H     0.47609   0.62368   0.68476   0.00000  Uiso   1.00
N1031  N     0.50000   0.61736   0.75000   0.00000  Uiso   1.00
N1032  N     0.50000   0.38264   0.75000   0.00000  Uiso   1.00
O1033  O     0.43988   0.53958   0.75000   0.00000  Uiso   1.00
O1034  O     0.56012   0.46042   0.75001   0.00000  Uiso   1.00
O1035  O     0.56012   0.53958   0.75001   0.00000  Uiso   1.00
O1036  O     0.43988   0.46042   0.75000   0.00000  Uiso   1.00
O1037  O     0.49999   0.53960   0.68513   0.00000  Uiso   1.00
O1038  O     0.50001   0.46040   0.81487   0.00000  Uiso   1.00
O1039  O     0.50001   0.53960   0.81487   0.00000  Uiso   1.00
O1040  O     0.49999   0.46040   0.68513   0.00000  Uiso   1.00
C1041  C     0.46815   0.37426   0.54469   0.00000  Uiso   1.00
N1042  N     0.45907   0.33984   0.56235   0.00000  Uiso   1.00
C1043  C     0.53105   0.62583   0.95531   0.00000  Uiso   1.00
N1044  N     0.54011   0.66027   0.93766   0.00000  Uiso   1.00
S1045  S     0.37293   0.40356   0.73056   0.00000  Uiso   1.00
O1046  O     0.39804   0.38016   0.76597   0.00000  Uiso   1.00
O1047  O     0.33870   0.37166   0.71729   0.00000  Uiso   1.00
O1048  O     0.40209   0.41314   0.68558   0.00000  Uiso   1.00
H1049  H     0.38459   0.43148   0.66513   0.00000  Uiso   1.00
S1050  S     0.62455   0.58475   0.70260   0.00000  Uiso   1.00
O1051  O     0.60155   0.62029   0.72950   0.00000  Uiso   1.00
O1052  O     0.65805   0.60884   0.67743   0.00000  Uiso   1.00
O1053  O     0.59263   0.55992   0.66591   0.00000  Uiso   1.00
H1054  H     0.58249   0.58623   0.64750   0.00000  Uiso   1.00
S1055  S     0.62532   0.41570   0.79808   0.00000  Uiso   1.00
O1056  O     0.60320   0.37965   0.77109   0.00000  Uiso   1.00
O1057  O     0.65917   0.39233   0.82352   0.00000  Uiso   1.00
O1058  O     0.59275   0.44028   0.83437   0.00000  Uiso   1.00
H1059  H     0.58445   0.41447   0.85436   0.00000  Uiso   1.00
S1060  S     0.37298   0.59739   0.76836   0.00000  Uiso   1.00
O1061  O     0.39646   0.62005   0.73137   0.00000  Uiso   1.00
O1062  O     0.33873   0.62909   0.78235   0.00000  Uiso   1.00
O1063  O     0.40374   0.58907   0.81241   0.00000  Uiso   1.00
H1064  H     0.41824   0.61917   0.81627   0.00000  Uiso   1.00
C1065  C     0.75390   0.50007   0.75005   0.00000  Uiso   1.00
C1066  C     0.91255   0.49999   0.75007   0.00000  Uiso   1.00
C1067  C     0.81273   0.41735   0.52268   0.00000  Uiso   1.00
C1068  C     0.85316   0.58272   0.97730   0.00000  Uiso   1.00
C1069  C     0.68686   0.45755   0.75118   0.00000  Uiso   1.00
C1070  C     0.97877   0.54080   0.73812   0.00000  Uiso   1.00
C1071  C     0.97904   0.45959   0.76248   0.00000  Uiso   1.00
C1072  C     0.68666   0.54290   0.74943   0.00000  Uiso   1.00
C1073  C     0.95704   0.50010   0.75021   0.00000  Uiso   1.00
C1074  C     0.70901   0.50021   0.75025   0.00000  Uiso   1.00
C1075  C     0.82036   0.35815   0.71374   0.00000  Uiso   1.00
C1076  C     0.84662   0.64181   0.78614   0.00000  Uiso   1.00
C1077  C     0.84635   0.35797   0.78625   0.00000  Uiso   1.00
C1078  C     0.82026   0.64200   0.71377   0.00000  Uiso   1.00
C1079  C     0.83307   0.50003   0.66432   0.00000  Uiso   1.00
C1080  C     0.83341   0.49997   0.83567   0.00000  Uiso   1.00
C1081  C     0.84309   0.54100   0.90704   0.00000  Uiso   1.00
C1082  C     0.82307   0.45900   0.59296   0.00000  Uiso   1.00
C1083  C     0.83352   0.49994   0.88405   0.00000  Uiso   1.00
C1084  C     0.83264   0.50008   0.61594   0.00000  Uiso   1.00
C1085  C     0.82394   0.45899   0.90723   0.00000  Uiso   1.00
C1086  C     0.84185   0.54112   0.59271   0.00000  Uiso   1.00
C1087  C     0.82345   0.45887   0.95340   0.00000  Uiso   1.00
C1088  C     0.84238   0.54120   0.54656   0.00000  Uiso   1.00
C1089  C     0.83316   0.50018   0.97671   0.00000  Uiso   1.00
C1090  C     0.83277   0.49987   0.52326   0.00000  Uiso   1.00
C1091  C     0.84323   0.54172   0.95347   0.00000  Uiso   1.00
C1092  C     0.82276   0.45832   0.54651   0.00000  Uiso   1.00
C1093  C     0.81315   0.41802   0.97641   0.00000  Uiso   1.00
C1094  C     0.85263   0.58208   0.52356   0.00000  Uiso   1.00
Cu1095 Cu    0.83333   0.54689   0.75000   0.00000  Uiso   1.00
Cu1096 Cu    0.83333   0.45311   0.75000   0.00000  Uiso   1.00
H1097  H     0.85069   0.57228   0.88852   0.00000  Uiso   1.00
H1098  H     0.81561   0.42769   0.61150   0.00000  Uiso   1.00
H1099  H     0.81639   0.42726   0.88935   0.00000  Uiso   1.00
H1100  H     0.84902   0.57298   0.61053   0.00000  Uiso   1.00
H1101  H     0.80527   0.38655   0.95825   0.00000  Uiso   1.00
H1102  H     0.86044   0.61356   0.54173   0.00000  Uiso   1.00
H1103  H     0.80986   0.37654   0.68458   0.00000  Uiso   1.00
H1104  H     0.85769   0.62335   0.81505   0.00000  Uiso   1.00
H1105  H     0.85704   0.37626   0.81532   0.00000  Uiso   1.00
H1106  H     0.80942   0.62368   0.68476   0.00000  Uiso   1.00
N1107  N     0.83333   0.61736   0.75000   0.00000  Uiso   1.00
N1108  N     0.83333   0.38264   0.75000   0.00000  Uiso   1.00
O1109  O     0.77321   0.53958   0.75000   0.00000  Uiso   1.00
O1110  O     0.89345   0.46042   0.75001   0.00000  Uiso   1.00
O1111  O     0.89345   0.53958   0.75001   0.00000  Uiso   1.00
O1112  O     0.77321   0.46042   0.75000   0.00000  Uiso   1.00
O1113  O     0.83332   0.53960   0.68513   0.00000  Uiso   1.00
O1114  O     0.83334   0.46040   0.81487   0.00000  Uiso   1.00
O1115  O     0.83334   0.53960   0.81487   0.00000  Uiso   1.00
O1116  O     0.83332   0.46040   0.68513   0.00000  Uiso   1.00
C1117  C     0.80148   0.37426   0.54469   0.00000  Uiso   1.00
N1118  N     0.79240   0.33984   0.56235   0.00000  Uiso   1.00
C1119  C     0.86438   0.62583   0.95531   0.00000  Uiso   1.00
N1120  N     0.87344   0.66027   0.93766   0.00000  Uiso   1.00
S1121  S     0.70626   0.40356   0.73056   0.00000  Uiso   1.00
O1122  O     0.73138   0.38016   0.76597   0.00000  Uiso   1.00
O1123  O     0.67204   0.37166   0.71729   0.00000  Uiso   1.00
O1124  O     0.73542   0.41314   0.68558   0.00000  Uiso   1.00
H1125  H     0.71792   0.43148   0.66513   0.00000  Uiso   1.00
S1126  S     0.95789   0.58475   0.70260   0.00000  Uiso   1.00
O1127  O     0.93488   0.62029   0.72950   0.00000  Uiso   1.00
O1128  O     0.99139   0.60884   0.67743   0.00000  Uiso   1.00
O1129  O     0.92596   0.55992   0.66591   0.00000  Uiso   1.00
H1130  H     0.91583   0.58623   0.64750   0.00000  Uiso   1.00
S1131  S     0.95865   0.41570   0.79808   0.00000  Uiso   1.00
O1132  O     0.93653   0.37965   0.77109   0.00000  Uiso   1.00
O1133  O     0.99251   0.39233   0.82352   0.00000  Uiso   1.00
O1134  O     0.92609   0.44028   0.83437   0.00000  Uiso   1.00
H1135  H     0.91778   0.41447   0.85436   0.00000  Uiso   1.00
S1136  S     0.70631   0.59739   0.76836   0.00000  Uiso   1.00
O1137  O     0.72979   0.62005   0.73137   0.00000  Uiso   1.00
O1138  O     0.67206   0.62909   0.78235   0.00000  Uiso   1.00
O1139  O     0.73707   0.58907   0.81241   0.00000  Uiso   1.00
H1140  H     0.75157   0.61917   0.81627   0.00000  Uiso   1.00
C1141  C     0.08723   0.83340   0.75005   0.00000  Uiso   1.00
C1142  C     0.24588   0.83332   0.75007   0.00000  Uiso   1.00
C1143  C     0.14606   0.75068   0.52268   0.00000  Uiso   1.00
C1144  C     0.18650   0.91606   0.97730   0.00000  Uiso   1.00
C1145  C     0.02019   0.79089   0.75118   0.00000  Uiso   1.00
C1146  C     0.31211   0.87414   0.73812   0.00000  Uiso   1.00
C1147  C     0.31237   0.79292   0.76248   0.00000  Uiso   1.00
C1148  C     0.02000   0.87624   0.74943   0.00000  Uiso   1.00
C1149  C     0.29037   0.83343   0.75021   0.00000  Uiso   1.00
C1150  C     0.04234   0.83355   0.75025   0.00000  Uiso   1.00
C1151  C     0.15369   0.69148   0.71374   0.00000  Uiso   1.00
C1152  C     0.17995   0.97514   0.78614   0.00000  Uiso   1.00
C1153  C     0.17968   0.69131   0.78625   0.00000  Uiso   1.00
C1154  C     0.15360   0.97533   0.71377   0.00000  Uiso   1.00
C1155  C     0.16640   0.83337   0.66432   0.00000  Uiso   1.00
C1156  C     0.16674   0.83330   0.83567   0.00000  Uiso   1.00
C1157  C     0.17643   0.87434   0.90704   0.00000  Uiso   1.00
C1158  C     0.15641   0.79233   0.59296   0.00000  Uiso   1.00
C1159  C     0.16686   0.83327   0.88405   0.00000  Uiso   1.00
C1160  C     0.16597   0.83341   0.61594   0.00000  Uiso   1.00
C1161  C     0.15727   0.79232   0.90723   0.00000  Uiso   1.00
C1162  C     0.17518   0.87445   0.59271   0.00000  Uiso   1.00
C1163  C     0.15678   0.79221   0.95340   0.00000  Uiso   1.00
C1164  C     0.17572   0.87454   0.54656   0.00000  Uiso   1.00
C1165  C     0.16649   0.83351   0.97671   0.00000  Uiso   1.00
C1166  C     0.16610   0.83320   0.52326   0.00000  Uiso   1.00
C1167  C     0.17656   0.87506   0.95347   0.00000  Uiso   1.00
C1168  C     0.15609   0.79165   0.54651   0.00000  Uiso   1.00
C1169  C     0.14648   0.75135   0.97641   0.00000  Uiso   1.00
C1170  C     0.18597   0.91541   0.52356   0.00000  Uiso   1.00
Cu1171 Cu    0.16667   0.88022   0.75000   0.00000  Uiso   1.00
Cu1172 Cu    0.16667   0.78645   0.75000   0.00000  Uiso   1.00
H1173  H     0.18402   0.90561   0.88852   0.00000  Uiso   1.00
H1174  H     0.14894   0.76102   0.61150   0.00000  Uiso   1.00
H1175  H     0.14972   0.76059   0.88935   0.00000  Uiso   1.00
H1176  H     0.18235   0.90631   0.61053   0.00000  Uiso   1.00
H1177  H     0.13860   0.71989   0.95825   0.00000  Uiso   1.00
H1178  H     0.19377   0.94689   0.54173   0.00000  Uiso   1.00
H1179  H     0.14320   0.70987   0.68458   0.00000  Uiso   1.00
H1180  H     0.19102   0.95668   0.81505   0.00000  Uiso   1.00
H1181  H     0.19038   0.70960   0.81532   0.00000  Uiso   1.00
H1182  H     0.14276   0.95702   0.68476   0.00000  Uiso   1.00
N1183  N     0.16667   0.95069   0.75000   0.00000  Uiso   1.00
N1184  N     0.16667   0.71598   0.75000   0.00000  Uiso   1.00
O1185  O     0.10655   0.87291   0.75000   0.00000  Uiso   1.00
O1186  O     0.22679   0.79375   0.75001   0.00000  Uiso   1.00
O1187  O     0.22679   0.87291   0.75001   0.00000  Uiso   1.00
O1188  O     0.10655   0.79375   0.75000   0.00000  Uiso   1.00
O1189  O     0.16666   0.87293   0.68513   0.00000  Uiso   1.00
O1190  O     0.16668   0.79373   0.81487   0.00000  Uiso   1.00
O1191  O     0.16668   0.87293   0.81487   0.00000  Uiso   1.00
O1192  O     0.16666   0.79373   0.68513   0.00000  Uiso   1.00
C1193  C     0.13482   0.70760   0.54469   0.00000  Uiso   1.00
N1194  N     0.12573   0.67318   0.56235   0.00000  Uiso   1.00
C1195  C     0.19771   0.95916   0.95531   0.00000  Uiso   1.00
N1196  N     0.20677   0.99360   0.93766   0.00000  Uiso   1.00
S1197  S     0.03960   0.73689   0.73056   0.00000  Uiso   1.00
O1198  O     0.06471   0.71350   0.76597   0.00000  Uiso   1.00
O1199  O     0.00537   0.70499   0.71729   0.00000  Uiso   1.00
O1200  O     0.06876   0.74647   0.68558   0.00000  Uiso   1.00
H1201  H     0.05126   0.76482   0.66513   0.00000  Uiso   1.00
S1202  S     0.29122   0.91808   0.70260   0.00000  Uiso   1.00
O1203  O     0.26821   0.95363   0.72950   0.00000  Uiso   1.00
O1204  O     0.32472   0.94218   0.67743   0.00000  Uiso   1.00
O1205  O     0.25929   0.89325   0.66591   0.00000  Uiso   1.00
H1206  H     0.24916   0.91956   0.64750   0.00000  Uiso   1.00
S1207  S     0.29199   0.74903   0.79808   0.00000  Uiso   1.00
O1208  O     0.26986   0.71299   0.77109   0.00000  Uiso   1.00
O1209  O     0.32584   0.72567   0.82352   0.00000  Uiso   1.00
O1210  O     0.25942   0.77361   0.83437   0.00000  Uiso   1.00
H1211  H     0.25112   0.74780   0.85436   0.00000  Uiso   1.00
S1212  S     0.03965   0.93072   0.76836   0.00000  Uiso   1.00
O1213  O     0.06312   0.95339   0.73137   0.00000  Uiso   1.00
O1214  O     0.00540   0.96242   0.78235   0.00000  Uiso   1.00
O1215  O     0.07040   0.92240   0.81241   0.00000  Uiso   1.00
H1216  H     0.08491   0.95250   0.81627   0.00000  Uiso   1.00
C1217  C     0.42056   0.83340   0.75005   0.00000  Uiso   1.00
C1218  C     0.57922   0.83332   0.75007   0.00000  Uiso   1.00
C1219  C     0.47939   0.75068   0.52268   0.00000  Uiso   1.00
C1220  C     0.51983   0.91606   0.97730   0.00000  Uiso   1.00
C1221  C     0.35353   0.79089   0.75118   0.00000  Uiso   1.00
C1222  C     0.64544   0.87414   0.73812   0.00000  Uiso   1.00
C1223  C     0.64571   0.79292   0.76248   0.00000  Uiso   1.00
C1224  C     0.35333   0.87624   0.74943   0.00000  Uiso   1.00
C1225  C     0.62371   0.83343   0.75021   0.00000  Uiso   1.00
C1226  C     0.37568   0.83355   0.75025   0.00000  Uiso   1.00
C1227  C     0.48702   0.69148   0.71374   0.00000  Uiso   1.00
C1228  C     0.51329   0.97514   0.78614   0.00000  Uiso   1.00
C1229  C     0.51302   0.69131   0.78625   0.00000  Uiso   1.00
C1230  C     0.48693   0.97533   0.71377   0.00000  Uiso   1.00
C1231  C     0.49973   0.83337   0.66432   0.00000  Uiso   1.00
C1232  C     0.50007   0.83330   0.83567   0.00000  Uiso   1.00
C1233  C     0.50976   0.87434   0.90704   0.00000  Uiso   1.00
C1234  C     0.48974   0.79233   0.59296   0.00000  Uiso   1.00
C1235  C     0.50019   0.83327   0.88405   0.00000  Uiso   1.00
C1236  C     0.49931   0.83341   0.61594   0.00000  Uiso   1.00
C1237  C     0.49060   0.79232   0.90723   0.00000  Uiso   1.00
C1238  C     0.50851   0.87445   0.59271   0.00000  Uiso   1.00
C1239  C     0.49011   0.79221   0.95340   0.00000  Uiso   1.00
C1240  C     0.50905   0.87454   0.54656   0.00000  Uiso   1.00
C1241  C     0.49983   0.83351   0.97671   0.00000  Uiso   1.00
C1242  C     0.49943   0.83320   0.52326   0.00000  Uiso   1.00
C1243  C     0.50990   0.87506   0.95347   0.00000  Uiso   1.00
C1244  C     0.48942   0.79165   0.54651   0.00000  Uiso   1.00
C1245  C     0.47982   0.75135   0.97641   0.00000  Uiso   1.00
C1246  C     0.51930   0.91541   0.52356   0.00000  Uiso   1.00
Cu1247 Cu    0.50000   0.88022   0.75000   0.00000  Uiso   1.00
Cu1248 Cu    0.50000   0.78645   0.75000   0.00000  Uiso   1.00
H1249  H     0.51736   0.90561   0.88852   0.00000  Uiso   1.00
H1250  H     0.48228   0.76102   0.61150   0.00000  Uiso   1.00
H1251  H     0.48306   0.76059   0.88935   0.00000  Uiso   1.00
H1252  H     0.51569   0.90631   0.61053   0.00000  Uiso   1.00
H1253  H     0.47194   0.71989   0.95825   0.00000  Uiso   1.00
H1254  H     0.52711   0.94689   0.54173   0.00000  Uiso   1.00
H1255  H     0.47653   0.70987   0.68458   0.00000  Uiso   1.00
H1256  H     0.52436   0.95668   0.81505   0.00000  Uiso   1.00
H1257  H     0.52371   0.70960   0.81532   0.00000  Uiso   1.00
H1258  H     0.47609   0.95702   0.68476   0.00000  Uiso   1.00
N1259  N     0.50000   0.95069   0.75000   0.00000  Uiso   1.00
N1260  N     0.50000   0.71598   0.75000   0.00000  Uiso   1.00
O1261  O     0.43988   0.87291   0.75000   0.00000  Uiso   1.00
O1262  O     0.56012   0.79375   0.75001   0.00000  Uiso   1.00
O1263  O     0.56012   0.87291   0.75001   0.00000  Uiso   1.00
O1264  O     0.43988   0.79375   0.75000   0.00000  Uiso   1.00
O1265  O     0.49999   0.87293   0.68513   0.00000  Uiso   1.00
O1266  O     0.50001   0.79373   0.81487   0.00000  Uiso   1.00
O1267  O     0.50001   0.87293   0.81487   0.00000  Uiso   1.00
O1268  O     0.49999   0.79373   0.68513   0.00000  Uiso   1.00
C1269  C     0.46815   0.70760   0.54469   0.00000  Uiso   1.00
N1270  N     0.45907   0.67318   0.56235   0.00000  Uiso   1.00
C1271  C     0.53105   0.95916   0.95531   0.00000  Uiso   1.00
N1272  N     0.54011   0.99360   0.93766   0.00000  Uiso   1.00
S1273  S     0.37293   0.73689   0.73056   0.00000  Uiso   1.00
O1274  O     0.39804   0.71350   0.76597   0.00000  Uiso   1.00
O1275  O     0.33870   0.70499   0.71729   0.00000  Uiso   1.00
O1276  O     0.40209   0.74647   0.68558   0.00000  Uiso   1.00
H1277  H     0.38459   0.76482   0.66513   0.00000  Uiso   1.00
S1278  S     0.62455   0.91808   0.70260   0.00000  Uiso   1.00
O1279  O     0.60155   0.95363   0.72950   0.00000  Uiso   1.00
O1280  O     0.65805   0.94218   0.67743   0.00000  Uiso   1.00
O1281  O     0.59263   0.89325   0.66591   0.00000  Uiso   1.00
H1282  H     0.58249   0.91956   0.64750   0.00000  Uiso   1.00
S1283  S     0.62532   0.74903   0.79808   0.00000  Uiso   1.00
O1284  O     0.60320   0.71299   0.77109   0.00000  Uiso   1.00
O1285  O     0.65917   0.72567   0.82352   0.00000  Uiso   1.00
O1286  O     0.59275   0.77361   0.83437   0.00000  Uiso   1.00
H1287  H     0.58445   0.74780   0.85436   0.00000  Uiso   1.00
S1288  S     0.37298   0.93072   0.76836   0.00000  Uiso   1.00
O1289  O     0.39646   0.95339   0.73137   0.00000  Uiso   1.00
O1290  O     0.33873   0.96242   0.78235   0.00000  Uiso   1.00
O1291  O     0.40374   0.92240   0.81241   0.00000  Uiso   1.00
H1292  H     0.41824   0.95250   0.81627   0.00000  Uiso   1.00
C1293  C     0.75390   0.83340   0.75005   0.00000  Uiso   1.00
C1294  C     0.91255   0.83332   0.75007   0.00000  Uiso   1.00
C1295  C     0.81273   0.75068   0.52268   0.00000  Uiso   1.00
C1296  C     0.85316   0.91606   0.97730   0.00000  Uiso   1.00
C1297  C     0.68686   0.79089   0.75118   0.00000  Uiso   1.00
C1298  C     0.97877   0.87414   0.73812   0.00000  Uiso   1.00
C1299  C     0.97904   0.79292   0.76248   0.00000  Uiso   1.00
C1300  C     0.68666   0.87624   0.74943   0.00000  Uiso   1.00
C1301  C     0.95704   0.83343   0.75021   0.00000  Uiso   1.00
C1302  C     0.70901   0.83355   0.75025   0.00000  Uiso   1.00
C1303  C     0.82036   0.69148   0.71374   0.00000  Uiso   1.00
C1304  C     0.84662   0.97514   0.78614   0.00000  Uiso   1.00
C1305  C     0.84635   0.69131   0.78625   0.00000  Uiso   1.00
C1306  C     0.82026   0.97533   0.71377   0.00000  Uiso   1.00
C1307  C     0.83307   0.83337   0.66432   0.00000  Uiso   1.00
C1308  C     0.83341   0.83330   0.83567   0.00000  Uiso   1.00
C1309  C     0.84309   0.87434   0.90704   0.00000  Uiso   1.00
C1310  C     0.82307   0.79233   0.59296   0.00000  Uiso   1.00
C1311  C     0.83352   0.83327   0.88405   0.00000  Uiso   1.00
C1312  C     0.83264   0.83341   0.61594   0.00000  Uiso   1.00
C1313  C     0.82394   0.79232   0.90723   0.00000  Uiso   1.00
C1314  C     0.84185   0.87445   0.59271   0.00000  Uiso   1.00
C1315  C     0.82345   0.79221   0.95340   0.00000  Uiso   1.00
C1316  C     0.84238   0.87454   0.54656   0.00000  Uiso   1.00
C1317  C     0.83316   0.83351   0.97671   0.00000  Uiso   1.00
C1318  C     0.83277   0.83320   0.52326   0.00000  Uiso   1.00
C1319  C     0.84323   0.87506   0.95347   0.00000  Uiso   1.00
C1320  C     0.82276   0.79165   0.54651   0.00000  Uiso   1.00
C1321  C     0.81315   0.75135   0.97641   0.00000  Uiso   1.00
C1322  C     0.85263   0.91541   0.52356   0.00000  Uiso   1.00
Cu1323 Cu    0.83333   0.88022   0.75000   0.00000  Uiso   1.00
Cu1324 Cu    0.83333   0.78645   0.75000   0.00000  Uiso   1.00
H1325  H     0.85069   0.90561   0.88852   0.00000  Uiso   1.00
H1326  H     0.81561   0.76102   0.61150   0.00000  Uiso   1.00
H1327  H     0.81639   0.76059   0.88935   0.00000  Uiso   1.00
H1328  H     0.84902   0.90631   0.61053   0.00000  Uiso   1.00
H1329  H     0.80527   0.71989   0.95825   0.00000  Uiso   1.00
H1330  H     0.86044   0.94689   0.54173   0.00000  Uiso   1.00
H1331  H     0.80986   0.70987   0.68458   0.00000  Uiso   1.00
H1332  H     0.85769   0.95668   0.81505   0.00000  Uiso   1.00
H1333  H     0.85704   0.70960   0.81532   0.00000  Uiso   1.00
H1334  H     0.80942   0.95702   0.68476   0.00000  Uiso   1.00
N1335  N     0.83333   0.95069   0.75000   0.00000  Uiso   1.00
N1336  N     0.83333   0.71598   0.75000   0.00000  Uiso   1.00
O1337  O     0.77321   0.87291   0.75000   0.00000  Uiso   1.00
O1338  O     0.89345   0.79375   0.75001   0.00000  Uiso   1.00
O1339  O     0.89345   0.87291   0.75001   0.00000  Uiso   1.00
O1340  O     0.77321   0.79375   0.75000   0.00000  Uiso   1.00
O1341  O     0.83332   0.87293   0.68513   0.00000  Uiso   1.00
O1342  O     0.83334   0.79373   0.81487   0.00000  Uiso   1.00
O1343  O     0.83334   0.87293   0.81487   0.00000  Uiso   1.00
O1344  O     0.83332   0.79373   0.68513   0.00000  Uiso   1.00
C1345  C     0.80148   0.70760   0.54469   0.00000  Uiso   1.00
N1346  N     0.79240   0.67318   0.56235   0.00000  Uiso   1.00
C1347  C     0.86438   0.95916   0.95531   0.00000  Uiso   1.00
N1348  N     0.87344   0.99360   0.93766   0.00000  Uiso   1.00
S1349  S     0.70626   0.73689   0.73056   0.00000  Uiso   1.00
O1350  O     0.73138   0.71350   0.76597   0.00000  Uiso   1.00
O1351  O     0.67204   0.70499   0.71729   0.00000  Uiso   1.00
O1352  O     0.73542   0.74647   0.68558   0.00000  Uiso   1.00
H1353  H     0.71792   0.76482   0.66513   0.00000  Uiso   1.00
S1354  S     0.95789   0.91808   0.70260   0.00000  Uiso   1.00
O1355  O     0.93488   0.95363   0.72950   0.00000  Uiso   1.00
O1356  O     0.99139   0.94218   0.67743   0.00000  Uiso   1.00
O1357  O     0.92596   0.89325   0.66591   0.00000  Uiso   1.00
H1358  H     0.91583   0.91956   0.64750   0.00000  Uiso   1.00
S1359  S     0.95865   0.74903   0.79808   0.00000  Uiso   1.00
O1360  O     0.93653   0.71299   0.77109   0.00000  Uiso   1.00
O1361  O     0.99251   0.72567   0.82352   0.00000  Uiso   1.00
O1362  O     0.92609   0.77361   0.83437   0.00000  Uiso   1.00
H1363  H     0.91778   0.74780   0.85436   0.00000  Uiso   1.00
S1364  S     0.70631   0.93072   0.76836   0.00000  Uiso   1.00
O1365  O     0.72979   0.95339   0.73137   0.00000  Uiso   1.00
O1366  O     0.67206   0.96242   0.78235   0.00000  Uiso   1.00
O1367  O     0.73707   0.92240   0.81241   0.00000  Uiso   1.00
H1368  H     0.75157   0.95250   0.81627   0.00000  Uiso   1.00
loop_
_geom_bond_atom_site_label_1
_geom_bond_atom_site_label_2
_geom_bond_distance
_geom_bond_site_symmetry_2
_ccdc_geom_bond_type
C1     C10     1.471   .     S
C1     O48     1.296   .     A
C1     O45     1.296   .     A
C2     O46     1.294   .     A
C2     O47     1.292   .     A
C2     C9      1.458   .     S
C3     C28     1.414   .     A
C3     C53     1.446   .     S
C3     C713    1.395   1_554 S
C4     C55     1.446   .     S
C4     C27     1.414   .     A
C4     C714    1.395   .     S
C5     S57     1.780   .     S
C5     C10     1.420   .     A
C5     C159    1.393   1_455 S
C6     C9      1.413   .     A
C6     S62     1.784   .     S
C6     C84     1.395   .     S
C7     C9      1.411   .     A
C7     S67     1.781   .     S
C7     C81     1.393   .     S
C8     S72     1.781   .     S
C8     C10     1.422   .     A
C8     C158    1.395   1_455 S
C11    N44     1.367   .     A
C11    H39     1.079   .     S
C11    C470    1.414   1_545 S
C12    N43     1.367   .     A
C12    H40     1.080   .     S
C12    C241    1.414   .     S
C13    H41     1.080   .     S
C13    N44     1.367   .     A
C13    C468    1.414   1_545 S
C14    H42     1.081   .     S
C14    N43     1.367   .     A
C14    C239    1.414   .     S
C15    C20     1.459   .     S
C15    O52     1.294   .     A
C15    O49     1.294   .     A
C16    O51     1.294   .     A
C16    O50     1.294   .     A
C16    C19     1.459   .     S
C17    H33     1.083   .     S
C17    C27     1.400   .     A
C17    C19     1.400   .     A
C18    C28     1.401   .     A
C18    H34     1.083   .     S
C18    C20     1.400   .     A
C19    C21     1.399   .     A
C20    C22     1.398   .     A
C21    C23     1.392   .     A
C21    H35     1.085   .     S
C22    C24     1.392   .     A
C22    H36     1.084   .     S
C23    C29     1.399   .     A
C23    C25     1.412   .     A
C24    C26     1.411   .     A
C24    C30     1.399   .     A
C25    C27     1.417   .     A
C25    C710    1.404   .     S
C26    C28     1.417   .     A
C26    C709    1.404   1_554 S
C29    H37     1.085   .     S
C29    C687    1.395   .     S
C30    H38     1.085   .     S
C30    C688    1.395   1_554 S
Cu31   N43     2.014   .     S
Cu31   O47     1.981   .     S
Cu31   O49     1.967   .     S
Cu31   O51     1.967   .     S
Cu31   Cu32    2.679   .     S
Cu31   O45     1.982   .     S
Cu32   O52     1.967   .     S
Cu32   O48     1.981   .     S
Cu32   N44     2.014   .     S
Cu32   O50     1.967   .     S
Cu32   O46     1.982   .     S
C53    N54     1.157   .     T
C55    N56     1.157   .     T
S57    O59     1.502   .     D
S57    O60     1.682   .     S
S57    O58     1.503   .     D
O60    H61     0.990   .     S
S62    O64     1.503   .     D
S62    O63     1.502   .     D
S62    O65     1.682   .     S
O65    H66     0.990   .     S
S67    O68     1.502   .     D
S67    O69     1.503   .     D
S67    O70     1.683   .     S
O70    H71     0.990   .     S
S72    O75     1.683   .     S
S72    O74     1.502   .     D
S72    O73     1.502   .     D
O75    H76     0.991   .     S
C77    C86     1.471   .     S
C77    O124    1.296   .     A
C77    O121    1.296   .     A
C78    O122    1.294   .     A
C78    O123    1.292   .     A
C78    C85     1.458   .     S
C79    C104    1.414   .     A
C79    C129    1.446   .     S
C79    C789    1.395   1_554 S
C80    C131    1.446   .     S
C80    C103    1.414   .     A
C80    C790    1.395   .     S
C81    S133    1.780   .     S
C81    C86     1.420   .     A
C82    C85     1.413   .     A
C82    S138    1.784   .     S
C82    C160    1.395   .     S
C83    C85     1.411   .     A
C83    S143    1.781   .     S
C83    C157    1.393   .     S
C84    S148    1.781   .     S
C84    C86     1.422   .     A
C87    N120    1.367   .     A
C87    H115    1.079   .     S
C87    C546    1.414   1_545 S
C88    N119    1.367   .     A
C88    H116    1.080   .     S
C88    C317    1.414   .     S
C89    H117    1.080   .     S
C89    N120    1.367   .     A
C89    C544    1.414   1_545 S
C90    H118    1.081   .     S
C90    N119    1.367   .     A
C90    C315    1.414   .     S
C91    C96     1.459   .     S
C91    O128    1.294   .     A
C91    O125    1.294   .     A
C92    O127    1.294   .     A
C92    O126    1.294   .     A
C92    C95     1.459   .     S
C93    H109    1.083   .     S
C93    C103    1.400   .     A
C93    C95     1.400   .     A
C94    C104    1.401   .     A
C94    H110    1.083   .     S
C94    C96     1.400   .     A
C95    C97     1.399   .     A
C96    C98     1.398   .     A
C97    C99     1.392   .     A
C97    H111    1.085   .     S
C98    C100    1.392   .     A
C98    H112    1.084   .     S
C99    C105    1.399   .     A
C99    C101    1.412   .     A
C100   C102    1.411   .     A
C100   C106    1.399   .     A
C101   C103    1.417   .     A
C101   C786    1.404   .     S
C102   C104    1.417   .     A
C102   C785    1.404   1_554 S
C105   H113    1.085   .     S
C105   C763    1.395   .     S
C106   H114    1.085   .     S
C106   C764    1.395   1_554 S
Cu107  N119    2.014   .     S
Cu107  O123    1.981   .     S
Cu107  O125    1.967   .     S
Cu107  O127    1.967   .     S
Cu107  Cu108   2.679   .     S
Cu107  O121    1.982   .     S
Cu108  O128    1.967   .     S
Cu108  O124    1.981   .     S
Cu108  N120    2.014   .     S
Cu108  O126    1.967   .     S
Cu108  O122    1.982   .     S
C129   N130    1.157   .     T
C131   N132    1.157   .     T
S133   O135    1.502   .     D
S133   O136    1.682   .     S
S133   O134    1.503   .     D
O136   H137    0.990   .     S
S138   O140    1.503   .     D
S138   O139    1.502   .     D
S138   O141    1.682   .     S
O141   H142    0.990   .     S
S143   O144    1.502   .     D
S143   O145    1.503   .     D
S143   O146    1.683   .     S
O146   H147    0.990   .     S
S148   O151    1.683   .     S
S148   O150    1.502   .     D
S148   O149    1.502   .     D
O151   H152    0.991   .     S
C153   C162    1.471   .     S
C153   O200    1.296   .     A
C153   O197    1.296   .     A
C154   O198    1.294   .     A
C154   O199    1.292   .     A
C154   C161    1.458   .     S
C155   C180    1.414   .     A
C155   C205    1.446   .     S
C155   C865    1.395   1_554 S
C156   C207    1.446   .     S
C156   C179    1.414   .     A
C156   C866    1.395   .     S
C157   S209    1.780   .     S
C157   C162    1.420   .     A
C158   C161    1.413   .     A
C158   S214    1.784   .     S
C158   C8      1.395   1_655 S
C159   C161    1.411   .     A
C159   S219    1.781   .     S
C159   C5      1.393   1_655 S
C160   S224    1.781   .     S
C160   C162    1.422   .     A
C163   N196    1.367   .     A
C163   H191    1.079   .     S
C163   C622    1.414   1_545 S
C164   N195    1.367   .     A
C164   H192    1.080   .     S
C164   C393    1.414   .     S
C165   H193    1.080   .     S
C165   N196    1.367   .     A
C165   C620    1.414   1_545 S
C166   H194    1.081   .     S
C166   N195    1.367   .     A
C166   C391    1.414   .     S
C167   C172    1.459   .     S
C167   O204    1.294   .     A
C167   O201    1.294   .     A
C168   O203    1.294   .     A
C168   O202    1.294   .     A
C168   C171    1.459   .     S
C169   H185    1.083   .     S
C169   C179    1.400   .     A
C169   C171    1.400   .     A
C170   C180    1.401   .     A
C170   H186    1.083   .     S
C170   C172    1.400   .     A
C171   C173    1.399   .     A
C172   C174    1.398   .     A
C173   C175    1.392   .     A
C173   H187    1.085   .     S
C174   C176    1.392   .     A
C174   H188    1.084   .     S
C175   C181    1.399   .     A
C175   C177    1.412   .     A
C176   C178    1.411   .     A
C176   C182    1.399   .     A
C177   C179    1.417   .     A
C177   C862    1.404   .     S
C178   C180    1.417   .     A
C178   C861    1.404   1_554 S
C181   H189    1.085   .     S
C181   C839    1.395   .     S
C182   H190    1.085   .     S
C182   C840    1.395   1_554 S
Cu183  N195    2.014   .     S
Cu183  O199    1.981   .     S
Cu183  O201    1.967   .     S
Cu183  O203    1.967   .     S
Cu183  Cu184   2.679   .     S
Cu183  O197    1.982   .     S
Cu184  O204    1.967   .     S
Cu184  O200    1.981   .     S
Cu184  N196    2.014   .     S
Cu184  O202    1.967   .     S
Cu184  O198    1.982   .     S
C205   N206    1.157   .     T
C207   N208    1.157   .     T
S209   O211    1.502   .     D
S209   O212    1.682   .     S
S209   O210    1.503   .     D
O212   H213    0.990   .     S
S214   O216    1.503   .     D
S214   O215    1.502   .     D
S214   O217    1.682   .     S
O217   H218    0.990   .     S
S219   O220    1.502   .     D
S219   O221    1.503   .     D
S219   O222    1.683   .     S
O222   H223    0.990   .     S
S224   O227    1.683   .     S
S224   O226    1.502   .     D
S224   O225    1.502   .     D
O227   H228    0.991   .     S
C229   C238    1.471   .     S
C229   O276    1.296   .     A
C229   O273    1.296   .     A
C230   O274    1.294   .     A
C230   O275    1.292   .     A
C230   C237    1.458   .     S
C231   C256    1.414   .     A
C231   C281    1.446   .     S
C231   C941    1.395   1_554 S
C232   C283    1.446   .     S
C232   C255    1.414   .     A
C232   C942    1.395   .     S
C233   S285    1.780   .     S
C233   C238    1.420   .     A
C233   C387    1.393   1_455 S
C234   C237    1.413   .     A
C234   S290    1.784   .     S
C234   C312    1.395   .     S
C235   C237    1.411   .     A
C235   S295    1.781   .     S
C235   C309    1.393   .     S
C236   S300    1.781   .     S
C236   C238    1.422   .     A
C236   C386    1.395   1_455 S
C239   N272    1.367   .     A
C239   H267    1.079   .     S
C240   N271    1.367   .     A
C240   H268    1.080   .     S
C240   C469    1.414   .     S
C241   H269    1.080   .     S
C241   N272    1.367   .     A
C242   H270    1.081   .     S
C242   N271    1.367   .     A
C242   C467    1.414   .     S
C243   C248    1.459   .     S
C243   O280    1.294   .     A
C243   O277    1.294   .     A
C244   O279    1.294   .     A
C244   O278    1.294   .     A
C244   C247    1.459   .     S
C245   H261    1.083   .     S
C245   C255    1.400   .     A
C245   C247    1.400   .     A
C246   C256    1.401   .     A
C246   H262    1.083   .     S
C246   C248    1.400   .     A
C247   C249    1.399   .     A
C248   C250    1.398   .     A
C249   C251    1.392   .     A
C249   H263    1.085   .     S
C250   C252    1.392   .     A
C250   H264    1.084   .     S
C251   C257    1.399   .     A
C251   C253    1.412   .     A
C252   C254    1.411   .     A
C252   C258    1.399   .     A
C253   C255    1.417   .     A
C253   C938    1.404   .     S
C254   C256    1.417   .     A
C254   C937    1.404   1_554 S
C257   H265    1.085   .     S
C257   C915    1.395   .     S
C258   H266    1.085   .     S
C258   C916    1.395   1_554 S
Cu259  N271    2.014   .     S
Cu259  O275    1.981   .     S
Cu259  O277    1.967   .     S
Cu259  O279    1.967   .     S
Cu259  Cu260   2.679   .     S
Cu259  O273    1.982   .     S
Cu260  O280    1.967   .     S
Cu260  O276    1.981   .     S
Cu260  N272    2.014   .     S
Cu260  O278    1.967   .     S
Cu260  O274    1.982   .     S
C281   N282    1.157   .     T
C283   N284    1.157   .     T
S285   O287    1.502   .     D
S285   O288    1.682   .     S
S285   O286    1.503   .     D
O288   H289    0.990   .     S
S290   O292    1.503   .     D
S290   O291    1.502   .     D
S290   O293    1.682   .     S
O293   H294    0.990   .     S
S295   O296    1.502   .     D
S295   O297    1.503   .     D
S295   O298    1.683   .     S
O298   H299    0.990   .     S
S300   O303    1.683   .     S
S300   O302    1.502   .     D
S300   O301    1.502   .     D
O303   H304    0.991   .     S
C305   C314    1.471   .     S
C305   O352    1.296   .     A
C305   O349    1.296   .     A
C306   O350    1.294   .     A
C306   O351    1.292   .     A
C306   C313    1.458   .     S
C307   C332    1.414   .     A
C307   C357    1.446   .     S
C307   C1017   1.395   1_554 S
C308   C359    1.446   .     S
C308   C331    1.414   .     A
C308   C1018   1.395   .     S
C309   S361    1.780   .     S
C309   C314    1.420   .     A
C310   C313    1.413   .     A
C310   S366    1.784   .     S
C310   C388    1.395   .     S
C311   C313    1.411   .     A
C311   S371    1.781   .     S
C311   C385    1.393   .     S
C312   S376    1.781   .     S
C312   C314    1.422   .     A
C315   N348    1.367   .     A
C315   H343    1.079   .     S
C316   N347    1.367   .     A
C316   H344    1.080   .     S
C316   C545    1.414   .     S
C317   H345    1.080   .     S
C317   N348    1.367   .     A
C318   H346    1.081   .     S
C318   N347    1.367   .     A
C318   C543    1.414   .     S
C319   C324    1.459   .     S
C319   O356    1.294   .     A
C319   O353    1.294   .     A
C320   O355    1.294   .     A
C320   O354    1.294   .     A
C320   C323    1.459   .     S
C321   H337    1.083   .     S
C321   C331    1.400   .     A
C321   C323    1.400   .     A
C322   C332    1.401   .     A
C322   H338    1.083   .     S
C322   C324    1.400   .     A
C323   C325    1.399   .     A
C324   C326    1.398   .     A
C325   C327    1.392   .     A
C325   H339    1.085   .     S
C326   C328    1.392   .     A
C326   H340    1.084   .     S
C327   C333    1.399   .     A
C327   C329    1.412   .     A
C328   C330    1.411   .     A
C328   C334    1.399   .     A
C329   C331    1.417   .     A
C329   C1014   1.404   .     S
C330   C332    1.417   .     A
C330   C1013   1.404   1_554 S
C333   H341    1.085   .     S
C333   C991    1.395   .     S
C334   H342    1.085   .     S
C334   C992    1.395   1_554 S
Cu335  N347    2.014   .     S
Cu335  O351    1.981   .     S
Cu335  O353    1.967   .     S
Cu335  O355    1.967   .     S
Cu335  Cu336   2.679   .     S
Cu335  O349    1.982   .     S
Cu336  O356    1.967   .     S
Cu336  O352    1.981   .     S
Cu336  N348    2.014   .     S
Cu336  O354    1.967   .     S
Cu336  O350    1.982   .     S
C357   N358    1.157   .     T
C359   N360    1.157   .     T
S361   O363    1.502   .     D
S361   O364    1.682   .     S
S361   O362    1.503   .     D
O364   H365    0.990   .     S
S366   O368    1.503   .     D
S366   O367    1.502   .     D
S366   O369    1.682   .     S
O369   H370    0.990   .     S
S371   O372    1.502   .     D
S371   O373    1.503   .     D
S371   O374    1.683   .     S
O374   H375    0.990   .     S
S376   O379    1.683   .     S
S376   O378    1.502   .     D
S376   O377    1.502   .     D
O379   H380    0.991   .     S
C381   C390    1.471   .     S
C381   O428    1.296   .     A
C381   O425    1.296   .     A
C382   O426    1.294   .     A
C382   O427    1.292   .     A
C382   C389    1.458   .     S
C383   C408    1.414   .     A
C383   C433    1.446   .     S
C383   C1093   1.395   1_554 S
C384   C435    1.446   .     S
C384   C407    1.414   .     A
C384   C1094   1.395   .     S
C385   S437    1.780   .     S
C385   C390    1.420   .     A
C386   C389    1.413   .     A
C386   S442    1.784   .     S
C386   C236    1.395   1_655 S
C387   C389    1.411   .     A
C387   S447    1.781   .     S
C387   C233    1.393   1_655 S
C388   S452    1.781   .     S
C388   C390    1.422   .     A
C391   N424    1.367   .     A
C391   H419    1.079   .     S
C392   N423    1.367   .     A
C392   H420    1.080   .     S
C392   C621    1.414   .     S
C393   H421    1.080   .     S
C393   N424    1.367   .     A
C394   H422    1.081   .     S
C394   N423    1.367   .     A
C394   C619    1.414   .     S
C395   C400    1.459   .     S
C395   O432    1.294   .     A
C395   O429    1.294   .     A
C396   O431    1.294   .     A
C396   O430    1.294   .     A
C396   C399    1.459   .     S
C397   H413    1.083   .     S
C397   C407    1.400   .     A
C397   C399    1.400   .     A
C398   C408    1.401   .     A
C398   H414    1.083   .     S
C398   C400    1.400   .     A
C399   C401    1.399   .     A
C400   C402    1.398   .     A
C401   C403    1.392   .     A
C401   H415    1.085   .     S
C402   C404    1.392   .     A
C402   H416    1.084   .     S
C403   C409    1.399   .     A
C403   C405    1.412   .     A
C404   C406    1.411   .     A
C404   C410    1.399   .     A
C405   C407    1.417   .     A
C405   C1090   1.404   .     S
C406   C408    1.417   .     A
C406   C1089   1.404   1_554 S
C409   H417    1.085   .     S
C409   C1067   1.395   .     S
C410   H418    1.085   .     S
C410   C1068   1.395   1_554 S
Cu411  N423    2.014   .     S
Cu411  O427    1.981   .     S
Cu411  O429    1.967   .     S
Cu411  O431    1.967   .     S
Cu411  Cu412   2.679   .     S
Cu411  O425    1.982   .     S
Cu412  O432    1.967   .     S
Cu412  O428    1.981   .     S
Cu412  N424    2.014   .     S
Cu412  O430    1.967   .     S
Cu412  O426    1.982   .     S
C433   N434    1.157   .     T
C435   N436    1.157   .     T
S437   O439    1.502   .     D
S437   O440    1.682   .     S
S437   O438    1.503   .     D
O440   H441    0.990   .     S
S442   O444    1.503   .     D
S442   O443    1.502   .     D
S442   O445    1.682   .     S
O445   H446    0.990   .     S
S447   O448    1.502   .     D
S447   O449    1.503   .     D
S447   O450    1.683   .     S
O450   H451    0.990   .     S
S452   O455    1.683   .     S
S452   O454    1.502   .     D
S452   O453    1.502   .     D
O455   H456    0.991   .     S
C457   C466    1.471   .     S
C457   O504    1.296   .     A
C457   O501    1.296   .     A
C458   O502    1.294   .     A
C458   O503    1.292   .     A
C458   C465    1.458   .     S
C459   C484    1.414   .     A
C459   C509    1.446   .     S
C459   C1169   1.395   1_554 S
C460   C511    1.446   .     S
C460   C483    1.414   .     A
C460   C1170   1.395   .     S
C461   S513    1.780   .     S
C461   C466    1.420   .     A
C461   C615    1.393   1_455 S
C462   C465    1.413   .     A
C462   S518    1.784   .     S
C462   C540    1.395   .     S
C463   C465    1.411   .     A
C463   S523    1.781   .     S
C463   C537    1.393   .     S
C464   S528    1.781   .     S
C464   C466    1.422   .     A
C464   C614    1.395   1_455 S
C467   N500    1.367   .     A
C467   H495    1.079   .     S
C468   N499    1.367   .     A
C468   H496    1.080   .     S
C468   C13     1.414   1_565 S
C469   H497    1.080   .     S
C469   N500    1.367   .     A
C470   H498    1.081   .     S
C470   N499    1.367   .     A
C470   C11     1.414   1_565 S
C471   C476    1.459   .     S
C471   O508    1.294   .     A
C471   O505    1.294   .     A
C472   O507    1.294   .     A
C472   O506    1.294   .     A
C472   C475    1.459   .     S
C473   H489    1.083   .     S
C473   C483    1.400   .     A
C473   C475    1.400   .     A
C474   C484    1.401   .     A
C474   H490    1.083   .     S
C474   C476    1.400   .     A
C475   C477    1.399   .     A
C476   C478    1.398   .     A
C477   C479    1.392   .     A
C477   H491    1.085   .     S
C478   C480    1.392   .     A
C478   H492    1.084   .     S
C479   C485    1.399   .     A
C479   C481    1.412   .     A
C480   C482    1.411   .     A
C480   C486    1.399   .     A
C481   C483    1.417   .     A
C481   C1166   1.404   .     S
C482   C484    1.417   .     A
C482   C1165   1.404   1_554 S
C485   H493    1.085   .     S
C485   C1143   1.395   .     S
C486   H494    1.085   .     S
C486   C1144   1.395   1_554 S
Cu487  N499    2.014   .     S
Cu487  O503    1.981   .     S
Cu487  O505    1.967   .     S
Cu487  O507    1.967   .     S
Cu487  Cu488   2.679   .     S
Cu487  O501    1.982   .     S
Cu488  O508    1.967   .     S
Cu488  O504    1.981   .     S
Cu488  N500    2.014   .     S
Cu488  O506    1.967   .     S
Cu488  O502    1.982   .     S
C509   N510    1.157   .     T
C511   N512    1.157   .     T
S513   O515    1.502   .     D
S513   O516    1.682   .     S
S513   O514    1.503   .     D
O516   H517    0.990   .     S
S518   O520    1.503   .     D
S518   O519    1.502   .     D
S518   O521    1.682   .     S
O521   H522    0.990   .     S
S523   O524    1.502   .     D
S523   O525    1.503   .     D
S523   O526    1.683   .     S
O526   H527    0.990   .     S
S528   O531    1.683   .     S
S528   O530    1.502   .     D
S528   O529    1.502   .     D
O531   H532    0.991   .     S
C533   C542    1.471   .     S
C533   O580    1.296   .     A
C533   O577    1.296   .     A
C534   O578    1.294   .     A
C534   O579    1.292   .     A
C534   C541    1.458   .     S
C535   C560    1.414   .     A
C535   C585    1.446   .     S
C535   C1245   1.395   1_554 S
C536   C587    1.446   .     S
C536   C559    1.414   .     A
C536   C1246   1.395   .     S
C537   S589    1.780   .     S
C537   C542    1.420   .     A
C538   C541    1.413   .     A
C538   S594    1.784   .     S
C538   C616    1.395   .     S
C539   C541    1.411   .     A
C539   S599    1.781   .     S
C539   C613    1.393   .     S
C540   S604    1.781   .     S
C540   C542    1.422   .     A
C543   N576    1.367   .     A
C543   H571    1.079   .     S
C544   N575    1.367   .     A
C544   H572    1.080   .     S
C544   C89     1.414   1_565 S
C545   H573    1.080   .     S
C545   N576    1.367   .     A
C546   H574    1.081   .     S
C546   N575    1.367   .     A
C546   C87     1.414   1_565 S
C547   C552    1.459   .     S
C547   O584    1.294   .     A
C547   O581    1.294   .     A
C548   O583    1.294   .     A
C548   O582    1.294   .     A
C548   C551    1.459   .     S
C549   H565    1.083   .     S
C549   C559    1.400   .     A
C549   C551    1.400   .     A
C550   C560    1.401   .     A
C550   H566    1.083   .     S
C550   C552    1.400   .     A
C551   C553    1.399   .     A
C552   C554    1.398   .     A
C553   C555    1.392   .     A
C553   H567    1.085   .     S
C554   C556    1.392   .     A
C554   H568    1.084   .     S
C555   C561    1.399   .     A
C555   C557    1.412   .     A
C556   C558    1.411   .     A
C556   C562    1.399   .     A
C557   C559    1.417   .     A
C557   C1242   1.404   .     S
C558   C560    1.417   .     A
C558   C1241   1.404   1_554 S
C561   H569    1.085   .     S
C561   C1219   1.395   .     S
C562   H570    1.085   .     S
C562   C1220   1.395   1_554 S
Cu563  N575    2.014   .     S
Cu563  O579    1.981   .     S
Cu563  O581    1.967   .     S
Cu563  O583    1.967   .     S
Cu563  Cu564   2.679   .     S
Cu563  O577    1.982   .     S
Cu564  O584    1.967   .     S
Cu564  O580    1.981   .     S
Cu564  N576    2.014   .     S
Cu564  O582    1.967   .     S
Cu564  O578    1.982   .     S
C585   N586    1.157   .     T
C587   N588    1.157   .     T
S589   O591    1.502   .     D
S589   O592    1.682   .     S
S589   O590    1.503   .     D
O592   H593    0.990   .     S
S594   O596    1.503   .     D
S594   O595    1.502   .     D
S594   O597    1.682   .     S
O597   H598    0.990   .     S
S599   O600    1.502   .     D
S599   O601    1.503   .     D
S599   O602    1.683   .     S
O602   H603    0.990   .     S
S604   O607    1.683   .     S
S604   O606    1.502   .     D
S604   O605    1.502   .     D
O607   H608    0.991   .     S
C609   C618    1.471   .     S
C609   O656    1.296   .     A
C609   O653    1.296   .     A
C610   O654    1.294   .     A
C610   O655    1.292   .     A
C610   C617    1.458   .     S
C611   C636    1.414   .     A
C611   C661    1.446   .     S
C611   C1321   1.395   1_554 S
C612   C663    1.446   .     S
C612   C635    1.414   .     A
C612   C1322   1.395   .     S
C613   S665    1.780   .     S
C613   C618    1.420   .     A
C614   C617    1.413   .     A
C614   S670    1.784   .     S
C614   C464    1.395   1_655 S
C615   C617    1.411   .     A
C615   S675    1.781   .     S
C615   C461    1.393   1_655 S
C616   S680    1.781   .     S
C616   C618    1.422   .     A
C619   N652    1.367   .     A
C619   H647    1.079   .     S
C620   N651    1.367   .     A
C620   H648    1.080   .     S
C620   C165    1.414   1_565 S
C621   H649    1.080   .     S
C621   N652    1.367   .     A
C622   H650    1.081   .     S
C622   N651    1.367   .     A
C622   C163    1.414   1_565 S
C623   C628    1.459   .     S
C623   O660    1.294   .     A
C623   O657    1.294   .     A
C624   O659    1.294   .     A
C624   O658    1.294   .     A
C624   C627    1.459   .     S
C625   H641    1.083   .     S
C625   C635    1.400   .     A
C625   C627    1.400   .     A
C626   C636    1.401   .     A
C626   H642    1.083   .     S
C626   C628    1.400   .     A
C627   C629    1.399   .     A
C628   C630    1.398   .     A
C629   C631    1.392   .     A
C629   H643    1.085   .     S
C630   C632    1.392   .     A
C630   H644    1.084   .     S
C631   C637    1.399   .     A
C631   C633    1.412   .     A
C632   C634    1.411   .     A
C632   C638    1.399   .     A
C633   C635    1.417   .     A
C633   C1318   1.404   .     S
C634   C636    1.417   .     A
C634   C1317   1.404   1_554 S
C637   H645    1.085   .     S
C637   C1295   1.395   .     S
C638   H646    1.085   .     S
C638   C1296   1.395   1_554 S
Cu639  N651    2.014   .     S
Cu639  O655    1.981   .     S
Cu639  O657    1.967   .     S
Cu639  O659    1.967   .     S
Cu639  Cu640   2.679   .     S
Cu639  O653    1.982   .     S
Cu640  O660    1.967   .     S
Cu640  O656    1.981   .     S
Cu640  N652    2.014   .     S
Cu640  O658    1.967   .     S
Cu640  O654    1.982   .     S
C661   N662    1.157   .     T
C663   N664    1.157   .     T
S665   O667    1.502   .     D
S665   O668    1.682   .     S
S665   O666    1.503   .     D
O668   H669    0.990   .     S
S670   O672    1.503   .     D
S670   O671    1.502   .     D
S670   O673    1.682   .     S
O673   H674    0.990   .     S
S675   O676    1.502   .     D
S675   O677    1.503   .     D
S675   O678    1.683   .     S
O678   H679    0.990   .     S
S680   O683    1.683   .     S
S680   O682    1.502   .     D
S680   O681    1.502   .     D
O683   H684    0.991   .     S
C685   C694    1.471   .     S
C685   O732    1.296   .     A
C685   O729    1.296   .     A
C686   O730    1.294   .     A
C686   O731    1.292   .     A
C686   C693    1.458   .     S
C687   C712    1.414   .     A
C687   C737    1.446   .     S
C688   C739    1.446   .     S
C688   C711    1.414   .     A
C688   C30     1.395   1_556 S
C689   S741    1.780   .     S
C689   C694    1.420   .     A
C689   C843    1.393   1_455 S
C690   C693    1.413   .     A
C690   S746    1.784   .     S
C690   C768    1.395   .     S
C691   C693    1.411   .     A
C691   S751    1.781   .     S
C691   C765    1.393   .     S
C692   S756    1.781   .     S
C692   C694    1.422   .     A
C692   C842    1.395   1_455 S
C695   N728    1.367   .     A
C695   H723    1.079   .     S
C695   C1154   1.414   1_545 S
C696   N727    1.367   .     A
C696   H724    1.080   .     S
C696   C925    1.414   .     S
C697   H725    1.080   .     S
C697   N728    1.367   .     A
C697   C1152   1.414   1_545 S
C698   H726    1.081   .     S
C698   N727    1.367   .     A
C698   C923    1.414   .     S
C699   C704    1.459   .     S
C699   O736    1.294   .     A
C699   O733    1.294   .     A
C700   O735    1.294   .     A
C700   O734    1.294   .     A
C700   C703    1.459   .     S
C701   H717    1.083   .     S
C701   C711    1.400   .     A
C701   C703    1.400   .     A
C702   C712    1.401   .     A
C702   H718    1.083   .     S
C702   C704    1.400   .     A
C703   C705    1.399   .     A
C704   C706    1.398   .     A
C705   C707    1.392   .     A
C705   H719    1.085   .     S
C706   C708    1.392   .     A
C706   H720    1.084   .     S
C707   C713    1.399   .     A
C707   C709    1.412   .     A
C708   C710    1.411   .     A
C708   C714    1.399   .     A
C709   C711    1.417   .     A
C709   C26     1.404   1_556 S
C710   C712    1.417   .     A
C713   H721    1.085   .     S
C713   C3      1.395   1_556 S
C714   H722    1.085   .     S
Cu715  N727    2.014   .     S
Cu715  O731    1.981   .     S
Cu715  O733    1.967   .     S
Cu715  O735    1.967   .     S
Cu715  Cu716   2.679   .     S
Cu715  O729    1.982   .     S
Cu716  O736    1.967   .     S
Cu716  O732    1.981   .     S
Cu716  N728    2.014   .     S
Cu716  O734    1.967   .     S
Cu716  O730    1.982   .     S
C737   N738    1.157   .     T
C739   N740    1.157   .     T
S741   O743    1.502   .     D
S741   O744    1.682   .     S
S741   O742    1.503   .     D
O744   H745    0.990   .     S
S746   O748    1.503   .     D
S746   O747    1.502   .     D
S746   O749    1.682   .     S
O749   H750    0.990   .     S
S751   O752    1.502   .     D
S751   O753    1.503   .     D
S751   O754    1.683   .     S
O754   H755    0.990   .     S
S756   O759    1.683   .     S
S756   O758    1.502   .     D
S756   O757    1.502   .     D
O759   H760    0.991   .     S
C761   C770    1.471   .     S
C761   O808    1.296   .     A
C761   O805    1.296   .     A
C762   O806    1.294   .     A
C762   O807    1.292   .     A
C762   C769    1.458   .     S
C763   C788    1.414   .     A
C763   C813    1.446   .     S
C764   C815    1.446   .     S
C764   C787    1.414   .     A
C764   C106    1.395   1_556 S
C765   S817    1.780   .     S
C765   C770    1.420   .     A
C766   C769    1.413   .     A
C766   S822    1.784   .     S
C766   C844    1.395   .     S
C767   C769    1.411   .     A
C767   S827    1.781   .     S
C767   C841    1.393   .     S
C768   S832    1.781   .     S
C768   C770    1.422   .     A
C771   N804    1.367   .     A
C771   H799    1.079   .     S
C771   C1230   1.414   1_545 S
C772   N803    1.367   .     A
C772   H800    1.080   .     S
C772   C1001   1.414   .     S
C773   H801    1.080   .     S
C773   N804    1.367   .     A
C773   C1228   1.414   1_545 S
C774   H802    1.081   .     S
C774   N803    1.367   .     A
C774   C999    1.414   .     S
C775   C780    1.459   .     S
C775   O812    1.294   .     A
C775   O809    1.294   .     A
C776   O811    1.294   .     A
C776   O810    1.294   .     A
C776   C779    1.459   .     S
C777   H793    1.083   .     S
C777   C787    1.400   .     A
C777   C779    1.400   .     A
C778   C788    1.401   .     A
C778   H794    1.083   .     S
C778   C780    1.400   .     A
C779   C781    1.399   .     A
C780   C782    1.398   .     A
C781   C783    1.392   .     A
C781   H795    1.085   .     S
C782   C784    1.392   .     A
C782   H796    1.084   .     S
C783   C789    1.399   .     A
C783   C785    1.412   .     A
C784   C786    1.411   .     A
C784   C790    1.399   .     A
C785   C787    1.417   .     A
C785   C102    1.404   1_556 S
C786   C788    1.417   .     A
C789   H797    1.085   .     S
C789   C79     1.395   1_556 S
C790   H798    1.085   .     S
Cu791  N803    2.014   .     S
Cu791  O807    1.981   .     S
Cu791  O809    1.967   .     S
Cu791  O811    1.967   .     S
Cu791  Cu792   2.679   .     S
Cu791  O805    1.982   .     S
Cu792  O812    1.967   .     S
Cu792  O808    1.981   .     S
Cu792  N804    2.014   .     S
Cu792  O810    1.967   .     S
Cu792  O806    1.982   .     S
C813   N814    1.157   .     T
C815   N816    1.157   .     T
S817   O819    1.502   .     D
S817   O820    1.682   .     S
S817   O818    1.503   .     D
O820   H821    0.990   .     S
S822   O824    1.503   .     D
S822   O823    1.502   .     D
S822   O825    1.682   .     S
O825   H826    0.990   .     S
S827   O828    1.502   .     D
S827   O829    1.503   .     D
S827   O830    1.683   .     S
O830   H831    0.990   .     S
S832   O835    1.683   .     S
S832   O834    1.502   .     D
S832   O833    1.502   .     D
O835   H836    0.991   .     S
C837   C846    1.471   .     S
C837   O884    1.296   .     A
C837   O881    1.296   .     A
C838   O882    1.294   .     A
C838   O883    1.292   .     A
C838   C845    1.458   .     S
C839   C864    1.414   .     A
C839   C889    1.446   .     S
C840   C891    1.446   .     S
C840   C863    1.414   .     A
C840   C182    1.395   1_556 S
C841   S893    1.780   .     S
C841   C846    1.420   .     A
C842   C845    1.413   .     A
C842   S898    1.784   .     S
C842   C692    1.395   1_655 S
C843   C845    1.411   .     A
C843   S903    1.781   .     S
C843   C689    1.393   1_655 S
C844   S908    1.781   .     S
C844   C846    1.422   .     A
C847   N880    1.367   .     A
C847   H875    1.079   .     S
C847   C1306   1.414   1_545 S
C848   N879    1.367   .     A
C848   H876    1.080   .     S
C848   C1077   1.414   .     S
C849   H877    1.080   .     S
C849   N880    1.367   .     A
C849   C1304   1.414   1_545 S
C850   H878    1.081   .     S
C850   N879    1.367   .     A
C850   C1075   1.414   .     S
C851   C856    1.459   .     S
C851   O888    1.294   .     A
C851   O885    1.294   .     A
C852   O887    1.294   .     A
C852   O886    1.294   .     A
C852   C855    1.459   .     S
C853   H869    1.083   .     S
C853   C863    1.400   .     A
C853   C855    1.400   .     A
C854   C864    1.401   .     A
C854   H870    1.083   .     S
C854   C856    1.400   .     A
C855   C857    1.399   .     A
C856   C858    1.398   .     A
C857   C859    1.392   .     A
C857   H871    1.085   .     S
C858   C860    1.392   .     A
C858   H872    1.084   .     S
C859   C865    1.399   .     A
C859   C861    1.412   .     A
C860   C862    1.411   .     A
C860   C866    1.399   .     A
C861   C863    1.417   .     A
C861   C178    1.404   1_556 S
C862   C864    1.417   .     A
C865   H873    1.085   .     S
C865   C155    1.395   1_556 S
C866   H874    1.085   .     S
Cu867  N879    2.014   .     S
Cu867  O883    1.981   .     S
Cu867  O885    1.967   .     S
Cu867  O887    1.967   .     S
Cu867  Cu868   2.679   .     S
Cu867  O881    1.982   .     S
Cu868  O888    1.967   .     S
Cu868  O884    1.981   .     S
Cu868  N880    2.014   .     S
Cu868  O886    1.967   .     S
Cu868  O882    1.982   .     S
C889   N890    1.157   .     T
C891   N892    1.157   .     T
S893   O895    1.502   .     D
S893   O896    1.682   .     S
S893   O894    1.503   .     D
O896   H897    0.990   .     S
S898   O900    1.503   .     D
S898   O899    1.502   .     D
S898   O901    1.682   .     S
O901   H902    0.990   .     S
S903   O904    1.502   .     D
S903   O905    1.503   .     D
S903   O906    1.683   .     S
O906   H907    0.990   .     S
S908   O911    1.683   .     S
S908   O910    1.502   .     D
S908   O909    1.502   .     D
O911   H912    0.991   .     S
C913   C922    1.471   .     S
C913   O960    1.296   .     A
C913   O957    1.296   .     A
C914   O958    1.294   .     A
C914   O959    1.292   .     A
C914   C921    1.458   .     S
C915   C940    1.414   .     A
C915   C965    1.446   .     S
C916   C967    1.446   .     S
C916   C939    1.414   .     A
C916   C258    1.395   1_556 S
C917   S969    1.780   .     S
C917   C922    1.420   .     A
C917   C1071   1.393   1_455 S
C918   C921    1.413   .     A
C918   S974    1.784   .     S
C918   C996    1.395   .     S
C919   C921    1.411   .     A
C919   S979    1.781   .     S
C919   C993    1.393   .     S
C920   S984    1.781   .     S
C920   C922    1.422   .     A
C920   C1070   1.395   1_455 S
C923   N956    1.367   .     A
C923   H951    1.079   .     S
C924   N955    1.367   .     A
C924   H952    1.080   .     S
C924   C1153   1.414   .     S
C925   H953    1.080   .     S
C925   N956    1.367   .     A
C926   H954    1.081   .     S
C926   N955    1.367   .     A
C926   C1151   1.414   .     S
C927   C932    1.459   .     S
C927   O964    1.294   .     A
C927   O961    1.294   .     A
C928   O963    1.294   .     A
C928   O962    1.294   .     A
C928   C931    1.459   .     S
C929   H945    1.083   .     S
C929   C939    1.400   .     A
C929   C931    1.400   .     A
C930   C940    1.401   .     A
C930   H946    1.083   .     S
C930   C932    1.400   .     A
C931   C933    1.399   .     A
C932   C934    1.398   .     A
C933   C935    1.392   .     A
C933   H947    1.085   .     S
C934   C936    1.392   .     A
C934   H948    1.084   .     S
C935   C941    1.399   .     A
C935   C937    1.412   .     A
C936   C938    1.411   .     A
C936   C942    1.399   .     A
C937   C939    1.417   .     A
C937   C254    1.404   1_556 S
C938   C940    1.417   .     A
C941   H949    1.085   .     S
C941   C231    1.395   1_556 S
C942   H950    1.085   .     S
Cu943  N955    2.014   .     S
Cu943  O959    1.981   .     S
Cu943  O961    1.967   .     S
Cu943  O963    1.967   .     S
Cu943  Cu944   2.679   .     S
Cu943  O957    1.982   .     S
Cu944  O964    1.967   .     S
Cu944  O960    1.981   .     S
Cu944  N956    2.014   .     S
Cu944  O962    1.967   .     S
Cu944  O958    1.982   .     S
C965   N966    1.157   .     T
C967   N968    1.157   .     T
S969   O971    1.502   .     D
S969   O972    1.682   .     S
S969   O970    1.503   .     D
O972   H973    0.990   .     S
S974   O976    1.503   .     D
S974   O975    1.502   .     D
S974   O977    1.682   .     S
O977   H978    0.990   .     S
S979   O980    1.502   .     D
S979   O981    1.503   .     D
S979   O982    1.683   .     S
O982   H983    0.990   .     S
S984   O987    1.683   .     S
S984   O986    1.502   .     D
S984   O985    1.502   .     D
O987   H988    0.991   .     S
C989   C998    1.471   .     S
C989   O1036   1.296   .     A
C989   O1033   1.296   .     A
C990   O1034   1.294   .     A
C990   O1035   1.292   .     A
C990   C997    1.458   .     S
C991   C1016   1.414   .     A
C991   C1041   1.446   .     S
C992   C1043   1.446   .     S
C992   C1015   1.414   .     A
C992   C334    1.395   1_556 S
C993   S1045   1.780   .     S
C993   C998    1.420   .     A
C994   C997    1.413   .     A
C994   S1050   1.784   .     S
C994   C1072   1.395   .     S
C995   C997    1.411   .     A
C995   S1055   1.781   .     S
C995   C1069   1.393   .     S
C996   S1060   1.781   .     S
C996   C998    1.422   .     A
C999   N1032   1.367   .     A
C999   H1027   1.079   .     S
C1000  N1031   1.367   .     A
C1000  H1028   1.080   .     S
C1000  C1229   1.414   .     S
C1001  H1029   1.080   .     S
C1001  N1032   1.367   .     A
C1002  H1030   1.081   .     S
C1002  N1031   1.367   .     A
C1002  C1227   1.414   .     S
C1003  C1008   1.459   .     S
C1003  O1040   1.294   .     A
C1003  O1037   1.294   .     A
C1004  O1039   1.294   .     A
C1004  O1038   1.294   .     A
C1004  C1007   1.459   .     S
C1005  H1021   1.083   .     S
C1005  C1015   1.400   .     A
C1005  C1007   1.400   .     A
C1006  C1016   1.401   .     A
C1006  H1022   1.083   .     S
C1006  C1008   1.400   .     A
C1007  C1009   1.399   .     A
C1008  C1010   1.398   .     A
C1009  C1011   1.392   .     A
C1009  H1023   1.085   .     S
C1010  C1012   1.392   .     A
C1010  H1024   1.084   .     S
C1011  C1017   1.399   .     A
C1011  C1013   1.412   .     A
C1012  C1014   1.411   .     A
C1012  C1018   1.399   .     A
C1013  C1015   1.417   .     A
C1013  C330    1.404   1_556 S
C1014  C1016   1.417   .     A
C1017  H1025   1.085   .     S
C1017  C307    1.395   1_556 S
C1018  H1026   1.085   .     S
Cu1019 N1031   2.014   .     S
Cu1019 O1035   1.981   .     S
Cu1019 O1037   1.967   .     S
Cu1019 O1039   1.967   .     S
Cu1019 Cu1020  2.679   .     S
Cu1019 O1033   1.982   .     S
Cu1020 O1040   1.967   .     S
Cu1020 O1036   1.981   .     S
Cu1020 N1032   2.014   .     S
Cu1020 O1038   1.967   .     S
Cu1020 O1034   1.982   .     S
C1041  N1042   1.157   .     T
C1043  N1044   1.157   .     T
S1045  O1047   1.502   .     D
S1045  O1048   1.682   .     S
S1045  O1046   1.503   .     D
O1048  H1049   0.990   .     S
S1050  O1052   1.503   .     D
S1050  O1051   1.502   .     D
S1050  O1053   1.682   .     S
O1053  H1054   0.990   .     S
S1055  O1056   1.502   .     D
S1055  O1057   1.503   .     D
S1055  O1058   1.683   .     S
O1058  H1059   0.990   .     S
S1060  O1063   1.683   .     S
S1060  O1062   1.502   .     D
S1060  O1061   1.502   .     D
O1063  H1064   0.991   .     S
C1065  C1074   1.471   .     S
C1065  O1112   1.296   .     A
C1065  O1109   1.296   .     A
C1066  O1110   1.294   .     A
C1066  O1111   1.292   .     A
C1066  C1073   1.458   .     S
C1067  C1092   1.414   .     A
C1067  C1117   1.446   .     S
C1068  C1119   1.446   .     S
C1068  C1091   1.414   .     A
C1068  C410    1.395   1_556 S
C1069  S1121   1.780   .     S
C1069  C1074   1.420   .     A
C1070  C1073   1.413   .     A
C1070  S1126   1.784   .     S
C1070  C920    1.395   1_655 S
C1071  C1073   1.411   .     A
C1071  S1131   1.781   .     S
C1071  C917    1.393   1_655 S
C1072  S1136   1.781   .     S
C1072  C1074   1.422   .     A
C1075  N1108   1.367   .     A
C1075  H1103   1.079   .     S
C1076  N1107   1.367   .     A
C1076  H1104   1.080   .     S
C1076  C1305   1.414   .     S
C1077  H1105   1.080   .     S
C1077  N1108   1.367   .     A
C1078  H1106   1.081   .     S
C1078  N1107   1.367   .     A
C1078  C1303   1.414   .     S
C1079  C1084   1.459   .     S
C1079  O1116   1.294   .     A
C1079  O1113   1.294   .     A
C1080  O1115   1.294   .     A
C1080  O1114   1.294   .     A
C1080  C1083   1.459   .     S
C1081  H1097   1.083   .     S
C1081  C1091   1.400   .     A
C1081  C1083   1.400   .     A
C1082  C1092   1.401   .     A
C1082  H1098   1.083   .     S
C1082  C1084   1.400   .     A
C1083  C1085   1.399   .     A
C1084  C1086   1.398   .     A
C1085  C1087   1.392   .     A
C1085  H1099   1.085   .     S
C1086  C1088   1.392   .     A
C1086  H1100   1.084   .     S
C1087  C1093   1.399   .     A
C1087  C1089   1.412   .     A
C1088  C1090   1.411   .     A
C1088  C1094   1.399   .     A
C1089  C1091   1.417   .     A
C1089  C406    1.404   1_556 S
C1090  C1092   1.417   .     A
C1093  H1101   1.085   .     S
C1093  C383    1.395   1_556 S
C1094  H1102   1.085   .     S
Cu1095 N1107   2.014   .     S
Cu1095 O1111   1.981   .     S
Cu1095 O1113   1.967   .     S
Cu1095 O1115   1.967   .     S
Cu1095 Cu1096  2.679   .     S
Cu1095 O1109   1.982   .     S
Cu1096 O1116   1.967   .     S
Cu1096 O1112   1.981   .     S
Cu1096 N1108   2.014   .     S
Cu1096 O1114   1.967   .     S
Cu1096 O1110   1.982   .     S
C1117  N1118   1.157   .     T
C1119  N1120   1.157   .     T
S1121  O1123   1.502   .     D
S1121  O1124   1.682   .     S
S1121  O1122   1.503   .     D
O1124  H1125   0.990   .     S
S1126  O1128   1.503   .     D
S1126  O1127   1.502   .     D
S1126  O1129   1.682   .     S
O1129  H1130   0.990   .     S
S1131  O1132   1.502   .     D
S1131  O1133   1.503   .     D
S1131  O1134   1.683   .     S
O1134  H1135   0.990   .     S
S1136  O1139   1.683   .     S
S1136  O1138   1.502   .     D
S1136  O1137   1.502   .     D
O1139  H1140   0.991   .     S
C1141  C1150   1.471   .     S
C1141  O1188   1.296   .     A
C1141  O1185   1.296   .     A
C1142  O1186   1.294   .     A
C1142  O1187   1.292   .     A
C1142  C1149   1.458   .     S
C1143  C1168   1.414   .     A
C1143  C1193   1.446   .     S
C1144  C1195   1.446   .     S
C1144  C1167   1.414   .     A
C1144  C486    1.395   1_556 S
C1145  S1197   1.780   .     S
C1145  C1150   1.420   .     A
C1145  C1299   1.393   1_455 S
C1146  C1149   1.413   .     A
C1146  S1202   1.784   .     S
C1146  C1224   1.395   .     S
C1147  C1149   1.411   .     A
C1147  S1207   1.781   .     S
C1147  C1221   1.393   .     S
C1148  S1212   1.781   .     S
C1148  C1150   1.422   .     A
C1148  C1298   1.395   1_455 S
C1151  N1184   1.367   .     A
C1151  H1179   1.079   .     S
C1152  N1183   1.367   .     A
C1152  H1180   1.080   .     S
C1152  C697    1.414   1_565 S
C1153  H1181   1.080   .     S
C1153  N1184   1.367   .     A
C1154  H1182   1.081   .     S
C1154  N1183   1.367   .     A
C1154  C695    1.414   1_565 S
C1155  C1160   1.459   .     S
C1155  O1192   1.294   .     A
C1155  O1189   1.294   .     A
C1156  O1191   1.294   .     A
C1156  O1190   1.294   .     A
C1156  C1159   1.459   .     S
C1157  H1173   1.083   .     S
C1157  C1167   1.400   .     A
C1157  C1159   1.400   .     A
C1158  C1168   1.401   .     A
C1158  H1174   1.083   .     S
C1158  C1160   1.400   .     A
C1159  C1161   1.399   .     A
C1160  C1162   1.398   .     A
C1161  C1163   1.392   .     A
C1161  H1175   1.085   .     S
C1162  C1164   1.392   .     A
C1162  H1176   1.084   .     S
C1163  C1169   1.399   .     A
C1163  C1165   1.412   .     A
C1164  C1166   1.411   .     A
C1164  C1170   1.399   .     A
C1165  C1167   1.417   .     A
C1165  C482    1.404   1_556 S
C1166  C1168   1.417   .     A
C1169  H1177   1.085   .     S
C1169  C459    1.395   1_556 S
C1170  H1178   1.085   .     S
Cu1171 N1183   2.014   .     S
Cu1171 O1187   1.981   .     S
Cu1171 O1189   1.967   .     S
Cu1171 O1191   1.967   .     S
Cu1171 Cu1172  2.679   .     S
Cu1171 O1185   1.982   .     S
Cu1172 O1192   1.967   .     S
Cu1172 O1188   1.981   .     S
Cu1172 N1184   2.014   .     S
Cu1172 O1190   1.967   .     S
Cu1172 O1186   1.982   .     S
C1193  N1194   1.157   .     T
C1195  N1196   1.157   .     T
S1197  O1199   1.502   .     D
S1197  O1200   1.682   .     S
S1197  O1198   1.503   .     D
O1200  H1201   0.990   .     S
S1202  O1204   1.503   .     D
S1202  O1203   1.502   .     D
S1202  O1205   1.682   .     S
O1205  H1206   0.990   .     S
S1207  O1208   1.502   .     D
S1207  O1209   1.503   .     D
S1207  O1210   1.683   .     S
O1210  H1211   0.990   .     S
S1212  O1215   1.683   .     S
S1212  O1214   1.502   .     D
S1212  O1213   1.502   .     D
O1215  H1216   0.991   .     S
C1217  C1226   1.471   .     S
C1217  O1264   1.296   .     A
C1217  O1261   1.296   .     A
C1218  O1262   1.294   .     A
C1218  O1263   1.292   .     A
C1218  C1225   1.458   .     S
C1219  C1244   1.414   .     A
C1219  C1269   1.446   .     S
C1220  C1271   1.446   .     S
C1220  C1243   1.414   .     A
C1220  C562    1.395   1_556 S
C1221  S1273   1.780   .     S
C1221  C1226   1.420   .     A
C1222  C1225   1.413   .     A
C1222  S1278   1.784   .     S
C1222  C1300   1.395   .     S
C1223  C1225   1.411   .     A
C1223  S1283   1.781   .     S
C1223  C1297   1.393   .     S
C1224  S1288   1.781   .     S
C1224  C1226   1.422   .     A
C1227  N1260   1.367   .     A
C1227  H1255   1.079   .     S
C1228  N1259   1.367   .     A
C1228  H1256   1.080   .     S
C1228  C773    1.414   1_565 S
C1229  H1257   1.080   .     S
C1229  N1260   1.367   .     A
C1230  H1258   1.081   .     S
C1230  N1259   1.367   .     A
C1230  C771    1.414   1_565 S
C1231  C1236   1.459   .     S
C1231  O1268   1.294   .     A
C1231  O1265   1.294   .     A
C1232  O1267   1.294   .     A
C1232  O1266   1.294   .     A
C1232  C1235   1.459   .     S
C1233  H1249   1.083   .     S
C1233  C1243   1.400   .     A
C1233  C1235   1.400   .     A
C1234  C1244   1.401   .     A
C1234  H1250   1.083   .     S
C1234  C1236   1.400   .     A
C1235  C1237   1.399   .     A
C1236  C1238   1.398   .     A
C1237  C1239   1.392   .     A
C1237  H1251   1.085   .     S
C1238  C1240   1.392   .     A
C1238  H1252   1.084   .     S
C1239  C1245   1.399   .     A
C1239  C1241   1.412   .     A
C1240  C1242   1.411   .     A
C1240  C1246   1.399   .     A
C1241  C1243   1.417   .     A
C1241  C558    1.404   1_556 S
C1242  C1244   1.417   .     A
C1245  H1253   1.085   .     S
C1245  C535    1.395   1_556 S
C1246  H1254   1.085   .     S
Cu1247 N1259   2.014   .     S
Cu1247 O1263   1.981   .     S
Cu1247 O1265   1.967   .     S
Cu1247 O1267   1.967   .     S
Cu1247 Cu1248  2.679   .     S
Cu1247 O1261   1.982   .     S
Cu1248 O1268   1.967   .     S
Cu1248 O1264   1.981   .     S
Cu1248 N1260   2.014   .     S
Cu1248 O1266   1.967   .     S
Cu1248 O1262   1.982   .     S
C1269  N1270   1.157   .     T
C1271  N1272   1.157   .     T
S1273  O1275   1.502   .     D
S1273  O1276   1.682   .     S
S1273  O1274   1.503   .     D
O1276  H1277   0.990   .     S
S1278  O1280   1.503   .     D
S1278  O1279   1.502   .     D
S1278  O1281   1.682   .     S
O1281  H1282   0.990   .     S
S1283  O1284   1.502   .     D
S1283  O1285   1.503   .     D
S1283  O1286   1.683   .     S
O1286  H1287   0.990   .     S
S1288  O1291   1.683   .     S
S1288  O1290   1.502   .     D
S1288  O1289   1.502   .     D
O1291  H1292   0.991   .     S
C1293  C1302   1.471   .     S
C1293  O1340   1.296   .     A
C1293  O1337   1.296   .     A
C1294  O1338   1.294   .     A
C1294  O1339   1.292   .     A
C1294  C1301   1.458   .     S
C1295  C1320   1.414   .     A
C1295  C1345   1.446   .     S
C1296  C1347   1.446   .     S
C1296  C1319   1.414   .     A
C1296  C638    1.395   1_556 S
C1297  S1349   1.780   .     S
C1297  C1302   1.420   .     A
C1298  C1301   1.413   .     A
C1298  S1354   1.784   .     S
C1298  C1148   1.395   1_655 S
C1299  C1301   1.411   .     A
C1299  S1359   1.781   .     S
C1299  C1145   1.393   1_655 S
C1300  S1364   1.781   .     S
C1300  C1302   1.422   .     A
C1303  N1336   1.367   .     A
C1303  H1331   1.079   .     S
C1304  N1335   1.367   .     A
C1304  H1332   1.080   .     S
C1304  C849    1.414   1_565 S
C1305  H1333   1.080   .     S
C1305  N1336   1.367   .     A
C1306  H1334   1.081   .     S
C1306  N1335   1.367   .     A
C1306  C847    1.414   1_565 S
C1307  C1312   1.459   .     S
C1307  O1344   1.294   .     A
C1307  O1341   1.294   .     A
C1308  O1343   1.294   .     A
C1308  O1342   1.294   .     A
C1308  C1311   1.459   .     S
C1309  H1325   1.083   .     S
C1309  C1319   1.400   .     A
C1309  C1311   1.400   .     A
C1310  C1320   1.401   .     A
C1310  H1326   1.083   .     S
C1310  C1312   1.400   .     A
C1311  C1313   1.399   .     A
C1312  C1314   1.398   .     A
C1313  C1315   1.392   .     A
C1313  H1327   1.085   .     S
C1314  C1316   1.392   .     A
C1314  H1328   1.084   .     S
C1315  C1321   1.399   .     A
C1315  C1317   1.412   .     A
C1316  C1318   1.411   .     A
C1316  C1322   1.399   .     A
C1317  C1319   1.417   .     A
C1317  C634    1.404   1_556 S
C1318  C1320   1.417   .     A
C1321  H1329   1.085   .     S
C1321  C611    1.395   1_556 S
C1322  H1330   1.085   .     S
Cu1323 N1335   2.014   .     S
Cu1323 O1339   1.981   .     S
Cu1323 O1341   1.967   .     S
Cu1323 O1343   1.967   .     S
Cu1323 Cu1324  2.679   .     S
Cu1323 O1337   1.982   .     S
Cu1324 O1344   1.967   .     S
Cu1324 O1340   1.981   .     S
Cu1324 N1336   2.014   .     S
Cu1324 O1342   1.967   .     S
Cu1324 O1338   1.982   .     S
C1345  N1346   1.157   .     T
C1347  N1348   1.157   .     T
S1349  O1351   1.502   .     D
S1349  O1352   1.682   .     S
S1349  O1350   1.503   .     D
O1352  H1353   0.990   .     S
S1354  O1356   1.503   .     D
S1354  O1355   1.502   .     D
S1354  O1357   1.682   .     S
O1357  H1358   0.990   .     S
S1359  O1360   1.502   .     D
S1359  O1361   1.503   .     D
S1359  O1362   1.683   .     S
O1362  H1363   0.990   .     S
S1364  O1367   1.683   .     S
S1364  O1366   1.502   .     D
S1364  O1365   1.502   .     D
O1367  H1368   0.991   .     S
