data_str_m2_o1_o18_pcu_sym.67
_audit_creation_date              2020-01-03
_audit_creation_method            'Materials Studio'
_symmetry_space_group_name_H-M    'P1'
_symmetry_Int_Tables_number       1
_symmetry_cell_setting            triclinic
loop_
_symmetry_equiv_pos_as_xyz
  x,y,z
_cell_length_a                    28.4881
_cell_length_b                    32.5151
_cell_length_c                    30.6653
_cell_angle_alpha                 89.7442
_cell_angle_beta                  74.3888
_cell_angle_gamma                 90.1139
loop_
_atom_site_label
_atom_site_type_symbol
_atom_site_fract_x
_atom_site_fract_y
_atom_site_fract_z
_atom_site_U_iso_or_equiv
_atom_site_adp_type
_atom_site_occupancy
C1     C     0.33323   0.08735   0.24992   0.00000  Uiso   1.00
C2     C     0.03802   0.02166   0.26047   0.00000  Uiso   1.00
C3     C     0.00008   0.29058   0.25079   0.00000  Uiso   1.00
C4     C     0.33289   0.04275   0.25013   0.00000  Uiso   1.00
C5     C     0.18355   0.14026   0.27728   0.00000  Uiso   1.00
C6     C     0.14979   0.19297   0.22258   0.00000  Uiso   1.00
C7     C     0.13386   0.14037   0.27747   0.00000  Uiso   1.00
C8     C     0.19940   0.19309   0.22268   0.00000  Uiso   1.00
C9     C     0.30616   0.16819   0.33622   0.00000  Uiso   1.00
C10    C     0.02719   0.16216   0.16379   0.00000  Uiso   1.00
C11    C     0.29158   0.17329   0.38567   0.00000  Uiso   1.00
C12    C     0.00001   0.24599   0.25038   0.00000  Uiso   1.00
C13    C     0.04229   0.15269   0.11426   0.00000  Uiso   1.00
C14    C     0.29711   0.20866   0.45374   0.00000  Uiso   1.00
C15    C     0.02647   0.14369   0.04042   0.00000  Uiso   1.00
C16    C     0.31459   0.20293   0.40697   0.00000  Uiso   1.00
C17    C     0.00848   0.14854   0.08745   0.00000  Uiso   1.00
C18    C     0.25109   0.15081   0.41172   0.00000  Uiso   1.00
C19    C     0.09265   0.14679   0.09282   0.00000  Uiso   1.00
C20    C     0.22661   0.16560   0.45527   0.00000  Uiso   1.00
C21    C     0.10938   0.15301   0.04550   0.00000  Uiso   1.00
C22    C     0.25271   0.19121   0.47784   0.00000  Uiso   1.00
C23    C     0.18674   0.18632   0.04642   0.00000  Uiso   1.00
C24    C     0.07634   0.14674   0.01920   0.00000  Uiso   1.00
C25    C     0.17660   0.15749   0.47645   0.00000  Uiso   1.00
C26    C     0.15809   0.16428   0.02351   0.00000  Uiso   1.00
C27    C     0.12472   0.12364   0.11787   0.00000  Uiso   1.00
C28    C     0.15434   0.08854   0.09046   0.00000  Uiso   1.00
C29    C     0.23892   0.10853   0.39593   0.00000  Uiso   1.00
C30    C     0.28228   0.07912   0.38780   0.00000  Uiso   1.00
C31    C     0.28690   0.14632   0.10694   0.00000  Uiso   1.00
C32    C     0.27092   0.10564   0.13176   0.00000  Uiso   1.00
C33    C     0.02218   0.23080   0.38109   0.00000  Uiso   1.00
C34    C     0.14335   0.14796   0.45112   0.00000  Uiso   1.00
C35    C     0.07203   0.21367   0.38095   0.00000  Uiso   1.00
C36    C     0.23272   0.20090   0.02350   0.00000  Uiso   1.00
C37    C     0.09375   0.14354   0.47208   0.00000  Uiso   1.00
C38    C     0.29441   0.02088   0.24030   0.00000  Uiso   1.00
C39    C     0.03839   0.31245   0.26093   0.00000  Uiso   1.00
C40    C     0.29482   0.31169   0.24071   0.00000  Uiso   1.00
Cu41   Cu    0.04689   0.16667   0.25000   0.00000  Uiso   1.00
Cu42   Cu    0.28645   0.16666   0.25000   0.00000  Uiso   1.00
F43    F     0.25728   0.22513   0.04594   0.00000  Uiso   1.00
F44    F     0.06285   0.13571   0.44621   0.00000  Uiso   1.00
F45    F     0.25680   0.04030   0.22959   0.00000  Uiso   1.00
F46    F     0.07586   0.29299   0.27186   0.00000  Uiso   1.00
F47    F     0.10247   0.11411   0.30528   0.00000  Uiso   1.00
F48    F     0.23054   0.21992   0.19552   0.00000  Uiso   1.00
H49    H     0.31611   0.22973   0.47045   0.00000  Uiso   1.00
H50    H     0.13099   0.06957   0.07460   0.00000  Uiso   1.00
H51    H     0.18609   0.10042   0.06395   0.00000  Uiso   1.00
H52    H     0.14918   0.14484   0.12968   0.00000  Uiso   1.00
H53    H     0.10135   0.10810   0.14839   0.00000  Uiso   1.00
H54    H     0.31247   0.08920   0.35862   0.00000  Uiso   1.00
H55    H     0.29582   0.07714   0.41850   0.00000  Uiso   1.00
H56    H     0.27068   0.04795   0.38018   0.00000  Uiso   1.00
H57    H     0.20924   0.09331   0.42199   0.00000  Uiso   1.00
H58    H     0.22653   0.11124   0.36477   0.00000  Uiso   1.00
H59    H     0.27783   0.07993   0.10714   0.00000  Uiso   1.00
H60    H     0.00119   0.13890   0.02004   0.00000  Uiso   1.00
H61    H     0.29078   0.09932   0.15755   0.00000  Uiso   1.00
H62    H     0.23129   0.10671   0.14889   0.00000  Uiso   1.00
H63    H     0.27326   0.17310   0.12874   0.00000  Uiso   1.00
H64    H     0.26819   0.14830   0.07959   0.00000  Uiso   1.00
H65    H     0.07630   0.18178   0.36777   0.00000  Uiso   1.00
H66    H     0.10108   0.23316   0.35902   0.00000  Uiso   1.00
H67    H     0.07651   0.21389   0.41581   0.00000  Uiso   1.00
H68    H     0.02029   0.23619   0.34588   0.00000  Uiso   1.00
H69    H     0.01822   0.26178   0.39689   0.00000  Uiso   1.00
H70    H     0.17200   0.19594   0.08107   0.00000  Uiso   1.00
H71    H     0.15483   0.14676   0.41454   0.00000  Uiso   1.00
H72    H     0.26509   0.29535   0.23262   0.00000  Uiso   1.00
H73    H     0.06771   0.03803   0.26860   0.00000  Uiso   1.00
H74    H     0.19598   0.11901   0.29894   0.00000  Uiso   1.00
H75    H     0.13737   0.21403   0.20067   0.00000  Uiso   1.00
H76    H     0.16868   0.06847   0.11328   0.00000  Uiso   1.00
N77    N     0.11736   0.16668   0.24999   0.00000  Uiso   1.00
N78    N     0.21597   0.16666   0.25001   0.00000  Uiso   1.00
O79    O     0.03958   0.10655   0.25000   0.00000  Uiso   1.00
O80    O     0.29375   0.22678   0.25000   0.00000  Uiso   1.00
O81    O     0.29372   0.10654   0.25000   0.00000  Uiso   1.00
O82    O     0.03961   0.22679   0.24999   0.00000  Uiso   1.00
O83    O     0.01852   0.16668   0.31491   0.00000  Uiso   1.00
O84    O     0.31481   0.16666   0.18508   0.00000  Uiso   1.00
O85    O     0.27267   0.16667   0.31492   0.00000  Uiso   1.00
O86    O     0.06067   0.16667   0.18508   0.00000  Uiso   1.00
C87    C     0.66656   0.08735   0.24992   0.00000  Uiso   1.00
C88    C     0.37135   0.02166   0.26047   0.00000  Uiso   1.00
C89    C     0.33342   0.29058   0.25079   0.00000  Uiso   1.00
C90    C     0.66622   0.04275   0.25013   0.00000  Uiso   1.00
C91    C     0.51688   0.14026   0.27728   0.00000  Uiso   1.00
C92    C     0.48313   0.19297   0.22258   0.00000  Uiso   1.00
C93    C     0.46720   0.14037   0.27747   0.00000  Uiso   1.00
C94    C     0.53273   0.19309   0.22268   0.00000  Uiso   1.00
C95    C     0.63949   0.16819   0.33622   0.00000  Uiso   1.00
C96    C     0.36052   0.16216   0.16379   0.00000  Uiso   1.00
C97    C     0.62492   0.17329   0.38567   0.00000  Uiso   1.00
C98    C     0.33334   0.24599   0.25038   0.00000  Uiso   1.00
C99    C     0.37562   0.15269   0.11426   0.00000  Uiso   1.00
C100   C     0.63045   0.20866   0.45374   0.00000  Uiso   1.00
C101   C     0.35980   0.14369   0.04042   0.00000  Uiso   1.00
C102   C     0.64793   0.20293   0.40697   0.00000  Uiso   1.00
C103   C     0.34182   0.14854   0.08745   0.00000  Uiso   1.00
C104   C     0.58443   0.15081   0.41172   0.00000  Uiso   1.00
C105   C     0.42598   0.14679   0.09282   0.00000  Uiso   1.00
C106   C     0.55995   0.16560   0.45527   0.00000  Uiso   1.00
C107   C     0.44271   0.15301   0.04550   0.00000  Uiso   1.00
C108   C     0.58604   0.19121   0.47784   0.00000  Uiso   1.00
C109   C     0.52007   0.18632   0.04642   0.00000  Uiso   1.00
C110   C     0.40967   0.14674   0.01920   0.00000  Uiso   1.00
C111   C     0.50993   0.15749   0.47645   0.00000  Uiso   1.00
C112   C     0.49143   0.16428   0.02351   0.00000  Uiso   1.00
C113   C     0.45805   0.12364   0.11787   0.00000  Uiso   1.00
C114   C     0.48767   0.08854   0.09046   0.00000  Uiso   1.00
C115   C     0.57226   0.10853   0.39593   0.00000  Uiso   1.00
C116   C     0.61562   0.07912   0.38780   0.00000  Uiso   1.00
C117   C     0.62023   0.14632   0.10694   0.00000  Uiso   1.00
C118   C     0.60425   0.10564   0.13176   0.00000  Uiso   1.00
C119   C     0.35551   0.23080   0.38109   0.00000  Uiso   1.00
C120   C     0.47668   0.14796   0.45112   0.00000  Uiso   1.00
C121   C     0.40536   0.21367   0.38095   0.00000  Uiso   1.00
C122   C     0.56605   0.20090   0.02350   0.00000  Uiso   1.00
C123   C     0.42708   0.14354   0.47208   0.00000  Uiso   1.00
C124   C     0.62775   0.02088   0.24030   0.00000  Uiso   1.00
C125   C     0.37173   0.31245   0.26093   0.00000  Uiso   1.00
C126   C     0.62815   0.31169   0.24071   0.00000  Uiso   1.00
Cu127  Cu    0.38022   0.16667   0.25000   0.00000  Uiso   1.00
Cu128  Cu    0.61978   0.16666   0.25000   0.00000  Uiso   1.00
F129   F     0.59062   0.22513   0.04594   0.00000  Uiso   1.00
F130   F     0.39619   0.13571   0.44621   0.00000  Uiso   1.00
F131   F     0.59014   0.04030   0.22959   0.00000  Uiso   1.00
F132   F     0.40919   0.29299   0.27186   0.00000  Uiso   1.00
F133   F     0.43581   0.11411   0.30528   0.00000  Uiso   1.00
F134   F     0.56388   0.21992   0.19552   0.00000  Uiso   1.00
H135   H     0.64944   0.22973   0.47045   0.00000  Uiso   1.00
H136   H     0.46433   0.06957   0.07460   0.00000  Uiso   1.00
H137   H     0.51942   0.10042   0.06395   0.00000  Uiso   1.00
H138   H     0.48252   0.14484   0.12968   0.00000  Uiso   1.00
H139   H     0.43468   0.10810   0.14839   0.00000  Uiso   1.00
H140   H     0.64580   0.08920   0.35862   0.00000  Uiso   1.00
H141   H     0.62916   0.07714   0.41850   0.00000  Uiso   1.00
H142   H     0.60401   0.04795   0.38018   0.00000  Uiso   1.00
H143   H     0.54258   0.09331   0.42199   0.00000  Uiso   1.00
H144   H     0.55986   0.11124   0.36477   0.00000  Uiso   1.00
H145   H     0.61116   0.07993   0.10714   0.00000  Uiso   1.00
H146   H     0.33452   0.13890   0.02004   0.00000  Uiso   1.00
H147   H     0.62412   0.09932   0.15755   0.00000  Uiso   1.00
H148   H     0.56462   0.10671   0.14889   0.00000  Uiso   1.00
H149   H     0.60659   0.17310   0.12874   0.00000  Uiso   1.00
H150   H     0.60153   0.14830   0.07959   0.00000  Uiso   1.00
H151   H     0.40963   0.18178   0.36777   0.00000  Uiso   1.00
H152   H     0.43441   0.23316   0.35902   0.00000  Uiso   1.00
H153   H     0.40985   0.21389   0.41581   0.00000  Uiso   1.00
H154   H     0.35362   0.23619   0.34588   0.00000  Uiso   1.00
H155   H     0.35156   0.26178   0.39689   0.00000  Uiso   1.00
H156   H     0.50533   0.19594   0.08107   0.00000  Uiso   1.00
H157   H     0.48816   0.14676   0.41454   0.00000  Uiso   1.00
H158   H     0.59843   0.29535   0.23262   0.00000  Uiso   1.00
H159   H     0.40105   0.03803   0.26860   0.00000  Uiso   1.00
H160   H     0.52931   0.11901   0.29894   0.00000  Uiso   1.00
H161   H     0.47071   0.21403   0.20067   0.00000  Uiso   1.00
H162   H     0.50202   0.06847   0.11328   0.00000  Uiso   1.00
N163   N     0.45069   0.16668   0.24999   0.00000  Uiso   1.00
N164   N     0.54931   0.16666   0.25001   0.00000  Uiso   1.00
O165   O     0.37291   0.10655   0.25000   0.00000  Uiso   1.00
O166   O     0.62709   0.22678   0.25000   0.00000  Uiso   1.00
O167   O     0.62706   0.10654   0.25000   0.00000  Uiso   1.00
O168   O     0.37294   0.22679   0.24999   0.00000  Uiso   1.00
O169   O     0.35186   0.16668   0.31491   0.00000  Uiso   1.00
O170   O     0.64814   0.16666   0.18508   0.00000  Uiso   1.00
O171   O     0.60600   0.16667   0.31492   0.00000  Uiso   1.00
O172   O     0.39400   0.16667   0.18508   0.00000  Uiso   1.00
C173   C     0.99989   0.08735   0.24992   0.00000  Uiso   1.00
C174   C     0.70469   0.02166   0.26047   0.00000  Uiso   1.00
C175   C     0.66675   0.29058   0.25079   0.00000  Uiso   1.00
C176   C     0.99956   0.04275   0.25013   0.00000  Uiso   1.00
C177   C     0.85021   0.14026   0.27728   0.00000  Uiso   1.00
C178   C     0.81646   0.19297   0.22258   0.00000  Uiso   1.00
C179   C     0.80053   0.14037   0.27747   0.00000  Uiso   1.00
C180   C     0.86606   0.19309   0.22268   0.00000  Uiso   1.00
C181   C     0.97282   0.16819   0.33622   0.00000  Uiso   1.00
C182   C     0.69385   0.16216   0.16379   0.00000  Uiso   1.00
C183   C     0.95825   0.17329   0.38567   0.00000  Uiso   1.00
C184   C     0.66668   0.24599   0.25038   0.00000  Uiso   1.00
C185   C     0.70895   0.15269   0.11426   0.00000  Uiso   1.00
C186   C     0.96378   0.20866   0.45374   0.00000  Uiso   1.00
C187   C     0.69313   0.14369   0.04042   0.00000  Uiso   1.00
C188   C     0.98126   0.20293   0.40697   0.00000  Uiso   1.00
C189   C     0.67515   0.14854   0.08745   0.00000  Uiso   1.00
C190   C     0.91776   0.15081   0.41172   0.00000  Uiso   1.00
C191   C     0.75932   0.14679   0.09282   0.00000  Uiso   1.00
C192   C     0.89328   0.16560   0.45527   0.00000  Uiso   1.00
C193   C     0.77605   0.15301   0.04550   0.00000  Uiso   1.00
C194   C     0.91938   0.19121   0.47784   0.00000  Uiso   1.00
C195   C     0.85341   0.18632   0.04642   0.00000  Uiso   1.00
C196   C     0.74301   0.14674   0.01920   0.00000  Uiso   1.00
C197   C     0.84326   0.15749   0.47645   0.00000  Uiso   1.00
C198   C     0.82476   0.16428   0.02351   0.00000  Uiso   1.00
C199   C     0.79138   0.12364   0.11787   0.00000  Uiso   1.00
C200   C     0.82100   0.08854   0.09046   0.00000  Uiso   1.00
C201   C     0.90559   0.10853   0.39593   0.00000  Uiso   1.00
C202   C     0.94895   0.07912   0.38780   0.00000  Uiso   1.00
C203   C     0.95357   0.14632   0.10694   0.00000  Uiso   1.00
C204   C     0.93758   0.10564   0.13176   0.00000  Uiso   1.00
C205   C     0.68884   0.23080   0.38109   0.00000  Uiso   1.00
C206   C     0.81002   0.14796   0.45112   0.00000  Uiso   1.00
C207   C     0.73869   0.21367   0.38095   0.00000  Uiso   1.00
C208   C     0.89939   0.20090   0.02350   0.00000  Uiso   1.00
C209   C     0.76042   0.14354   0.47208   0.00000  Uiso   1.00
C210   C     0.96108   0.02088   0.24030   0.00000  Uiso   1.00
C211   C     0.70506   0.31245   0.26093   0.00000  Uiso   1.00
C212   C     0.96149   0.31169   0.24071   0.00000  Uiso   1.00
Cu213  Cu    0.71355   0.16667   0.25000   0.00000  Uiso   1.00
Cu214  Cu    0.95311   0.16666   0.25000   0.00000  Uiso   1.00
F215   F     0.92395   0.22513   0.04594   0.00000  Uiso   1.00
F216   F     0.72952   0.13571   0.44621   0.00000  Uiso   1.00
F217   F     0.92347   0.04030   0.22959   0.00000  Uiso   1.00
F218   F     0.74252   0.29299   0.27186   0.00000  Uiso   1.00
F219   F     0.76914   0.11411   0.30528   0.00000  Uiso   1.00
F220   F     0.89721   0.21992   0.19552   0.00000  Uiso   1.00
H221   H     0.98277   0.22973   0.47045   0.00000  Uiso   1.00
H222   H     0.79766   0.06957   0.07460   0.00000  Uiso   1.00
H223   H     0.85275   0.10042   0.06395   0.00000  Uiso   1.00
H224   H     0.81585   0.14484   0.12968   0.00000  Uiso   1.00
H225   H     0.76802   0.10810   0.14839   0.00000  Uiso   1.00
H226   H     0.97914   0.08920   0.35862   0.00000  Uiso   1.00
H227   H     0.96249   0.07714   0.41850   0.00000  Uiso   1.00
H228   H     0.93734   0.04795   0.38018   0.00000  Uiso   1.00
H229   H     0.87591   0.09331   0.42199   0.00000  Uiso   1.00
H230   H     0.89320   0.11124   0.36477   0.00000  Uiso   1.00
H231   H     0.94449   0.07993   0.10714   0.00000  Uiso   1.00
H232   H     0.66785   0.13890   0.02004   0.00000  Uiso   1.00
H233   H     0.95745   0.09932   0.15755   0.00000  Uiso   1.00
H234   H     0.89795   0.10671   0.14889   0.00000  Uiso   1.00
H235   H     0.93993   0.17310   0.12874   0.00000  Uiso   1.00
H236   H     0.93486   0.14830   0.07959   0.00000  Uiso   1.00
H237   H     0.74296   0.18178   0.36777   0.00000  Uiso   1.00
H238   H     0.76774   0.23316   0.35902   0.00000  Uiso   1.00
H239   H     0.74318   0.21389   0.41581   0.00000  Uiso   1.00
H240   H     0.68696   0.23619   0.34588   0.00000  Uiso   1.00
H241   H     0.68489   0.26178   0.39689   0.00000  Uiso   1.00
H242   H     0.83866   0.19594   0.08107   0.00000  Uiso   1.00
H243   H     0.82150   0.14676   0.41454   0.00000  Uiso   1.00
H244   H     0.93176   0.29535   0.23262   0.00000  Uiso   1.00
H245   H     0.73438   0.03803   0.26860   0.00000  Uiso   1.00
H246   H     0.86264   0.11901   0.29894   0.00000  Uiso   1.00
H247   H     0.80404   0.21403   0.20067   0.00000  Uiso   1.00
H248   H     0.83535   0.06847   0.11328   0.00000  Uiso   1.00
N249   N     0.78403   0.16668   0.24999   0.00000  Uiso   1.00
N250   N     0.88264   0.16666   0.25001   0.00000  Uiso   1.00
O251   O     0.70625   0.10655   0.25000   0.00000  Uiso   1.00
O252   O     0.96042   0.22678   0.25000   0.00000  Uiso   1.00
O253   O     0.96039   0.10654   0.25000   0.00000  Uiso   1.00
O254   O     0.70628   0.22679   0.24999   0.00000  Uiso   1.00
O255   O     0.68519   0.16668   0.31491   0.00000  Uiso   1.00
O256   O     0.98148   0.16666   0.18508   0.00000  Uiso   1.00
O257   O     0.93933   0.16667   0.31492   0.00000  Uiso   1.00
O258   O     0.72733   0.16667   0.18508   0.00000  Uiso   1.00
C259   C     0.33323   0.42068   0.24992   0.00000  Uiso   1.00
C260   C     0.03802   0.35499   0.26047   0.00000  Uiso   1.00
C261   C     0.00008   0.62392   0.25079   0.00000  Uiso   1.00
C262   C     0.33289   0.37609   0.25013   0.00000  Uiso   1.00
C263   C     0.18355   0.47359   0.27728   0.00000  Uiso   1.00
C264   C     0.14979   0.52630   0.22258   0.00000  Uiso   1.00
C265   C     0.13386   0.47371   0.27747   0.00000  Uiso   1.00
C266   C     0.19940   0.52642   0.22268   0.00000  Uiso   1.00
C267   C     0.30616   0.50152   0.33622   0.00000  Uiso   1.00
C268   C     0.02719   0.49549   0.16379   0.00000  Uiso   1.00
C269   C     0.29158   0.50663   0.38567   0.00000  Uiso   1.00
C270   C     0.00001   0.57932   0.25038   0.00000  Uiso   1.00
C271   C     0.04229   0.48603   0.11426   0.00000  Uiso   1.00
C272   C     0.29711   0.54199   0.45374   0.00000  Uiso   1.00
C273   C     0.02647   0.47703   0.04042   0.00000  Uiso   1.00
C274   C     0.31459   0.53626   0.40697   0.00000  Uiso   1.00
C275   C     0.00848   0.48187   0.08745   0.00000  Uiso   1.00
C276   C     0.25109   0.48415   0.41172   0.00000  Uiso   1.00
C277   C     0.09265   0.48013   0.09282   0.00000  Uiso   1.00
C278   C     0.22661   0.49894   0.45527   0.00000  Uiso   1.00
C279   C     0.10938   0.48634   0.04550   0.00000  Uiso   1.00
C280   C     0.25271   0.52454   0.47784   0.00000  Uiso   1.00
C281   C     0.18674   0.51965   0.04642   0.00000  Uiso   1.00
C282   C     0.07634   0.48007   0.01920   0.00000  Uiso   1.00
C283   C     0.17660   0.49082   0.47645   0.00000  Uiso   1.00
C284   C     0.15809   0.49761   0.02351   0.00000  Uiso   1.00
C285   C     0.12472   0.45697   0.11787   0.00000  Uiso   1.00
C286   C     0.15434   0.42188   0.09046   0.00000  Uiso   1.00
C287   C     0.23892   0.44187   0.39593   0.00000  Uiso   1.00
C288   C     0.28228   0.41246   0.38780   0.00000  Uiso   1.00
C289   C     0.28690   0.47965   0.10694   0.00000  Uiso   1.00
C290   C     0.27092   0.43897   0.13176   0.00000  Uiso   1.00
C291   C     0.02218   0.56414   0.38109   0.00000  Uiso   1.00
C292   C     0.14335   0.48129   0.45112   0.00000  Uiso   1.00
C293   C     0.07203   0.54701   0.38095   0.00000  Uiso   1.00
C294   C     0.23272   0.53423   0.02350   0.00000  Uiso   1.00
C295   C     0.09375   0.47688   0.47208   0.00000  Uiso   1.00
C296   C     0.29441   0.35421   0.24030   0.00000  Uiso   1.00
C297   C     0.03839   0.64578   0.26093   0.00000  Uiso   1.00
C298   C     0.29482   0.64503   0.24071   0.00000  Uiso   1.00
Cu299  Cu    0.04689   0.50001   0.25000   0.00000  Uiso   1.00
Cu300  Cu    0.28645   0.49999   0.25000   0.00000  Uiso   1.00
F301   F     0.25728   0.55847   0.04594   0.00000  Uiso   1.00
F302   F     0.06285   0.46904   0.44621   0.00000  Uiso   1.00
F303   F     0.25680   0.37363   0.22959   0.00000  Uiso   1.00
F304   F     0.07586   0.62632   0.27186   0.00000  Uiso   1.00
F305   F     0.10247   0.44744   0.30528   0.00000  Uiso   1.00
F306   F     0.23054   0.55325   0.19552   0.00000  Uiso   1.00
H307   H     0.31611   0.56306   0.47045   0.00000  Uiso   1.00
H308   H     0.13099   0.40291   0.07460   0.00000  Uiso   1.00
H309   H     0.18609   0.43375   0.06395   0.00000  Uiso   1.00
H310   H     0.14918   0.47817   0.12968   0.00000  Uiso   1.00
H311   H     0.10135   0.44144   0.14839   0.00000  Uiso   1.00
H312   H     0.31247   0.42253   0.35862   0.00000  Uiso   1.00
H313   H     0.29582   0.41048   0.41850   0.00000  Uiso   1.00
H314   H     0.27068   0.38128   0.38018   0.00000  Uiso   1.00
H315   H     0.20924   0.42664   0.42199   0.00000  Uiso   1.00
H316   H     0.22653   0.44458   0.36477   0.00000  Uiso   1.00
H317   H     0.27783   0.41327   0.10714   0.00000  Uiso   1.00
H318   H     0.00119   0.47223   0.02004   0.00000  Uiso   1.00
H319   H     0.29078   0.43266   0.15755   0.00000  Uiso   1.00
H320   H     0.23129   0.44004   0.14889   0.00000  Uiso   1.00
H321   H     0.27326   0.50644   0.12874   0.00000  Uiso   1.00
H322   H     0.26819   0.48163   0.07959   0.00000  Uiso   1.00
H323   H     0.07630   0.51511   0.36777   0.00000  Uiso   1.00
H324   H     0.10108   0.56649   0.35902   0.00000  Uiso   1.00
H325   H     0.07651   0.54722   0.41581   0.00000  Uiso   1.00
H326   H     0.02029   0.56952   0.34588   0.00000  Uiso   1.00
H327   H     0.01822   0.59511   0.39689   0.00000  Uiso   1.00
H328   H     0.17200   0.52927   0.08107   0.00000  Uiso   1.00
H329   H     0.15483   0.48009   0.41454   0.00000  Uiso   1.00
H330   H     0.26509   0.62868   0.23262   0.00000  Uiso   1.00
H331   H     0.06771   0.37136   0.26860   0.00000  Uiso   1.00
H332   H     0.19598   0.45234   0.29894   0.00000  Uiso   1.00
H333   H     0.13737   0.54736   0.20067   0.00000  Uiso   1.00
H334   H     0.16868   0.40180   0.11328   0.00000  Uiso   1.00
N335   N     0.11736   0.50001   0.24999   0.00000  Uiso   1.00
N336   N     0.21597   0.49999   0.25001   0.00000  Uiso   1.00
O337   O     0.03958   0.43989   0.25000   0.00000  Uiso   1.00
O338   O     0.29375   0.56011   0.25000   0.00000  Uiso   1.00
O339   O     0.29372   0.43988   0.25000   0.00000  Uiso   1.00
O340   O     0.03961   0.56012   0.24999   0.00000  Uiso   1.00
O341   O     0.01852   0.50001   0.31491   0.00000  Uiso   1.00
O342   O     0.31481   0.49999   0.18508   0.00000  Uiso   1.00
O343   O     0.27267   0.50000   0.31492   0.00000  Uiso   1.00
O344   O     0.06067   0.50000   0.18508   0.00000  Uiso   1.00
C345   C     0.66656   0.42068   0.24992   0.00000  Uiso   1.00
C346   C     0.37135   0.35499   0.26047   0.00000  Uiso   1.00
C347   C     0.33342   0.62392   0.25079   0.00000  Uiso   1.00
C348   C     0.66622   0.37609   0.25013   0.00000  Uiso   1.00
C349   C     0.51688   0.47359   0.27728   0.00000  Uiso   1.00
C350   C     0.48313   0.52630   0.22258   0.00000  Uiso   1.00
C351   C     0.46720   0.47371   0.27747   0.00000  Uiso   1.00
C352   C     0.53273   0.52642   0.22268   0.00000  Uiso   1.00
C353   C     0.63949   0.50152   0.33622   0.00000  Uiso   1.00
C354   C     0.36052   0.49549   0.16379   0.00000  Uiso   1.00
C355   C     0.62492   0.50663   0.38567   0.00000  Uiso   1.00
C356   C     0.33334   0.57932   0.25038   0.00000  Uiso   1.00
C357   C     0.37562   0.48603   0.11426   0.00000  Uiso   1.00
C358   C     0.63045   0.54199   0.45374   0.00000  Uiso   1.00
C359   C     0.35980   0.47703   0.04042   0.00000  Uiso   1.00
C360   C     0.64793   0.53626   0.40697   0.00000  Uiso   1.00
C361   C     0.34182   0.48187   0.08745   0.00000  Uiso   1.00
C362   C     0.58443   0.48415   0.41172   0.00000  Uiso   1.00
C363   C     0.42598   0.48013   0.09282   0.00000  Uiso   1.00
C364   C     0.55995   0.49894   0.45527   0.00000  Uiso   1.00
C365   C     0.44271   0.48634   0.04550   0.00000  Uiso   1.00
C366   C     0.58604   0.52454   0.47784   0.00000  Uiso   1.00
C367   C     0.52007   0.51965   0.04642   0.00000  Uiso   1.00
C368   C     0.40967   0.48007   0.01920   0.00000  Uiso   1.00
C369   C     0.50993   0.49082   0.47645   0.00000  Uiso   1.00
C370   C     0.49143   0.49761   0.02351   0.00000  Uiso   1.00
C371   C     0.45805   0.45697   0.11787   0.00000  Uiso   1.00
C372   C     0.48767   0.42188   0.09046   0.00000  Uiso   1.00
C373   C     0.57226   0.44187   0.39593   0.00000  Uiso   1.00
C374   C     0.61562   0.41246   0.38780   0.00000  Uiso   1.00
C375   C     0.62023   0.47965   0.10694   0.00000  Uiso   1.00
C376   C     0.60425   0.43897   0.13176   0.00000  Uiso   1.00
C377   C     0.35551   0.56414   0.38109   0.00000  Uiso   1.00
C378   C     0.47668   0.48129   0.45112   0.00000  Uiso   1.00
C379   C     0.40536   0.54701   0.38095   0.00000  Uiso   1.00
C380   C     0.56605   0.53423   0.02350   0.00000  Uiso   1.00
C381   C     0.42708   0.47688   0.47208   0.00000  Uiso   1.00
C382   C     0.62775   0.35421   0.24030   0.00000  Uiso   1.00
C383   C     0.37173   0.64578   0.26093   0.00000  Uiso   1.00
C384   C     0.62815   0.64503   0.24071   0.00000  Uiso   1.00
Cu385  Cu    0.38022   0.50001   0.25000   0.00000  Uiso   1.00
Cu386  Cu    0.61978   0.49999   0.25000   0.00000  Uiso   1.00
F387   F     0.59062   0.55847   0.04594   0.00000  Uiso   1.00
F388   F     0.39619   0.46904   0.44621   0.00000  Uiso   1.00
F389   F     0.59014   0.37363   0.22959   0.00000  Uiso   1.00
F390   F     0.40919   0.62632   0.27186   0.00000  Uiso   1.00
F391   F     0.43581   0.44744   0.30528   0.00000  Uiso   1.00
F392   F     0.56388   0.55325   0.19552   0.00000  Uiso   1.00
H393   H     0.64944   0.56306   0.47045   0.00000  Uiso   1.00
H394   H     0.46433   0.40291   0.07460   0.00000  Uiso   1.00
H395   H     0.51942   0.43375   0.06395   0.00000  Uiso   1.00
H396   H     0.48252   0.47817   0.12968   0.00000  Uiso   1.00
H397   H     0.43468   0.44144   0.14839   0.00000  Uiso   1.00
H398   H     0.64580   0.42253   0.35862   0.00000  Uiso   1.00
H399   H     0.62916   0.41048   0.41850   0.00000  Uiso   1.00
H400   H     0.60401   0.38128   0.38018   0.00000  Uiso   1.00
H401   H     0.54258   0.42664   0.42199   0.00000  Uiso   1.00
H402   H     0.55986   0.44458   0.36477   0.00000  Uiso   1.00
H403   H     0.61116   0.41327   0.10714   0.00000  Uiso   1.00
H404   H     0.33452   0.47223   0.02004   0.00000  Uiso   1.00
H405   H     0.62412   0.43266   0.15755   0.00000  Uiso   1.00
H406   H     0.56462   0.44004   0.14889   0.00000  Uiso   1.00
H407   H     0.60659   0.50644   0.12874   0.00000  Uiso   1.00
H408   H     0.60153   0.48163   0.07959   0.00000  Uiso   1.00
H409   H     0.40963   0.51511   0.36777   0.00000  Uiso   1.00
H410   H     0.43441   0.56649   0.35902   0.00000  Uiso   1.00
H411   H     0.40985   0.54722   0.41581   0.00000  Uiso   1.00
H412   H     0.35362   0.56952   0.34588   0.00000  Uiso   1.00
H413   H     0.35156   0.59511   0.39689   0.00000  Uiso   1.00
H414   H     0.50533   0.52927   0.08107   0.00000  Uiso   1.00
H415   H     0.48816   0.48009   0.41454   0.00000  Uiso   1.00
H416   H     0.59843   0.62868   0.23262   0.00000  Uiso   1.00
H417   H     0.40105   0.37136   0.26860   0.00000  Uiso   1.00
H418   H     0.52931   0.45234   0.29894   0.00000  Uiso   1.00
H419   H     0.47071   0.54736   0.20067   0.00000  Uiso   1.00
H420   H     0.50202   0.40180   0.11328   0.00000  Uiso   1.00
N421   N     0.45069   0.50001   0.24999   0.00000  Uiso   1.00
N422   N     0.54931   0.49999   0.25001   0.00000  Uiso   1.00
O423   O     0.37291   0.43989   0.25000   0.00000  Uiso   1.00
O424   O     0.62709   0.56011   0.25000   0.00000  Uiso   1.00
O425   O     0.62706   0.43988   0.25000   0.00000  Uiso   1.00
O426   O     0.37294   0.56012   0.24999   0.00000  Uiso   1.00
O427   O     0.35186   0.50001   0.31491   0.00000  Uiso   1.00
O428   O     0.64814   0.49999   0.18508   0.00000  Uiso   1.00
O429   O     0.60600   0.50000   0.31492   0.00000  Uiso   1.00
O430   O     0.39400   0.50000   0.18508   0.00000  Uiso   1.00
C431   C     0.99989   0.42068   0.24992   0.00000  Uiso   1.00
C432   C     0.70469   0.35499   0.26047   0.00000  Uiso   1.00
C433   C     0.66675   0.62392   0.25079   0.00000  Uiso   1.00
C434   C     0.99956   0.37609   0.25013   0.00000  Uiso   1.00
C435   C     0.85021   0.47359   0.27728   0.00000  Uiso   1.00
C436   C     0.81646   0.52630   0.22258   0.00000  Uiso   1.00
C437   C     0.80053   0.47371   0.27747   0.00000  Uiso   1.00
C438   C     0.86606   0.52642   0.22268   0.00000  Uiso   1.00
C439   C     0.97282   0.50152   0.33622   0.00000  Uiso   1.00
C440   C     0.69385   0.49549   0.16379   0.00000  Uiso   1.00
C441   C     0.95825   0.50663   0.38567   0.00000  Uiso   1.00
C442   C     0.66668   0.57932   0.25038   0.00000  Uiso   1.00
C443   C     0.70895   0.48603   0.11426   0.00000  Uiso   1.00
C444   C     0.96378   0.54199   0.45374   0.00000  Uiso   1.00
C445   C     0.69313   0.47703   0.04042   0.00000  Uiso   1.00
C446   C     0.98126   0.53626   0.40697   0.00000  Uiso   1.00
C447   C     0.67515   0.48187   0.08745   0.00000  Uiso   1.00
C448   C     0.91776   0.48415   0.41172   0.00000  Uiso   1.00
C449   C     0.75932   0.48013   0.09282   0.00000  Uiso   1.00
C450   C     0.89328   0.49894   0.45527   0.00000  Uiso   1.00
C451   C     0.77605   0.48634   0.04550   0.00000  Uiso   1.00
C452   C     0.91938   0.52454   0.47784   0.00000  Uiso   1.00
C453   C     0.85341   0.51965   0.04642   0.00000  Uiso   1.00
C454   C     0.74301   0.48007   0.01920   0.00000  Uiso   1.00
C455   C     0.84326   0.49082   0.47645   0.00000  Uiso   1.00
C456   C     0.82476   0.49761   0.02351   0.00000  Uiso   1.00
C457   C     0.79138   0.45697   0.11787   0.00000  Uiso   1.00
C458   C     0.82100   0.42188   0.09046   0.00000  Uiso   1.00
C459   C     0.90559   0.44187   0.39593   0.00000  Uiso   1.00
C460   C     0.94895   0.41246   0.38780   0.00000  Uiso   1.00
C461   C     0.95357   0.47965   0.10694   0.00000  Uiso   1.00
C462   C     0.93758   0.43897   0.13176   0.00000  Uiso   1.00
C463   C     0.68884   0.56414   0.38109   0.00000  Uiso   1.00
C464   C     0.81002   0.48129   0.45112   0.00000  Uiso   1.00
C465   C     0.73869   0.54701   0.38095   0.00000  Uiso   1.00
C466   C     0.89939   0.53423   0.02350   0.00000  Uiso   1.00
C467   C     0.76042   0.47688   0.47208   0.00000  Uiso   1.00
C468   C     0.96108   0.35421   0.24030   0.00000  Uiso   1.00
C469   C     0.70506   0.64578   0.26093   0.00000  Uiso   1.00
C470   C     0.96149   0.64503   0.24071   0.00000  Uiso   1.00
Cu471  Cu    0.71355   0.50001   0.25000   0.00000  Uiso   1.00
Cu472  Cu    0.95311   0.49999   0.25000   0.00000  Uiso   1.00
F473   F     0.92395   0.55847   0.04594   0.00000  Uiso   1.00
F474   F     0.72952   0.46904   0.44621   0.00000  Uiso   1.00
F475   F     0.92347   0.37363   0.22959   0.00000  Uiso   1.00
F476   F     0.74252   0.62632   0.27186   0.00000  Uiso   1.00
F477   F     0.76914   0.44744   0.30528   0.00000  Uiso   1.00
F478   F     0.89721   0.55325   0.19552   0.00000  Uiso   1.00
H479   H     0.98277   0.56306   0.47045   0.00000  Uiso   1.00
H480   H     0.79766   0.40291   0.07460   0.00000  Uiso   1.00
H481   H     0.85275   0.43375   0.06395   0.00000  Uiso   1.00
H482   H     0.81585   0.47817   0.12968   0.00000  Uiso   1.00
H483   H     0.76802   0.44144   0.14839   0.00000  Uiso   1.00
H484   H     0.97914   0.42253   0.35862   0.00000  Uiso   1.00
H485   H     0.96249   0.41048   0.41850   0.00000  Uiso   1.00
H486   H     0.93734   0.38128   0.38018   0.00000  Uiso   1.00
H487   H     0.87591   0.42664   0.42199   0.00000  Uiso   1.00
H488   H     0.89320   0.44458   0.36477   0.00000  Uiso   1.00
H489   H     0.94449   0.41327   0.10714   0.00000  Uiso   1.00
H490   H     0.66785   0.47223   0.02004   0.00000  Uiso   1.00
H491   H     0.95745   0.43266   0.15755   0.00000  Uiso   1.00
H492   H     0.89795   0.44004   0.14889   0.00000  Uiso   1.00
H493   H     0.93993   0.50644   0.12874   0.00000  Uiso   1.00
H494   H     0.93486   0.48163   0.07959   0.00000  Uiso   1.00
H495   H     0.74296   0.51511   0.36777   0.00000  Uiso   1.00
H496   H     0.76774   0.56649   0.35902   0.00000  Uiso   1.00
H497   H     0.74318   0.54722   0.41581   0.00000  Uiso   1.00
H498   H     0.68696   0.56952   0.34588   0.00000  Uiso   1.00
H499   H     0.68489   0.59511   0.39689   0.00000  Uiso   1.00
H500   H     0.83866   0.52927   0.08107   0.00000  Uiso   1.00
H501   H     0.82150   0.48009   0.41454   0.00000  Uiso   1.00
H502   H     0.93176   0.62868   0.23262   0.00000  Uiso   1.00
H503   H     0.73438   0.37136   0.26860   0.00000  Uiso   1.00
H504   H     0.86264   0.45234   0.29894   0.00000  Uiso   1.00
H505   H     0.80404   0.54736   0.20067   0.00000  Uiso   1.00
H506   H     0.83535   0.40180   0.11328   0.00000  Uiso   1.00
N507   N     0.78403   0.50001   0.24999   0.00000  Uiso   1.00
N508   N     0.88264   0.49999   0.25001   0.00000  Uiso   1.00
O509   O     0.70625   0.43989   0.25000   0.00000  Uiso   1.00
O510   O     0.96042   0.56011   0.25000   0.00000  Uiso   1.00
O511   O     0.96039   0.43988   0.25000   0.00000  Uiso   1.00
O512   O     0.70628   0.56012   0.24999   0.00000  Uiso   1.00
O513   O     0.68519   0.50001   0.31491   0.00000  Uiso   1.00
O514   O     0.98148   0.49999   0.18508   0.00000  Uiso   1.00
O515   O     0.93933   0.50000   0.31492   0.00000  Uiso   1.00
O516   O     0.72733   0.50000   0.18508   0.00000  Uiso   1.00
C517   C     0.33323   0.75401   0.24992   0.00000  Uiso   1.00
C518   C     0.03802   0.68832   0.26047   0.00000  Uiso   1.00
C519   C     0.00008   0.95725   0.25079   0.00000  Uiso   1.00
C520   C     0.33289   0.70942   0.25013   0.00000  Uiso   1.00
C521   C     0.18355   0.80692   0.27728   0.00000  Uiso   1.00
C522   C     0.14979   0.85964   0.22258   0.00000  Uiso   1.00
C523   C     0.13386   0.80704   0.27747   0.00000  Uiso   1.00
C524   C     0.19940   0.85976   0.22268   0.00000  Uiso   1.00
C525   C     0.30616   0.83486   0.33622   0.00000  Uiso   1.00
C526   C     0.02719   0.82883   0.16379   0.00000  Uiso   1.00
C527   C     0.29158   0.83996   0.38567   0.00000  Uiso   1.00
C528   C     0.00001   0.91265   0.25038   0.00000  Uiso   1.00
C529   C     0.04229   0.81936   0.11426   0.00000  Uiso   1.00
C530   C     0.29711   0.87533   0.45374   0.00000  Uiso   1.00
C531   C     0.02647   0.81036   0.04042   0.00000  Uiso   1.00
C532   C     0.31459   0.86959   0.40697   0.00000  Uiso   1.00
C533   C     0.00848   0.81520   0.08745   0.00000  Uiso   1.00
C534   C     0.25109   0.81748   0.41172   0.00000  Uiso   1.00
C535   C     0.09265   0.81346   0.09282   0.00000  Uiso   1.00
C536   C     0.22661   0.83227   0.45527   0.00000  Uiso   1.00
C537   C     0.10938   0.81968   0.04550   0.00000  Uiso   1.00
C538   C     0.25271   0.85787   0.47784   0.00000  Uiso   1.00
C539   C     0.18674   0.85298   0.04642   0.00000  Uiso   1.00
C540   C     0.07634   0.81340   0.01920   0.00000  Uiso   1.00
C541   C     0.17660   0.82415   0.47645   0.00000  Uiso   1.00
C542   C     0.15809   0.83095   0.02351   0.00000  Uiso   1.00
C543   C     0.12472   0.79030   0.11787   0.00000  Uiso   1.00
C544   C     0.15434   0.75521   0.09046   0.00000  Uiso   1.00
C545   C     0.23892   0.77520   0.39593   0.00000  Uiso   1.00
C546   C     0.28228   0.74579   0.38780   0.00000  Uiso   1.00
C547   C     0.28690   0.81298   0.10694   0.00000  Uiso   1.00
C548   C     0.27092   0.77231   0.13176   0.00000  Uiso   1.00
C549   C     0.02218   0.89747   0.38109   0.00000  Uiso   1.00
C550   C     0.14335   0.81462   0.45112   0.00000  Uiso   1.00
C551   C     0.07203   0.88034   0.38095   0.00000  Uiso   1.00
C552   C     0.23272   0.86756   0.02350   0.00000  Uiso   1.00
C553   C     0.09375   0.81021   0.47208   0.00000  Uiso   1.00
C554   C     0.29441   0.68755   0.24030   0.00000  Uiso   1.00
C555   C     0.03839   0.97912   0.26093   0.00000  Uiso   1.00
C556   C     0.29482   0.97836   0.24071   0.00000  Uiso   1.00
Cu557  Cu    0.04689   0.83334   0.25000   0.00000  Uiso   1.00
Cu558  Cu    0.28645   0.83333   0.25000   0.00000  Uiso   1.00
F559   F     0.25728   0.89180   0.04594   0.00000  Uiso   1.00
F560   F     0.06285   0.80237   0.44621   0.00000  Uiso   1.00
F561   F     0.25680   0.70696   0.22959   0.00000  Uiso   1.00
F562   F     0.07586   0.95966   0.27186   0.00000  Uiso   1.00
F563   F     0.10247   0.78078   0.30528   0.00000  Uiso   1.00
F564   F     0.23054   0.88659   0.19552   0.00000  Uiso   1.00
H565   H     0.31611   0.89640   0.47045   0.00000  Uiso   1.00
H566   H     0.13099   0.73624   0.07460   0.00000  Uiso   1.00
H567   H     0.18609   0.76708   0.06395   0.00000  Uiso   1.00
H568   H     0.14918   0.81150   0.12968   0.00000  Uiso   1.00
H569   H     0.10135   0.77477   0.14839   0.00000  Uiso   1.00
H570   H     0.31247   0.75586   0.35862   0.00000  Uiso   1.00
H571   H     0.29582   0.74381   0.41850   0.00000  Uiso   1.00
H572   H     0.27068   0.71462   0.38018   0.00000  Uiso   1.00
H573   H     0.20924   0.75997   0.42199   0.00000  Uiso   1.00
H574   H     0.22653   0.77791   0.36477   0.00000  Uiso   1.00
H575   H     0.27783   0.74660   0.10714   0.00000  Uiso   1.00
H576   H     0.00119   0.80556   0.02004   0.00000  Uiso   1.00
H577   H     0.29078   0.76599   0.15755   0.00000  Uiso   1.00
H578   H     0.23129   0.77338   0.14889   0.00000  Uiso   1.00
H579   H     0.27326   0.83977   0.12874   0.00000  Uiso   1.00
H580   H     0.26819   0.81496   0.07959   0.00000  Uiso   1.00
H581   H     0.07630   0.84845   0.36777   0.00000  Uiso   1.00
H582   H     0.10108   0.89982   0.35902   0.00000  Uiso   1.00
H583   H     0.07651   0.88056   0.41581   0.00000  Uiso   1.00
H584   H     0.02029   0.90285   0.34588   0.00000  Uiso   1.00
H585   H     0.01822   0.92845   0.39689   0.00000  Uiso   1.00
H586   H     0.17200   0.86260   0.08107   0.00000  Uiso   1.00
H587   H     0.15483   0.81343   0.41454   0.00000  Uiso   1.00
H588   H     0.26509   0.96201   0.23262   0.00000  Uiso   1.00
H589   H     0.06771   0.70470   0.26860   0.00000  Uiso   1.00
H590   H     0.19598   0.78568   0.29894   0.00000  Uiso   1.00
H591   H     0.13737   0.88069   0.20067   0.00000  Uiso   1.00
H592   H     0.16868   0.73513   0.11328   0.00000  Uiso   1.00
N593   N     0.11736   0.83334   0.24999   0.00000  Uiso   1.00
N594   N     0.21597   0.83332   0.25001   0.00000  Uiso   1.00
O595   O     0.03958   0.77322   0.25000   0.00000  Uiso   1.00
O596   O     0.29375   0.89345   0.25000   0.00000  Uiso   1.00
O597   O     0.29372   0.77321   0.25000   0.00000  Uiso   1.00
O598   O     0.03961   0.89346   0.24999   0.00000  Uiso   1.00
O599   O     0.01852   0.83334   0.31491   0.00000  Uiso   1.00
O600   O     0.31481   0.83332   0.18508   0.00000  Uiso   1.00
O601   O     0.27267   0.83333   0.31492   0.00000  Uiso   1.00
O602   O     0.06067   0.83333   0.18508   0.00000  Uiso   1.00
C603   C     0.66656   0.75401   0.24992   0.00000  Uiso   1.00
C604   C     0.37135   0.68832   0.26047   0.00000  Uiso   1.00
C605   C     0.33342   0.95725   0.25079   0.00000  Uiso   1.00
C606   C     0.66622   0.70942   0.25013   0.00000  Uiso   1.00
C607   C     0.51688   0.80692   0.27728   0.00000  Uiso   1.00
C608   C     0.48313   0.85964   0.22258   0.00000  Uiso   1.00
C609   C     0.46720   0.80704   0.27747   0.00000  Uiso   1.00
C610   C     0.53273   0.85976   0.22268   0.00000  Uiso   1.00
C611   C     0.63949   0.83486   0.33622   0.00000  Uiso   1.00
C612   C     0.36052   0.82883   0.16379   0.00000  Uiso   1.00
C613   C     0.62492   0.83996   0.38567   0.00000  Uiso   1.00
C614   C     0.33334   0.91265   0.25038   0.00000  Uiso   1.00
C615   C     0.37562   0.81936   0.11426   0.00000  Uiso   1.00
C616   C     0.63045   0.87533   0.45374   0.00000  Uiso   1.00
C617   C     0.35980   0.81036   0.04042   0.00000  Uiso   1.00
C618   C     0.64793   0.86959   0.40697   0.00000  Uiso   1.00
C619   C     0.34182   0.81520   0.08745   0.00000  Uiso   1.00
C620   C     0.58443   0.81748   0.41172   0.00000  Uiso   1.00
C621   C     0.42598   0.81346   0.09282   0.00000  Uiso   1.00
C622   C     0.55995   0.83227   0.45527   0.00000  Uiso   1.00
C623   C     0.44271   0.81968   0.04550   0.00000  Uiso   1.00
C624   C     0.58604   0.85787   0.47784   0.00000  Uiso   1.00
C625   C     0.52007   0.85298   0.04642   0.00000  Uiso   1.00
C626   C     0.40967   0.81340   0.01920   0.00000  Uiso   1.00
C627   C     0.50993   0.82415   0.47645   0.00000  Uiso   1.00
C628   C     0.49143   0.83095   0.02351   0.00000  Uiso   1.00
C629   C     0.45805   0.79030   0.11787   0.00000  Uiso   1.00
C630   C     0.48767   0.75521   0.09046   0.00000  Uiso   1.00
C631   C     0.57226   0.77520   0.39593   0.00000  Uiso   1.00
C632   C     0.61562   0.74579   0.38780   0.00000  Uiso   1.00
C633   C     0.62023   0.81298   0.10694   0.00000  Uiso   1.00
C634   C     0.60425   0.77231   0.13176   0.00000  Uiso   1.00
C635   C     0.35551   0.89747   0.38109   0.00000  Uiso   1.00
C636   C     0.47668   0.81462   0.45112   0.00000  Uiso   1.00
C637   C     0.40536   0.88034   0.38095   0.00000  Uiso   1.00
C638   C     0.56605   0.86756   0.02350   0.00000  Uiso   1.00
C639   C     0.42708   0.81021   0.47208   0.00000  Uiso   1.00
C640   C     0.62775   0.68755   0.24030   0.00000  Uiso   1.00
C641   C     0.37173   0.97912   0.26093   0.00000  Uiso   1.00
C642   C     0.62815   0.97836   0.24071   0.00000  Uiso   1.00
Cu643  Cu    0.38022   0.83334   0.25000   0.00000  Uiso   1.00
Cu644  Cu    0.61978   0.83333   0.25000   0.00000  Uiso   1.00
F645   F     0.59062   0.89180   0.04594   0.00000  Uiso   1.00
F646   F     0.39619   0.80237   0.44621   0.00000  Uiso   1.00
F647   F     0.59014   0.70696   0.22959   0.00000  Uiso   1.00
F648   F     0.40919   0.95966   0.27186   0.00000  Uiso   1.00
F649   F     0.43581   0.78078   0.30528   0.00000  Uiso   1.00
F650   F     0.56388   0.88659   0.19552   0.00000  Uiso   1.00
H651   H     0.64944   0.89640   0.47045   0.00000  Uiso   1.00
H652   H     0.46433   0.73624   0.07460   0.00000  Uiso   1.00
H653   H     0.51942   0.76708   0.06395   0.00000  Uiso   1.00
H654   H     0.48252   0.81150   0.12968   0.00000  Uiso   1.00
H655   H     0.43468   0.77477   0.14839   0.00000  Uiso   1.00
H656   H     0.64580   0.75586   0.35862   0.00000  Uiso   1.00
H657   H     0.62916   0.74381   0.41850   0.00000  Uiso   1.00
H658   H     0.60401   0.71462   0.38018   0.00000  Uiso   1.00
H659   H     0.54258   0.75997   0.42199   0.00000  Uiso   1.00
H660   H     0.55986   0.77791   0.36477   0.00000  Uiso   1.00
H661   H     0.61116   0.74660   0.10714   0.00000  Uiso   1.00
H662   H     0.33452   0.80556   0.02004   0.00000  Uiso   1.00
H663   H     0.62412   0.76599   0.15755   0.00000  Uiso   1.00
H664   H     0.56462   0.77338   0.14889   0.00000  Uiso   1.00
H665   H     0.60659   0.83977   0.12874   0.00000  Uiso   1.00
H666   H     0.60153   0.81496   0.07959   0.00000  Uiso   1.00
H667   H     0.40963   0.84845   0.36777   0.00000  Uiso   1.00
H668   H     0.43441   0.89982   0.35902   0.00000  Uiso   1.00
H669   H     0.40985   0.88056   0.41581   0.00000  Uiso   1.00
H670   H     0.35362   0.90285   0.34588   0.00000  Uiso   1.00
H671   H     0.35156   0.92845   0.39689   0.00000  Uiso   1.00
H672   H     0.50533   0.86260   0.08107   0.00000  Uiso   1.00
H673   H     0.48816   0.81343   0.41454   0.00000  Uiso   1.00
H674   H     0.59843   0.96201   0.23262   0.00000  Uiso   1.00
H675   H     0.40105   0.70470   0.26860   0.00000  Uiso   1.00
H676   H     0.52931   0.78568   0.29894   0.00000  Uiso   1.00
H677   H     0.47071   0.88069   0.20067   0.00000  Uiso   1.00
H678   H     0.50202   0.73513   0.11328   0.00000  Uiso   1.00
N679   N     0.45069   0.83334   0.24999   0.00000  Uiso   1.00
N680   N     0.54931   0.83332   0.25001   0.00000  Uiso   1.00
O681   O     0.37291   0.77322   0.25000   0.00000  Uiso   1.00
O682   O     0.62709   0.89345   0.25000   0.00000  Uiso   1.00
O683   O     0.62706   0.77321   0.25000   0.00000  Uiso   1.00
O684   O     0.37294   0.89346   0.24999   0.00000  Uiso   1.00
O685   O     0.35186   0.83334   0.31491   0.00000  Uiso   1.00
O686   O     0.64814   0.83332   0.18508   0.00000  Uiso   1.00
O687   O     0.60600   0.83333   0.31492   0.00000  Uiso   1.00
O688   O     0.39400   0.83333   0.18508   0.00000  Uiso   1.00
C689   C     0.99989   0.75401   0.24992   0.00000  Uiso   1.00
C690   C     0.70469   0.68832   0.26047   0.00000  Uiso   1.00
C691   C     0.66675   0.95725   0.25079   0.00000  Uiso   1.00
C692   C     0.99956   0.70942   0.25013   0.00000  Uiso   1.00
C693   C     0.85021   0.80692   0.27728   0.00000  Uiso   1.00
C694   C     0.81646   0.85964   0.22258   0.00000  Uiso   1.00
C695   C     0.80053   0.80704   0.27747   0.00000  Uiso   1.00
C696   C     0.86606   0.85976   0.22268   0.00000  Uiso   1.00
C697   C     0.97282   0.83486   0.33622   0.00000  Uiso   1.00
C698   C     0.69385   0.82883   0.16379   0.00000  Uiso   1.00
C699   C     0.95825   0.83996   0.38567   0.00000  Uiso   1.00
C700   C     0.66668   0.91265   0.25038   0.00000  Uiso   1.00
C701   C     0.70895   0.81936   0.11426   0.00000  Uiso   1.00
C702   C     0.96378   0.87533   0.45374   0.00000  Uiso   1.00
C703   C     0.69313   0.81036   0.04042   0.00000  Uiso   1.00
C704   C     0.98126   0.86959   0.40697   0.00000  Uiso   1.00
C705   C     0.67515   0.81520   0.08745   0.00000  Uiso   1.00
C706   C     0.91776   0.81748   0.41172   0.00000  Uiso   1.00
C707   C     0.75932   0.81346   0.09282   0.00000  Uiso   1.00
C708   C     0.89328   0.83227   0.45527   0.00000  Uiso   1.00
C709   C     0.77605   0.81968   0.04550   0.00000  Uiso   1.00
C710   C     0.91938   0.85787   0.47784   0.00000  Uiso   1.00
C711   C     0.85341   0.85298   0.04642   0.00000  Uiso   1.00
C712   C     0.74301   0.81340   0.01920   0.00000  Uiso   1.00
C713   C     0.84326   0.82415   0.47645   0.00000  Uiso   1.00
C714   C     0.82476   0.83095   0.02351   0.00000  Uiso   1.00
C715   C     0.79138   0.79030   0.11787   0.00000  Uiso   1.00
C716   C     0.82100   0.75521   0.09046   0.00000  Uiso   1.00
C717   C     0.90559   0.77520   0.39593   0.00000  Uiso   1.00
C718   C     0.94895   0.74579   0.38780   0.00000  Uiso   1.00
C719   C     0.95357   0.81298   0.10694   0.00000  Uiso   1.00
C720   C     0.93758   0.77231   0.13176   0.00000  Uiso   1.00
C721   C     0.68884   0.89747   0.38109   0.00000  Uiso   1.00
C722   C     0.81002   0.81462   0.45112   0.00000  Uiso   1.00
C723   C     0.73869   0.88034   0.38095   0.00000  Uiso   1.00
C724   C     0.89939   0.86756   0.02350   0.00000  Uiso   1.00
C725   C     0.76042   0.81021   0.47208   0.00000  Uiso   1.00
C726   C     0.96108   0.68755   0.24030   0.00000  Uiso   1.00
C727   C     0.70506   0.97912   0.26093   0.00000  Uiso   1.00
C728   C     0.96149   0.97836   0.24071   0.00000  Uiso   1.00
Cu729  Cu    0.71355   0.83334   0.25000   0.00000  Uiso   1.00
Cu730  Cu    0.95311   0.83333   0.25000   0.00000  Uiso   1.00
F731   F     0.92395   0.89180   0.04594   0.00000  Uiso   1.00
F732   F     0.72952   0.80237   0.44621   0.00000  Uiso   1.00
F733   F     0.92347   0.70696   0.22959   0.00000  Uiso   1.00
F734   F     0.74252   0.95966   0.27186   0.00000  Uiso   1.00
F735   F     0.76914   0.78078   0.30528   0.00000  Uiso   1.00
F736   F     0.89721   0.88659   0.19552   0.00000  Uiso   1.00
H737   H     0.98277   0.89640   0.47045   0.00000  Uiso   1.00
H738   H     0.79766   0.73624   0.07460   0.00000  Uiso   1.00
H739   H     0.85275   0.76708   0.06395   0.00000  Uiso   1.00
H740   H     0.81585   0.81150   0.12968   0.00000  Uiso   1.00
H741   H     0.76802   0.77477   0.14839   0.00000  Uiso   1.00
H742   H     0.97914   0.75586   0.35862   0.00000  Uiso   1.00
H743   H     0.96249   0.74381   0.41850   0.00000  Uiso   1.00
H744   H     0.93734   0.71462   0.38018   0.00000  Uiso   1.00
H745   H     0.87591   0.75997   0.42199   0.00000  Uiso   1.00
H746   H     0.89320   0.77791   0.36477   0.00000  Uiso   1.00
H747   H     0.94449   0.74660   0.10714   0.00000  Uiso   1.00
H748   H     0.66785   0.80556   0.02004   0.00000  Uiso   1.00
H749   H     0.95745   0.76599   0.15755   0.00000  Uiso   1.00
H750   H     0.89795   0.77338   0.14889   0.00000  Uiso   1.00
H751   H     0.93993   0.83977   0.12874   0.00000  Uiso   1.00
H752   H     0.93486   0.81496   0.07959   0.00000  Uiso   1.00
H753   H     0.74296   0.84845   0.36777   0.00000  Uiso   1.00
H754   H     0.76774   0.89982   0.35902   0.00000  Uiso   1.00
H755   H     0.74318   0.88056   0.41581   0.00000  Uiso   1.00
H756   H     0.68696   0.90285   0.34588   0.00000  Uiso   1.00
H757   H     0.68489   0.92845   0.39689   0.00000  Uiso   1.00
H758   H     0.83866   0.86260   0.08107   0.00000  Uiso   1.00
H759   H     0.82150   0.81343   0.41454   0.00000  Uiso   1.00
H760   H     0.93176   0.96201   0.23262   0.00000  Uiso   1.00
H761   H     0.73438   0.70470   0.26860   0.00000  Uiso   1.00
H762   H     0.86264   0.78568   0.29894   0.00000  Uiso   1.00
H763   H     0.80404   0.88069   0.20067   0.00000  Uiso   1.00
H764   H     0.83535   0.73513   0.11328   0.00000  Uiso   1.00
N765   N     0.78403   0.83334   0.24999   0.00000  Uiso   1.00
N766   N     0.88264   0.83332   0.25001   0.00000  Uiso   1.00
O767   O     0.70625   0.77322   0.25000   0.00000  Uiso   1.00
O768   O     0.96042   0.89345   0.25000   0.00000  Uiso   1.00
O769   O     0.96039   0.77321   0.25000   0.00000  Uiso   1.00
O770   O     0.70628   0.89346   0.24999   0.00000  Uiso   1.00
O771   O     0.68519   0.83334   0.31491   0.00000  Uiso   1.00
O772   O     0.98148   0.83332   0.18508   0.00000  Uiso   1.00
O773   O     0.93933   0.83333   0.31492   0.00000  Uiso   1.00
O774   O     0.72733   0.83333   0.18508   0.00000  Uiso   1.00
C775   C     0.33323   0.08735   0.74992   0.00000  Uiso   1.00
C776   C     0.03802   0.02166   0.76047   0.00000  Uiso   1.00
C777   C     0.00008   0.29058   0.75079   0.00000  Uiso   1.00
C778   C     0.33289   0.04275   0.75013   0.00000  Uiso   1.00
C779   C     0.18355   0.14026   0.77728   0.00000  Uiso   1.00
C780   C     0.14979   0.19297   0.72258   0.00000  Uiso   1.00
C781   C     0.13386   0.14037   0.77747   0.00000  Uiso   1.00
C782   C     0.19940   0.19309   0.72268   0.00000  Uiso   1.00
C783   C     0.30616   0.16819   0.83622   0.00000  Uiso   1.00
C784   C     0.02719   0.16216   0.66379   0.00000  Uiso   1.00
C785   C     0.29158   0.17329   0.88567   0.00000  Uiso   1.00
C786   C     0.00001   0.24599   0.75038   0.00000  Uiso   1.00
C787   C     0.04229   0.15269   0.61426   0.00000  Uiso   1.00
C788   C     0.29711   0.20866   0.95374   0.00000  Uiso   1.00
C789   C     0.02647   0.14369   0.54042   0.00000  Uiso   1.00
C790   C     0.31459   0.20293   0.90697   0.00000  Uiso   1.00
C791   C     0.00848   0.14854   0.58745   0.00000  Uiso   1.00
C792   C     0.25109   0.15081   0.91172   0.00000  Uiso   1.00
C793   C     0.09265   0.14679   0.59282   0.00000  Uiso   1.00
C794   C     0.22661   0.16560   0.95527   0.00000  Uiso   1.00
C795   C     0.10938   0.15301   0.54550   0.00000  Uiso   1.00
C796   C     0.25271   0.19121   0.97784   0.00000  Uiso   1.00
C797   C     0.18674   0.18632   0.54642   0.00000  Uiso   1.00
C798   C     0.07634   0.14674   0.51920   0.00000  Uiso   1.00
C799   C     0.17660   0.15749   0.97645   0.00000  Uiso   1.00
C800   C     0.15809   0.16428   0.52351   0.00000  Uiso   1.00
C801   C     0.12472   0.12364   0.61787   0.00000  Uiso   1.00
C802   C     0.15434   0.08854   0.59046   0.00000  Uiso   1.00
C803   C     0.23892   0.10853   0.89593   0.00000  Uiso   1.00
C804   C     0.28228   0.07912   0.88780   0.00000  Uiso   1.00
C805   C     0.28690   0.14632   0.60694   0.00000  Uiso   1.00
C806   C     0.27092   0.10564   0.63176   0.00000  Uiso   1.00
C807   C     0.02218   0.23080   0.88109   0.00000  Uiso   1.00
C808   C     0.14335   0.14796   0.95112   0.00000  Uiso   1.00
C809   C     0.07203   0.21367   0.88095   0.00000  Uiso   1.00
C810   C     0.23272   0.20090   0.52350   0.00000  Uiso   1.00
C811   C     0.09375   0.14354   0.97208   0.00000  Uiso   1.00
C812   C     0.29441   0.02088   0.74030   0.00000  Uiso   1.00
C813   C     0.03839   0.31245   0.76093   0.00000  Uiso   1.00
C814   C     0.29482   0.31169   0.74071   0.00000  Uiso   1.00
Cu815  Cu    0.04689   0.16667   0.75000   0.00000  Uiso   1.00
Cu816  Cu    0.28645   0.16666   0.75000   0.00000  Uiso   1.00
F817   F     0.25728   0.22513   0.54594   0.00000  Uiso   1.00
F818   F     0.06285   0.13571   0.94621   0.00000  Uiso   1.00
F819   F     0.25680   0.04030   0.72959   0.00000  Uiso   1.00
F820   F     0.07586   0.29299   0.77186   0.00000  Uiso   1.00
F821   F     0.10247   0.11411   0.80528   0.00000  Uiso   1.00
F822   F     0.23054   0.21992   0.69552   0.00000  Uiso   1.00
H823   H     0.31611   0.22973   0.97045   0.00000  Uiso   1.00
H824   H     0.13099   0.06957   0.57460   0.00000  Uiso   1.00
H825   H     0.18609   0.10042   0.56395   0.00000  Uiso   1.00
H826   H     0.14918   0.14484   0.62968   0.00000  Uiso   1.00
H827   H     0.10135   0.10810   0.64839   0.00000  Uiso   1.00
H828   H     0.31247   0.08920   0.85862   0.00000  Uiso   1.00
H829   H     0.29582   0.07714   0.91850   0.00000  Uiso   1.00
H830   H     0.27068   0.04795   0.88018   0.00000  Uiso   1.00
H831   H     0.20924   0.09331   0.92199   0.00000  Uiso   1.00
H832   H     0.22653   0.11124   0.86477   0.00000  Uiso   1.00
H833   H     0.27783   0.07993   0.60714   0.00000  Uiso   1.00
H834   H     0.00119   0.13890   0.52004   0.00000  Uiso   1.00
H835   H     0.29078   0.09932   0.65755   0.00000  Uiso   1.00
H836   H     0.23129   0.10671   0.64889   0.00000  Uiso   1.00
H837   H     0.27326   0.17310   0.62874   0.00000  Uiso   1.00
H838   H     0.26819   0.14830   0.57959   0.00000  Uiso   1.00
H839   H     0.07630   0.18178   0.86777   0.00000  Uiso   1.00
H840   H     0.10108   0.23316   0.85902   0.00000  Uiso   1.00
H841   H     0.07651   0.21389   0.91581   0.00000  Uiso   1.00
H842   H     0.02029   0.23619   0.84588   0.00000  Uiso   1.00
H843   H     0.01822   0.26178   0.89689   0.00000  Uiso   1.00
H844   H     0.17200   0.19594   0.58107   0.00000  Uiso   1.00
H845   H     0.15483   0.14676   0.91454   0.00000  Uiso   1.00
H846   H     0.26509   0.29535   0.73262   0.00000  Uiso   1.00
H847   H     0.06771   0.03803   0.76860   0.00000  Uiso   1.00
H848   H     0.19598   0.11901   0.79894   0.00000  Uiso   1.00
H849   H     0.13737   0.21403   0.70067   0.00000  Uiso   1.00
H850   H     0.16868   0.06847   0.61328   0.00000  Uiso   1.00
N851   N     0.11736   0.16668   0.74999   0.00000  Uiso   1.00
N852   N     0.21597   0.16666   0.75001   0.00000  Uiso   1.00
O853   O     0.03958   0.10655   0.75000   0.00000  Uiso   1.00
O854   O     0.29375   0.22678   0.75000   0.00000  Uiso   1.00
O855   O     0.29372   0.10654   0.75000   0.00000  Uiso   1.00
O856   O     0.03961   0.22679   0.74999   0.00000  Uiso   1.00
O857   O     0.01852   0.16668   0.81491   0.00000  Uiso   1.00
O858   O     0.31481   0.16666   0.68508   0.00000  Uiso   1.00
O859   O     0.27267   0.16667   0.81492   0.00000  Uiso   1.00
O860   O     0.06067   0.16667   0.68508   0.00000  Uiso   1.00
C861   C     0.66656   0.08735   0.74992   0.00000  Uiso   1.00
C862   C     0.37135   0.02166   0.76047   0.00000  Uiso   1.00
C863   C     0.33342   0.29058   0.75079   0.00000  Uiso   1.00
C864   C     0.66622   0.04275   0.75013   0.00000  Uiso   1.00
C865   C     0.51688   0.14026   0.77728   0.00000  Uiso   1.00
C866   C     0.48313   0.19297   0.72258   0.00000  Uiso   1.00
C867   C     0.46720   0.14037   0.77747   0.00000  Uiso   1.00
C868   C     0.53273   0.19309   0.72268   0.00000  Uiso   1.00
C869   C     0.63949   0.16819   0.83622   0.00000  Uiso   1.00
C870   C     0.36052   0.16216   0.66379   0.00000  Uiso   1.00
C871   C     0.62492   0.17329   0.88567   0.00000  Uiso   1.00
C872   C     0.33334   0.24599   0.75038   0.00000  Uiso   1.00
C873   C     0.37562   0.15269   0.61426   0.00000  Uiso   1.00
C874   C     0.63045   0.20866   0.95374   0.00000  Uiso   1.00
C875   C     0.35980   0.14369   0.54042   0.00000  Uiso   1.00
C876   C     0.64793   0.20293   0.90697   0.00000  Uiso   1.00
C877   C     0.34182   0.14854   0.58745   0.00000  Uiso   1.00
C878   C     0.58443   0.15081   0.91172   0.00000  Uiso   1.00
C879   C     0.42598   0.14679   0.59282   0.00000  Uiso   1.00
C880   C     0.55995   0.16560   0.95527   0.00000  Uiso   1.00
C881   C     0.44271   0.15301   0.54550   0.00000  Uiso   1.00
C882   C     0.58604   0.19121   0.97784   0.00000  Uiso   1.00
C883   C     0.52007   0.18632   0.54642   0.00000  Uiso   1.00
C884   C     0.40967   0.14674   0.51920   0.00000  Uiso   1.00
C885   C     0.50993   0.15749   0.97645   0.00000  Uiso   1.00
C886   C     0.49143   0.16428   0.52351   0.00000  Uiso   1.00
C887   C     0.45805   0.12364   0.61787   0.00000  Uiso   1.00
C888   C     0.48767   0.08854   0.59046   0.00000  Uiso   1.00
C889   C     0.57226   0.10853   0.89593   0.00000  Uiso   1.00
C890   C     0.61562   0.07912   0.88780   0.00000  Uiso   1.00
C891   C     0.62023   0.14632   0.60694   0.00000  Uiso   1.00
C892   C     0.60425   0.10564   0.63176   0.00000  Uiso   1.00
C893   C     0.35551   0.23080   0.88109   0.00000  Uiso   1.00
C894   C     0.47668   0.14796   0.95112   0.00000  Uiso   1.00
C895   C     0.40536   0.21367   0.88095   0.00000  Uiso   1.00
C896   C     0.56605   0.20090   0.52350   0.00000  Uiso   1.00
C897   C     0.42708   0.14354   0.97208   0.00000  Uiso   1.00
C898   C     0.62775   0.02088   0.74030   0.00000  Uiso   1.00
C899   C     0.37173   0.31245   0.76093   0.00000  Uiso   1.00
C900   C     0.62815   0.31169   0.74071   0.00000  Uiso   1.00
Cu901  Cu    0.38022   0.16667   0.75000   0.00000  Uiso   1.00
Cu902  Cu    0.61978   0.16666   0.75000   0.00000  Uiso   1.00
F903   F     0.59062   0.22513   0.54594   0.00000  Uiso   1.00
F904   F     0.39619   0.13571   0.94621   0.00000  Uiso   1.00
F905   F     0.59014   0.04030   0.72959   0.00000  Uiso   1.00
F906   F     0.40919   0.29299   0.77186   0.00000  Uiso   1.00
F907   F     0.43581   0.11411   0.80528   0.00000  Uiso   1.00
F908   F     0.56388   0.21992   0.69552   0.00000  Uiso   1.00
H909   H     0.64944   0.22973   0.97045   0.00000  Uiso   1.00
H910   H     0.46433   0.06957   0.57460   0.00000  Uiso   1.00
H911   H     0.51942   0.10042   0.56395   0.00000  Uiso   1.00
H912   H     0.48252   0.14484   0.62968   0.00000  Uiso   1.00
H913   H     0.43468   0.10810   0.64839   0.00000  Uiso   1.00
H914   H     0.64580   0.08920   0.85862   0.00000  Uiso   1.00
H915   H     0.62916   0.07714   0.91850   0.00000  Uiso   1.00
H916   H     0.60401   0.04795   0.88018   0.00000  Uiso   1.00
H917   H     0.54258   0.09331   0.92199   0.00000  Uiso   1.00
H918   H     0.55986   0.11124   0.86477   0.00000  Uiso   1.00
H919   H     0.61116   0.07993   0.60714   0.00000  Uiso   1.00
H920   H     0.33452   0.13890   0.52004   0.00000  Uiso   1.00
H921   H     0.62412   0.09932   0.65755   0.00000  Uiso   1.00
H922   H     0.56462   0.10671   0.64889   0.00000  Uiso   1.00
H923   H     0.60659   0.17310   0.62874   0.00000  Uiso   1.00
H924   H     0.60153   0.14830   0.57959   0.00000  Uiso   1.00
H925   H     0.40963   0.18178   0.86777   0.00000  Uiso   1.00
H926   H     0.43441   0.23316   0.85902   0.00000  Uiso   1.00
H927   H     0.40985   0.21389   0.91581   0.00000  Uiso   1.00
H928   H     0.35362   0.23619   0.84588   0.00000  Uiso   1.00
H929   H     0.35156   0.26178   0.89689   0.00000  Uiso   1.00
H930   H     0.50533   0.19594   0.58107   0.00000  Uiso   1.00
H931   H     0.48816   0.14676   0.91454   0.00000  Uiso   1.00
H932   H     0.59843   0.29535   0.73262   0.00000  Uiso   1.00
H933   H     0.40105   0.03803   0.76860   0.00000  Uiso   1.00
H934   H     0.52931   0.11901   0.79894   0.00000  Uiso   1.00
H935   H     0.47071   0.21403   0.70067   0.00000  Uiso   1.00
H936   H     0.50202   0.06847   0.61328   0.00000  Uiso   1.00
N937   N     0.45069   0.16668   0.74999   0.00000  Uiso   1.00
N938   N     0.54931   0.16666   0.75001   0.00000  Uiso   1.00
O939   O     0.37291   0.10655   0.75000   0.00000  Uiso   1.00
O940   O     0.62709   0.22678   0.75000   0.00000  Uiso   1.00
O941   O     0.62706   0.10654   0.75000   0.00000  Uiso   1.00
O942   O     0.37294   0.22679   0.74999   0.00000  Uiso   1.00
O943   O     0.35186   0.16668   0.81491   0.00000  Uiso   1.00
O944   O     0.64814   0.16666   0.68508   0.00000  Uiso   1.00
O945   O     0.60600   0.16667   0.81492   0.00000  Uiso   1.00
O946   O     0.39400   0.16667   0.68508   0.00000  Uiso   1.00
C947   C     0.99989   0.08735   0.74992   0.00000  Uiso   1.00
C948   C     0.70469   0.02166   0.76047   0.00000  Uiso   1.00
C949   C     0.66675   0.29058   0.75079   0.00000  Uiso   1.00
C950   C     0.99956   0.04275   0.75013   0.00000  Uiso   1.00
C951   C     0.85021   0.14026   0.77728   0.00000  Uiso   1.00
C952   C     0.81646   0.19297   0.72258   0.00000  Uiso   1.00
C953   C     0.80053   0.14037   0.77747   0.00000  Uiso   1.00
C954   C     0.86606   0.19309   0.72268   0.00000  Uiso   1.00
C955   C     0.97282   0.16819   0.83622   0.00000  Uiso   1.00
C956   C     0.69385   0.16216   0.66379   0.00000  Uiso   1.00
C957   C     0.95825   0.17329   0.88567   0.00000  Uiso   1.00
C958   C     0.66668   0.24599   0.75038   0.00000  Uiso   1.00
C959   C     0.70895   0.15269   0.61426   0.00000  Uiso   1.00
C960   C     0.96378   0.20866   0.95374   0.00000  Uiso   1.00
C961   C     0.69313   0.14369   0.54042   0.00000  Uiso   1.00
C962   C     0.98126   0.20293   0.90697   0.00000  Uiso   1.00
C963   C     0.67515   0.14854   0.58745   0.00000  Uiso   1.00
C964   C     0.91776   0.15081   0.91172   0.00000  Uiso   1.00
C965   C     0.75932   0.14679   0.59282   0.00000  Uiso   1.00
C966   C     0.89328   0.16560   0.95527   0.00000  Uiso   1.00
C967   C     0.77605   0.15301   0.54550   0.00000  Uiso   1.00
C968   C     0.91938   0.19121   0.97784   0.00000  Uiso   1.00
C969   C     0.85341   0.18632   0.54642   0.00000  Uiso   1.00
C970   C     0.74301   0.14674   0.51920   0.00000  Uiso   1.00
C971   C     0.84326   0.15749   0.97645   0.00000  Uiso   1.00
C972   C     0.82476   0.16428   0.52351   0.00000  Uiso   1.00
C973   C     0.79138   0.12364   0.61787   0.00000  Uiso   1.00
C974   C     0.82100   0.08854   0.59046   0.00000  Uiso   1.00
C975   C     0.90559   0.10853   0.89593   0.00000  Uiso   1.00
C976   C     0.94895   0.07912   0.88780   0.00000  Uiso   1.00
C977   C     0.95357   0.14632   0.60694   0.00000  Uiso   1.00
C978   C     0.93758   0.10564   0.63176   0.00000  Uiso   1.00
C979   C     0.68884   0.23080   0.88109   0.00000  Uiso   1.00
C980   C     0.81002   0.14796   0.95112   0.00000  Uiso   1.00
C981   C     0.73869   0.21367   0.88095   0.00000  Uiso   1.00
C982   C     0.89939   0.20090   0.52350   0.00000  Uiso   1.00
C983   C     0.76042   0.14354   0.97208   0.00000  Uiso   1.00
C984   C     0.96108   0.02088   0.74030   0.00000  Uiso   1.00
C985   C     0.70506   0.31245   0.76093   0.00000  Uiso   1.00
C986   C     0.96149   0.31169   0.74071   0.00000  Uiso   1.00
Cu987  Cu    0.71355   0.16667   0.75000   0.00000  Uiso   1.00
Cu988  Cu    0.95311   0.16666   0.75000   0.00000  Uiso   1.00
F989   F     0.92395   0.22513   0.54594   0.00000  Uiso   1.00
F990   F     0.72952   0.13571   0.94621   0.00000  Uiso   1.00
F991   F     0.92347   0.04030   0.72959   0.00000  Uiso   1.00
F992   F     0.74252   0.29299   0.77186   0.00000  Uiso   1.00
F993   F     0.76914   0.11411   0.80528   0.00000  Uiso   1.00
F994   F     0.89721   0.21992   0.69552   0.00000  Uiso   1.00
H995   H     0.98277   0.22973   0.97045   0.00000  Uiso   1.00
H996   H     0.79766   0.06957   0.57460   0.00000  Uiso   1.00
H997   H     0.85275   0.10042   0.56395   0.00000  Uiso   1.00
H998   H     0.81585   0.14484   0.62968   0.00000  Uiso   1.00
H999   H     0.76802   0.10810   0.64839   0.00000  Uiso   1.00
H1000  H     0.97914   0.08920   0.85862   0.00000  Uiso   1.00
H1001  H     0.96249   0.07714   0.91850   0.00000  Uiso   1.00
H1002  H     0.93734   0.04795   0.88018   0.00000  Uiso   1.00
H1003  H     0.87591   0.09331   0.92199   0.00000  Uiso   1.00
H1004  H     0.89320   0.11124   0.86477   0.00000  Uiso   1.00
H1005  H     0.94449   0.07993   0.60714   0.00000  Uiso   1.00
H1006  H     0.66785   0.13890   0.52004   0.00000  Uiso   1.00
H1007  H     0.95745   0.09932   0.65755   0.00000  Uiso   1.00
H1008  H     0.89795   0.10671   0.64889   0.00000  Uiso   1.00
H1009  H     0.93993   0.17310   0.62874   0.00000  Uiso   1.00
H1010  H     0.93486   0.14830   0.57959   0.00000  Uiso   1.00
H1011  H     0.74296   0.18178   0.86777   0.00000  Uiso   1.00
H1012  H     0.76774   0.23316   0.85902   0.00000  Uiso   1.00
H1013  H     0.74318   0.21389   0.91581   0.00000  Uiso   1.00
H1014  H     0.68696   0.23619   0.84588   0.00000  Uiso   1.00
H1015  H     0.68489   0.26178   0.89689   0.00000  Uiso   1.00
H1016  H     0.83866   0.19594   0.58107   0.00000  Uiso   1.00
H1017  H     0.82150   0.14676   0.91454   0.00000  Uiso   1.00
H1018  H     0.93176   0.29535   0.73262   0.00000  Uiso   1.00
H1019  H     0.73438   0.03803   0.76860   0.00000  Uiso   1.00
H1020  H     0.86264   0.11901   0.79894   0.00000  Uiso   1.00
H1021  H     0.80404   0.21403   0.70067   0.00000  Uiso   1.00
H1022  H     0.83535   0.06847   0.61328   0.00000  Uiso   1.00
N1023  N     0.78403   0.16668   0.74999   0.00000  Uiso   1.00
N1024  N     0.88264   0.16666   0.75001   0.00000  Uiso   1.00
O1025  O     0.70625   0.10655   0.75000   0.00000  Uiso   1.00
O1026  O     0.96042   0.22678   0.75000   0.00000  Uiso   1.00
O1027  O     0.96039   0.10654   0.75000   0.00000  Uiso   1.00
O1028  O     0.70628   0.22679   0.74999   0.00000  Uiso   1.00
O1029  O     0.68519   0.16668   0.81491   0.00000  Uiso   1.00
O1030  O     0.98148   0.16666   0.68508   0.00000  Uiso   1.00
O1031  O     0.93933   0.16667   0.81492   0.00000  Uiso   1.00
O1032  O     0.72733   0.16667   0.68508   0.00000  Uiso   1.00
C1033  C     0.33323   0.42068   0.74992   0.00000  Uiso   1.00
C1034  C     0.03802   0.35499   0.76047   0.00000  Uiso   1.00
C1035  C     0.00008   0.62392   0.75079   0.00000  Uiso   1.00
C1036  C     0.33289   0.37609   0.75013   0.00000  Uiso   1.00
C1037  C     0.18355   0.47359   0.77728   0.00000  Uiso   1.00
C1038  C     0.14979   0.52630   0.72258   0.00000  Uiso   1.00
C1039  C     0.13386   0.47371   0.77747   0.00000  Uiso   1.00
C1040  C     0.19940   0.52642   0.72268   0.00000  Uiso   1.00
C1041  C     0.30616   0.50152   0.83622   0.00000  Uiso   1.00
C1042  C     0.02719   0.49549   0.66379   0.00000  Uiso   1.00
C1043  C     0.29158   0.50663   0.88567   0.00000  Uiso   1.00
C1044  C     0.00001   0.57932   0.75038   0.00000  Uiso   1.00
C1045  C     0.04229   0.48603   0.61426   0.00000  Uiso   1.00
C1046  C     0.29711   0.54199   0.95374   0.00000  Uiso   1.00
C1047  C     0.02647   0.47703   0.54042   0.00000  Uiso   1.00
C1048  C     0.31459   0.53626   0.90697   0.00000  Uiso   1.00
C1049  C     0.00848   0.48187   0.58745   0.00000  Uiso   1.00
C1050  C     0.25109   0.48415   0.91172   0.00000  Uiso   1.00
C1051  C     0.09265   0.48013   0.59282   0.00000  Uiso   1.00
C1052  C     0.22661   0.49894   0.95527   0.00000  Uiso   1.00
C1053  C     0.10938   0.48634   0.54550   0.00000  Uiso   1.00
C1054  C     0.25271   0.52454   0.97784   0.00000  Uiso   1.00
C1055  C     0.18674   0.51965   0.54642   0.00000  Uiso   1.00
C1056  C     0.07634   0.48007   0.51920   0.00000  Uiso   1.00
C1057  C     0.17660   0.49082   0.97645   0.00000  Uiso   1.00
C1058  C     0.15809   0.49761   0.52351   0.00000  Uiso   1.00
C1059  C     0.12472   0.45697   0.61787   0.00000  Uiso   1.00
C1060  C     0.15434   0.42188   0.59046   0.00000  Uiso   1.00
C1061  C     0.23892   0.44187   0.89593   0.00000  Uiso   1.00
C1062  C     0.28228   0.41246   0.88780   0.00000  Uiso   1.00
C1063  C     0.28690   0.47965   0.60694   0.00000  Uiso   1.00
C1064  C     0.27092   0.43897   0.63176   0.00000  Uiso   1.00
C1065  C     0.02218   0.56414   0.88109   0.00000  Uiso   1.00
C1066  C     0.14335   0.48129   0.95112   0.00000  Uiso   1.00
C1067  C     0.07203   0.54701   0.88095   0.00000  Uiso   1.00
C1068  C     0.23272   0.53423   0.52350   0.00000  Uiso   1.00
C1069  C     0.09375   0.47688   0.97208   0.00000  Uiso   1.00
C1070  C     0.29441   0.35421   0.74030   0.00000  Uiso   1.00
C1071  C     0.03839   0.64578   0.76093   0.00000  Uiso   1.00
C1072  C     0.29482   0.64503   0.74071   0.00000  Uiso   1.00
Cu1073 Cu    0.04689   0.50001   0.75000   0.00000  Uiso   1.00
Cu1074 Cu    0.28645   0.49999   0.75000   0.00000  Uiso   1.00
F1075  F     0.25728   0.55847   0.54594   0.00000  Uiso   1.00
F1076  F     0.06285   0.46904   0.94621   0.00000  Uiso   1.00
F1077  F     0.25680   0.37363   0.72959   0.00000  Uiso   1.00
F1078  F     0.07586   0.62632   0.77186   0.00000  Uiso   1.00
F1079  F     0.10247   0.44744   0.80528   0.00000  Uiso   1.00
F1080  F     0.23054   0.55325   0.69552   0.00000  Uiso   1.00
H1081  H     0.31611   0.56306   0.97045   0.00000  Uiso   1.00
H1082  H     0.13099   0.40291   0.57460   0.00000  Uiso   1.00
H1083  H     0.18609   0.43375   0.56395   0.00000  Uiso   1.00
H1084  H     0.14918   0.47817   0.62968   0.00000  Uiso   1.00
H1085  H     0.10135   0.44144   0.64839   0.00000  Uiso   1.00
H1086  H     0.31247   0.42253   0.85862   0.00000  Uiso   1.00
H1087  H     0.29582   0.41048   0.91850   0.00000  Uiso   1.00
H1088  H     0.27068   0.38128   0.88018   0.00000  Uiso   1.00
H1089  H     0.20924   0.42664   0.92199   0.00000  Uiso   1.00
H1090  H     0.22653   0.44458   0.86477   0.00000  Uiso   1.00
H1091  H     0.27783   0.41327   0.60714   0.00000  Uiso   1.00
H1092  H     0.00119   0.47223   0.52004   0.00000  Uiso   1.00
H1093  H     0.29078   0.43266   0.65755   0.00000  Uiso   1.00
H1094  H     0.23129   0.44004   0.64889   0.00000  Uiso   1.00
H1095  H     0.27326   0.50644   0.62874   0.00000  Uiso   1.00
H1096  H     0.26819   0.48163   0.57959   0.00000  Uiso   1.00
H1097  H     0.07630   0.51511   0.86777   0.00000  Uiso   1.00
H1098  H     0.10108   0.56649   0.85902   0.00000  Uiso   1.00
H1099  H     0.07651   0.54722   0.91581   0.00000  Uiso   1.00
H1100  H     0.02029   0.56952   0.84588   0.00000  Uiso   1.00
H1101  H     0.01822   0.59511   0.89689   0.00000  Uiso   1.00
H1102  H     0.17200   0.52927   0.58107   0.00000  Uiso   1.00
H1103  H     0.15483   0.48009   0.91454   0.00000  Uiso   1.00
H1104  H     0.26509   0.62868   0.73262   0.00000  Uiso   1.00
H1105  H     0.06771   0.37136   0.76860   0.00000  Uiso   1.00
H1106  H     0.19598   0.45234   0.79894   0.00000  Uiso   1.00
H1107  H     0.13737   0.54736   0.70067   0.00000  Uiso   1.00
H1108  H     0.16868   0.40180   0.61328   0.00000  Uiso   1.00
N1109  N     0.11736   0.50001   0.74999   0.00000  Uiso   1.00
N1110  N     0.21597   0.49999   0.75001   0.00000  Uiso   1.00
O1111  O     0.03958   0.43989   0.75000   0.00000  Uiso   1.00
O1112  O     0.29375   0.56011   0.75000   0.00000  Uiso   1.00
O1113  O     0.29372   0.43988   0.75000   0.00000  Uiso   1.00
O1114  O     0.03961   0.56012   0.74999   0.00000  Uiso   1.00
O1115  O     0.01852   0.50001   0.81491   0.00000  Uiso   1.00
O1116  O     0.31481   0.49999   0.68508   0.00000  Uiso   1.00
O1117  O     0.27267   0.50000   0.81492   0.00000  Uiso   1.00
O1118  O     0.06067   0.50000   0.68508   0.00000  Uiso   1.00
C1119  C     0.66656   0.42068   0.74992   0.00000  Uiso   1.00
C1120  C     0.37135   0.35499   0.76047   0.00000  Uiso   1.00
C1121  C     0.33342   0.62392   0.75079   0.00000  Uiso   1.00
C1122  C     0.66622   0.37609   0.75013   0.00000  Uiso   1.00
C1123  C     0.51688   0.47359   0.77728   0.00000  Uiso   1.00
C1124  C     0.48313   0.52630   0.72258   0.00000  Uiso   1.00
C1125  C     0.46720   0.47371   0.77747   0.00000  Uiso   1.00
C1126  C     0.53273   0.52642   0.72268   0.00000  Uiso   1.00
C1127  C     0.63949   0.50152   0.83622   0.00000  Uiso   1.00
C1128  C     0.36052   0.49549   0.66379   0.00000  Uiso   1.00
C1129  C     0.62492   0.50663   0.88567   0.00000  Uiso   1.00
C1130  C     0.33334   0.57932   0.75038   0.00000  Uiso   1.00
C1131  C     0.37562   0.48603   0.61426   0.00000  Uiso   1.00
C1132  C     0.63045   0.54199   0.95374   0.00000  Uiso   1.00
C1133  C     0.35980   0.47703   0.54042   0.00000  Uiso   1.00
C1134  C     0.64793   0.53626   0.90697   0.00000  Uiso   1.00
C1135  C     0.34182   0.48187   0.58745   0.00000  Uiso   1.00
C1136  C     0.58443   0.48415   0.91172   0.00000  Uiso   1.00
C1137  C     0.42598   0.48013   0.59282   0.00000  Uiso   1.00
C1138  C     0.55995   0.49894   0.95527   0.00000  Uiso   1.00
C1139  C     0.44271   0.48634   0.54550   0.00000  Uiso   1.00
C1140  C     0.58604   0.52454   0.97784   0.00000  Uiso   1.00
C1141  C     0.52007   0.51965   0.54642   0.00000  Uiso   1.00
C1142  C     0.40967   0.48007   0.51920   0.00000  Uiso   1.00
C1143  C     0.50993   0.49082   0.97645   0.00000  Uiso   1.00
C1144  C     0.49143   0.49761   0.52351   0.00000  Uiso   1.00
C1145  C     0.45805   0.45697   0.61787   0.00000  Uiso   1.00
C1146  C     0.48767   0.42188   0.59046   0.00000  Uiso   1.00
C1147  C     0.57226   0.44187   0.89593   0.00000  Uiso   1.00
C1148  C     0.61562   0.41246   0.88780   0.00000  Uiso   1.00
C1149  C     0.62023   0.47965   0.60694   0.00000  Uiso   1.00
C1150  C     0.60425   0.43897   0.63176   0.00000  Uiso   1.00
C1151  C     0.35551   0.56414   0.88109   0.00000  Uiso   1.00
C1152  C     0.47668   0.48129   0.95112   0.00000  Uiso   1.00
C1153  C     0.40536   0.54701   0.88095   0.00000  Uiso   1.00
C1154  C     0.56605   0.53423   0.52350   0.00000  Uiso   1.00
C1155  C     0.42708   0.47688   0.97208   0.00000  Uiso   1.00
C1156  C     0.62775   0.35421   0.74030   0.00000  Uiso   1.00
C1157  C     0.37173   0.64578   0.76093   0.00000  Uiso   1.00
C1158  C     0.62815   0.64503   0.74071   0.00000  Uiso   1.00
Cu1159 Cu    0.38022   0.50001   0.75000   0.00000  Uiso   1.00
Cu1160 Cu    0.61978   0.49999   0.75000   0.00000  Uiso   1.00
F1161  F     0.59062   0.55847   0.54594   0.00000  Uiso   1.00
F1162  F     0.39619   0.46904   0.94621   0.00000  Uiso   1.00
F1163  F     0.59014   0.37363   0.72959   0.00000  Uiso   1.00
F1164  F     0.40919   0.62632   0.77186   0.00000  Uiso   1.00
F1165  F     0.43581   0.44744   0.80528   0.00000  Uiso   1.00
F1166  F     0.56388   0.55325   0.69552   0.00000  Uiso   1.00
H1167  H     0.64944   0.56306   0.97045   0.00000  Uiso   1.00
H1168  H     0.46433   0.40291   0.57460   0.00000  Uiso   1.00
H1169  H     0.51942   0.43375   0.56395   0.00000  Uiso   1.00
H1170  H     0.48252   0.47817   0.62968   0.00000  Uiso   1.00
H1171  H     0.43468   0.44144   0.64839   0.00000  Uiso   1.00
H1172  H     0.64580   0.42253   0.85862   0.00000  Uiso   1.00
H1173  H     0.62916   0.41048   0.91850   0.00000  Uiso   1.00
H1174  H     0.60401   0.38128   0.88018   0.00000  Uiso   1.00
H1175  H     0.54258   0.42664   0.92199   0.00000  Uiso   1.00
H1176  H     0.55986   0.44458   0.86477   0.00000  Uiso   1.00
H1177  H     0.61116   0.41327   0.60714   0.00000  Uiso   1.00
H1178  H     0.33452   0.47223   0.52004   0.00000  Uiso   1.00
H1179  H     0.62412   0.43266   0.65755   0.00000  Uiso   1.00
H1180  H     0.56462   0.44004   0.64889   0.00000  Uiso   1.00
H1181  H     0.60659   0.50644   0.62874   0.00000  Uiso   1.00
H1182  H     0.60153   0.48163   0.57959   0.00000  Uiso   1.00
H1183  H     0.40963   0.51511   0.86777   0.00000  Uiso   1.00
H1184  H     0.43441   0.56649   0.85902   0.00000  Uiso   1.00
H1185  H     0.40985   0.54722   0.91581   0.00000  Uiso   1.00
H1186  H     0.35362   0.56952   0.84588   0.00000  Uiso   1.00
H1187  H     0.35156   0.59511   0.89689   0.00000  Uiso   1.00
H1188  H     0.50533   0.52927   0.58107   0.00000  Uiso   1.00
H1189  H     0.48816   0.48009   0.91454   0.00000  Uiso   1.00
H1190  H     0.59843   0.62868   0.73262   0.00000  Uiso   1.00
H1191  H     0.40105   0.37136   0.76860   0.00000  Uiso   1.00
H1192  H     0.52931   0.45234   0.79894   0.00000  Uiso   1.00
H1193  H     0.47071   0.54736   0.70067   0.00000  Uiso   1.00
H1194  H     0.50202   0.40180   0.61328   0.00000  Uiso   1.00
N1195  N     0.45069   0.50001   0.74999   0.00000  Uiso   1.00
N1196  N     0.54931   0.49999   0.75001   0.00000  Uiso   1.00
O1197  O     0.37291   0.43989   0.75000   0.00000  Uiso   1.00
O1198  O     0.62709   0.56011   0.75000   0.00000  Uiso   1.00
O1199  O     0.62706   0.43988   0.75000   0.00000  Uiso   1.00
O1200  O     0.37294   0.56012   0.74999   0.00000  Uiso   1.00
O1201  O     0.35186   0.50001   0.81491   0.00000  Uiso   1.00
O1202  O     0.64814   0.49999   0.68508   0.00000  Uiso   1.00
O1203  O     0.60600   0.50000   0.81492   0.00000  Uiso   1.00
O1204  O     0.39400   0.50000   0.68508   0.00000  Uiso   1.00
C1205  C     0.99989   0.42068   0.74992   0.00000  Uiso   1.00
C1206  C     0.70469   0.35499   0.76047   0.00000  Uiso   1.00
C1207  C     0.66675   0.62392   0.75079   0.00000  Uiso   1.00
C1208  C     0.99956   0.37609   0.75013   0.00000  Uiso   1.00
C1209  C     0.85021   0.47359   0.77728   0.00000  Uiso   1.00
C1210  C     0.81646   0.52630   0.72258   0.00000  Uiso   1.00
C1211  C     0.80053   0.47371   0.77747   0.00000  Uiso   1.00
C1212  C     0.86606   0.52642   0.72268   0.00000  Uiso   1.00
C1213  C     0.97282   0.50152   0.83622   0.00000  Uiso   1.00
C1214  C     0.69385   0.49549   0.66379   0.00000  Uiso   1.00
C1215  C     0.95825   0.50663   0.88567   0.00000  Uiso   1.00
C1216  C     0.66668   0.57932   0.75038   0.00000  Uiso   1.00
C1217  C     0.70895   0.48603   0.61426   0.00000  Uiso   1.00
C1218  C     0.96378   0.54199   0.95374   0.00000  Uiso   1.00
C1219  C     0.69313   0.47703   0.54042   0.00000  Uiso   1.00
C1220  C     0.98126   0.53626   0.90697   0.00000  Uiso   1.00
C1221  C     0.67515   0.48187   0.58745   0.00000  Uiso   1.00
C1222  C     0.91776   0.48415   0.91172   0.00000  Uiso   1.00
C1223  C     0.75932   0.48013   0.59282   0.00000  Uiso   1.00
C1224  C     0.89328   0.49894   0.95527   0.00000  Uiso   1.00
C1225  C     0.77605   0.48634   0.54550   0.00000  Uiso   1.00
C1226  C     0.91938   0.52454   0.97784   0.00000  Uiso   1.00
C1227  C     0.85341   0.51965   0.54642   0.00000  Uiso   1.00
C1228  C     0.74301   0.48007   0.51920   0.00000  Uiso   1.00
C1229  C     0.84326   0.49082   0.97645   0.00000  Uiso   1.00
C1230  C     0.82476   0.49761   0.52351   0.00000  Uiso   1.00
C1231  C     0.79138   0.45697   0.61787   0.00000  Uiso   1.00
C1232  C     0.82100   0.42188   0.59046   0.00000  Uiso   1.00
C1233  C     0.90559   0.44187   0.89593   0.00000  Uiso   1.00
C1234  C     0.94895   0.41246   0.88780   0.00000  Uiso   1.00
C1235  C     0.95357   0.47965   0.60694   0.00000  Uiso   1.00
C1236  C     0.93758   0.43897   0.63176   0.00000  Uiso   1.00
C1237  C     0.68884   0.56414   0.88109   0.00000  Uiso   1.00
C1238  C     0.81002   0.48129   0.95112   0.00000  Uiso   1.00
C1239  C     0.73869   0.54701   0.88095   0.00000  Uiso   1.00
C1240  C     0.89939   0.53423   0.52350   0.00000  Uiso   1.00
C1241  C     0.76042   0.47688   0.97208   0.00000  Uiso   1.00
C1242  C     0.96108   0.35421   0.74030   0.00000  Uiso   1.00
C1243  C     0.70506   0.64578   0.76093   0.00000  Uiso   1.00
C1244  C     0.96149   0.64503   0.74071   0.00000  Uiso   1.00
Cu1245 Cu    0.71355   0.50001   0.75000   0.00000  Uiso   1.00
Cu1246 Cu    0.95311   0.49999   0.75000   0.00000  Uiso   1.00
F1247  F     0.92395   0.55847   0.54594   0.00000  Uiso   1.00
F1248  F     0.72952   0.46904   0.94621   0.00000  Uiso   1.00
F1249  F     0.92347   0.37363   0.72959   0.00000  Uiso   1.00
F1250  F     0.74252   0.62632   0.77186   0.00000  Uiso   1.00
F1251  F     0.76914   0.44744   0.80528   0.00000  Uiso   1.00
F1252  F     0.89721   0.55325   0.69552   0.00000  Uiso   1.00
H1253  H     0.98277   0.56306   0.97045   0.00000  Uiso   1.00
H1254  H     0.79766   0.40291   0.57460   0.00000  Uiso   1.00
H1255  H     0.85275   0.43375   0.56395   0.00000  Uiso   1.00
H1256  H     0.81585   0.47817   0.62968   0.00000  Uiso   1.00
H1257  H     0.76802   0.44144   0.64839   0.00000  Uiso   1.00
H1258  H     0.97914   0.42253   0.85862   0.00000  Uiso   1.00
H1259  H     0.96249   0.41048   0.91850   0.00000  Uiso   1.00
H1260  H     0.93734   0.38128   0.88018   0.00000  Uiso   1.00
H1261  H     0.87591   0.42664   0.92199   0.00000  Uiso   1.00
H1262  H     0.89320   0.44458   0.86477   0.00000  Uiso   1.00
H1263  H     0.94449   0.41327   0.60714   0.00000  Uiso   1.00
H1264  H     0.66785   0.47223   0.52004   0.00000  Uiso   1.00
H1265  H     0.95745   0.43266   0.65755   0.00000  Uiso   1.00
H1266  H     0.89795   0.44004   0.64889   0.00000  Uiso   1.00
H1267  H     0.93993   0.50644   0.62874   0.00000  Uiso   1.00
H1268  H     0.93486   0.48163   0.57959   0.00000  Uiso   1.00
H1269  H     0.74296   0.51511   0.86777   0.00000  Uiso   1.00
H1270  H     0.76774   0.56649   0.85902   0.00000  Uiso   1.00
H1271  H     0.74318   0.54722   0.91581   0.00000  Uiso   1.00
H1272  H     0.68696   0.56952   0.84588   0.00000  Uiso   1.00
H1273  H     0.68489   0.59511   0.89689   0.00000  Uiso   1.00
H1274  H     0.83866   0.52927   0.58107   0.00000  Uiso   1.00
H1275  H     0.82150   0.48009   0.91454   0.00000  Uiso   1.00
H1276  H     0.93176   0.62868   0.73262   0.00000  Uiso   1.00
H1277  H     0.73438   0.37136   0.76860   0.00000  Uiso   1.00
H1278  H     0.86264   0.45234   0.79894   0.00000  Uiso   1.00
H1279  H     0.80404   0.54736   0.70067   0.00000  Uiso   1.00
H1280  H     0.83535   0.40180   0.61328   0.00000  Uiso   1.00
N1281  N     0.78403   0.50001   0.74999   0.00000  Uiso   1.00
N1282  N     0.88264   0.49999   0.75001   0.00000  Uiso   1.00
O1283  O     0.70625   0.43989   0.75000   0.00000  Uiso   1.00
O1284  O     0.96042   0.56011   0.75000   0.00000  Uiso   1.00
O1285  O     0.96039   0.43988   0.75000   0.00000  Uiso   1.00
O1286  O     0.70628   0.56012   0.74999   0.00000  Uiso   1.00
O1287  O     0.68519   0.50001   0.81491   0.00000  Uiso   1.00
O1288  O     0.98148   0.49999   0.68508   0.00000  Uiso   1.00
O1289  O     0.93933   0.50000   0.81492   0.00000  Uiso   1.00
O1290  O     0.72733   0.50000   0.68508   0.00000  Uiso   1.00
C1291  C     0.33323   0.75401   0.74992   0.00000  Uiso   1.00
C1292  C     0.03802   0.68832   0.76047   0.00000  Uiso   1.00
C1293  C     0.00008   0.95725   0.75079   0.00000  Uiso   1.00
C1294  C     0.33289   0.70942   0.75013   0.00000  Uiso   1.00
C1295  C     0.18355   0.80692   0.77728   0.00000  Uiso   1.00
C1296  C     0.14979   0.85964   0.72258   0.00000  Uiso   1.00
C1297  C     0.13386   0.80704   0.77747   0.00000  Uiso   1.00
C1298  C     0.19940   0.85976   0.72268   0.00000  Uiso   1.00
C1299  C     0.30616   0.83486   0.83622   0.00000  Uiso   1.00
C1300  C     0.02719   0.82883   0.66379   0.00000  Uiso   1.00
C1301  C     0.29158   0.83996   0.88567   0.00000  Uiso   1.00
C1302  C     0.00001   0.91265   0.75038   0.00000  Uiso   1.00
C1303  C     0.04229   0.81936   0.61426   0.00000  Uiso   1.00
C1304  C     0.29711   0.87533   0.95374   0.00000  Uiso   1.00
C1305  C     0.02647   0.81036   0.54042   0.00000  Uiso   1.00
C1306  C     0.31459   0.86959   0.90697   0.00000  Uiso   1.00
C1307  C     0.00848   0.81520   0.58745   0.00000  Uiso   1.00
C1308  C     0.25109   0.81748   0.91172   0.00000  Uiso   1.00
C1309  C     0.09265   0.81346   0.59282   0.00000  Uiso   1.00
C1310  C     0.22661   0.83227   0.95527   0.00000  Uiso   1.00
C1311  C     0.10938   0.81968   0.54550   0.00000  Uiso   1.00
C1312  C     0.25271   0.85787   0.97784   0.00000  Uiso   1.00
C1313  C     0.18674   0.85298   0.54642   0.00000  Uiso   1.00
C1314  C     0.07634   0.81340   0.51920   0.00000  Uiso   1.00
C1315  C     0.17660   0.82415   0.97645   0.00000  Uiso   1.00
C1316  C     0.15809   0.83095   0.52351   0.00000  Uiso   1.00
C1317  C     0.12472   0.79030   0.61787   0.00000  Uiso   1.00
C1318  C     0.15434   0.75521   0.59046   0.00000  Uiso   1.00
C1319  C     0.23892   0.77520   0.89593   0.00000  Uiso   1.00
C1320  C     0.28228   0.74579   0.88780   0.00000  Uiso   1.00
C1321  C     0.28690   0.81298   0.60694   0.00000  Uiso   1.00
C1322  C     0.27092   0.77231   0.63176   0.00000  Uiso   1.00
C1323  C     0.02218   0.89747   0.88109   0.00000  Uiso   1.00
C1324  C     0.14335   0.81462   0.95112   0.00000  Uiso   1.00
C1325  C     0.07203   0.88034   0.88095   0.00000  Uiso   1.00
C1326  C     0.23272   0.86756   0.52350   0.00000  Uiso   1.00
C1327  C     0.09375   0.81021   0.97208   0.00000  Uiso   1.00
C1328  C     0.29441   0.68755   0.74030   0.00000  Uiso   1.00
C1329  C     0.03839   0.97912   0.76093   0.00000  Uiso   1.00
C1330  C     0.29482   0.97836   0.74071   0.00000  Uiso   1.00
Cu1331 Cu    0.04689   0.83334   0.75000   0.00000  Uiso   1.00
Cu1332 Cu    0.28645   0.83333   0.75000   0.00000  Uiso   1.00
F1333  F     0.25728   0.89180   0.54594   0.00000  Uiso   1.00
F1334  F     0.06285   0.80237   0.94621   0.00000  Uiso   1.00
F1335  F     0.25680   0.70696   0.72959   0.00000  Uiso   1.00
F1336  F     0.07586   0.95966   0.77186   0.00000  Uiso   1.00
F1337  F     0.10247   0.78078   0.80528   0.00000  Uiso   1.00
F1338  F     0.23054   0.88659   0.69552   0.00000  Uiso   1.00
H1339  H     0.31611   0.89640   0.97045   0.00000  Uiso   1.00
H1340  H     0.13099   0.73624   0.57460   0.00000  Uiso   1.00
H1341  H     0.18609   0.76708   0.56395   0.00000  Uiso   1.00
H1342  H     0.14918   0.81150   0.62968   0.00000  Uiso   1.00
H1343  H     0.10135   0.77477   0.64839   0.00000  Uiso   1.00
H1344  H     0.31247   0.75586   0.85862   0.00000  Uiso   1.00
H1345  H     0.29582   0.74381   0.91850   0.00000  Uiso   1.00
H1346  H     0.27068   0.71462   0.88018   0.00000  Uiso   1.00
H1347  H     0.20924   0.75997   0.92199   0.00000  Uiso   1.00
H1348  H     0.22653   0.77791   0.86477   0.00000  Uiso   1.00
H1349  H     0.27783   0.74660   0.60714   0.00000  Uiso   1.00
H1350  H     0.00119   0.80556   0.52004   0.00000  Uiso   1.00
H1351  H     0.29078   0.76599   0.65755   0.00000  Uiso   1.00
H1352  H     0.23129   0.77338   0.64889   0.00000  Uiso   1.00
H1353  H     0.27326   0.83977   0.62874   0.00000  Uiso   1.00
H1354  H     0.26819   0.81496   0.57959   0.00000  Uiso   1.00
H1355  H     0.07630   0.84845   0.86777   0.00000  Uiso   1.00
H1356  H     0.10108   0.89982   0.85902   0.00000  Uiso   1.00
H1357  H     0.07651   0.88056   0.91581   0.00000  Uiso   1.00
H1358  H     0.02029   0.90285   0.84588   0.00000  Uiso   1.00
H1359  H     0.01822   0.92845   0.89689   0.00000  Uiso   1.00
H1360  H     0.17200   0.86260   0.58107   0.00000  Uiso   1.00
H1361  H     0.15483   0.81343   0.91454   0.00000  Uiso   1.00
H1362  H     0.26509   0.96201   0.73262   0.00000  Uiso   1.00
H1363  H     0.06771   0.70470   0.76860   0.00000  Uiso   1.00
H1364  H     0.19598   0.78568   0.79894   0.00000  Uiso   1.00
H1365  H     0.13737   0.88069   0.70067   0.00000  Uiso   1.00
H1366  H     0.16868   0.73513   0.61328   0.00000  Uiso   1.00
N1367  N     0.11736   0.83334   0.74999   0.00000  Uiso   1.00
N1368  N     0.21597   0.83332   0.75001   0.00000  Uiso   1.00
O1369  O     0.03958   0.77322   0.75000   0.00000  Uiso   1.00
O1370  O     0.29375   0.89345   0.75000   0.00000  Uiso   1.00
O1371  O     0.29372   0.77321   0.75000   0.00000  Uiso   1.00
O1372  O     0.03961   0.89346   0.74999   0.00000  Uiso   1.00
O1373  O     0.01852   0.83334   0.81491   0.00000  Uiso   1.00
O1374  O     0.31481   0.83332   0.68508   0.00000  Uiso   1.00
O1375  O     0.27267   0.83333   0.81492   0.00000  Uiso   1.00
O1376  O     0.06067   0.83333   0.68508   0.00000  Uiso   1.00
C1377  C     0.66656   0.75401   0.74992   0.00000  Uiso   1.00
C1378  C     0.37135   0.68832   0.76047   0.00000  Uiso   1.00
C1379  C     0.33342   0.95725   0.75079   0.00000  Uiso   1.00
C1380  C     0.66622   0.70942   0.75013   0.00000  Uiso   1.00
C1381  C     0.51688   0.80692   0.77728   0.00000  Uiso   1.00
C1382  C     0.48313   0.85964   0.72258   0.00000  Uiso   1.00
C1383  C     0.46720   0.80704   0.77747   0.00000  Uiso   1.00
C1384  C     0.53273   0.85976   0.72268   0.00000  Uiso   1.00
C1385  C     0.63949   0.83486   0.83622   0.00000  Uiso   1.00
C1386  C     0.36052   0.82883   0.66379   0.00000  Uiso   1.00
C1387  C     0.62492   0.83996   0.88567   0.00000  Uiso   1.00
C1388  C     0.33334   0.91265   0.75038   0.00000  Uiso   1.00
C1389  C     0.37562   0.81936   0.61426   0.00000  Uiso   1.00
C1390  C     0.63045   0.87533   0.95374   0.00000  Uiso   1.00
C1391  C     0.35980   0.81036   0.54042   0.00000  Uiso   1.00
C1392  C     0.64793   0.86959   0.90697   0.00000  Uiso   1.00
C1393  C     0.34182   0.81520   0.58745   0.00000  Uiso   1.00
C1394  C     0.58443   0.81748   0.91172   0.00000  Uiso   1.00
C1395  C     0.42598   0.81346   0.59282   0.00000  Uiso   1.00
C1396  C     0.55995   0.83227   0.95527   0.00000  Uiso   1.00
C1397  C     0.44271   0.81968   0.54550   0.00000  Uiso   1.00
C1398  C     0.58604   0.85787   0.97784   0.00000  Uiso   1.00
C1399  C     0.52007   0.85298   0.54642   0.00000  Uiso   1.00
C1400  C     0.40967   0.81340   0.51920   0.00000  Uiso   1.00
C1401  C     0.50993   0.82415   0.97645   0.00000  Uiso   1.00
C1402  C     0.49143   0.83095   0.52351   0.00000  Uiso   1.00
C1403  C     0.45805   0.79030   0.61787   0.00000  Uiso   1.00
C1404  C     0.48767   0.75521   0.59046   0.00000  Uiso   1.00
C1405  C     0.57226   0.77520   0.89593   0.00000  Uiso   1.00
C1406  C     0.61562   0.74579   0.88780   0.00000  Uiso   1.00
C1407  C     0.62023   0.81298   0.60694   0.00000  Uiso   1.00
C1408  C     0.60425   0.77231   0.63176   0.00000  Uiso   1.00
C1409  C     0.35551   0.89747   0.88109   0.00000  Uiso   1.00
C1410  C     0.47668   0.81462   0.95112   0.00000  Uiso   1.00
C1411  C     0.40536   0.88034   0.88095   0.00000  Uiso   1.00
C1412  C     0.56605   0.86756   0.52350   0.00000  Uiso   1.00
C1413  C     0.42708   0.81021   0.97208   0.00000  Uiso   1.00
C1414  C     0.62775   0.68755   0.74030   0.00000  Uiso   1.00
C1415  C     0.37173   0.97912   0.76093   0.00000  Uiso   1.00
C1416  C     0.62815   0.97836   0.74071   0.00000  Uiso   1.00
Cu1417 Cu    0.38022   0.83334   0.75000   0.00000  Uiso   1.00
Cu1418 Cu    0.61978   0.83333   0.75000   0.00000  Uiso   1.00
F1419  F     0.59062   0.89180   0.54594   0.00000  Uiso   1.00
F1420  F     0.39619   0.80237   0.94621   0.00000  Uiso   1.00
F1421  F     0.59014   0.70696   0.72959   0.00000  Uiso   1.00
F1422  F     0.40919   0.95966   0.77186   0.00000  Uiso   1.00
F1423  F     0.43581   0.78078   0.80528   0.00000  Uiso   1.00
F1424  F     0.56388   0.88659   0.69552   0.00000  Uiso   1.00
H1425  H     0.64944   0.89640   0.97045   0.00000  Uiso   1.00
H1426  H     0.46433   0.73624   0.57460   0.00000  Uiso   1.00
H1427  H     0.51942   0.76708   0.56395   0.00000  Uiso   1.00
H1428  H     0.48252   0.81150   0.62968   0.00000  Uiso   1.00
H1429  H     0.43468   0.77477   0.64839   0.00000  Uiso   1.00
H1430  H     0.64580   0.75586   0.85862   0.00000  Uiso   1.00
H1431  H     0.62916   0.74381   0.91850   0.00000  Uiso   1.00
H1432  H     0.60401   0.71462   0.88018   0.00000  Uiso   1.00
H1433  H     0.54258   0.75997   0.92199   0.00000  Uiso   1.00
H1434  H     0.55986   0.77791   0.86477   0.00000  Uiso   1.00
H1435  H     0.61116   0.74660   0.60714   0.00000  Uiso   1.00
H1436  H     0.33452   0.80556   0.52004   0.00000  Uiso   1.00
H1437  H     0.62412   0.76599   0.65755   0.00000  Uiso   1.00
H1438  H     0.56462   0.77338   0.64889   0.00000  Uiso   1.00
H1439  H     0.60659   0.83977   0.62874   0.00000  Uiso   1.00
H1440  H     0.60153   0.81496   0.57959   0.00000  Uiso   1.00
H1441  H     0.40963   0.84845   0.86777   0.00000  Uiso   1.00
H1442  H     0.43441   0.89982   0.85902   0.00000  Uiso   1.00
H1443  H     0.40985   0.88056   0.91581   0.00000  Uiso   1.00
H1444  H     0.35362   0.90285   0.84588   0.00000  Uiso   1.00
H1445  H     0.35156   0.92845   0.89689   0.00000  Uiso   1.00
H1446  H     0.50533   0.86260   0.58107   0.00000  Uiso   1.00
H1447  H     0.48816   0.81343   0.91454   0.00000  Uiso   1.00
H1448  H     0.59843   0.96201   0.73262   0.00000  Uiso   1.00
H1449  H     0.40105   0.70470   0.76860   0.00000  Uiso   1.00
H1450  H     0.52931   0.78568   0.79894   0.00000  Uiso   1.00
H1451  H     0.47071   0.88069   0.70067   0.00000  Uiso   1.00
H1452  H     0.50202   0.73513   0.61328   0.00000  Uiso   1.00
N1453  N     0.45069   0.83334   0.74999   0.00000  Uiso   1.00
N1454  N     0.54931   0.83332   0.75001   0.00000  Uiso   1.00
O1455  O     0.37291   0.77322   0.75000   0.00000  Uiso   1.00
O1456  O     0.62709   0.89345   0.75000   0.00000  Uiso   1.00
O1457  O     0.62706   0.77321   0.75000   0.00000  Uiso   1.00
O1458  O     0.37294   0.89346   0.74999   0.00000  Uiso   1.00
O1459  O     0.35186   0.83334   0.81491   0.00000  Uiso   1.00
O1460  O     0.64814   0.83332   0.68508   0.00000  Uiso   1.00
O1461  O     0.60600   0.83333   0.81492   0.00000  Uiso   1.00
O1462  O     0.39400   0.83333   0.68508   0.00000  Uiso   1.00
C1463  C     0.99989   0.75401   0.74992   0.00000  Uiso   1.00
C1464  C     0.70469   0.68832   0.76047   0.00000  Uiso   1.00
C1465  C     0.66675   0.95725   0.75079   0.00000  Uiso   1.00
C1466  C     0.99956   0.70942   0.75013   0.00000  Uiso   1.00
C1467  C     0.85021   0.80692   0.77728   0.00000  Uiso   1.00
C1468  C     0.81646   0.85964   0.72258   0.00000  Uiso   1.00
C1469  C     0.80053   0.80704   0.77747   0.00000  Uiso   1.00
C1470  C     0.86606   0.85976   0.72268   0.00000  Uiso   1.00
C1471  C     0.97282   0.83486   0.83622   0.00000  Uiso   1.00
C1472  C     0.69385   0.82883   0.66379   0.00000  Uiso   1.00
C1473  C     0.95825   0.83996   0.88567   0.00000  Uiso   1.00
C1474  C     0.66668   0.91265   0.75038   0.00000  Uiso   1.00
C1475  C     0.70895   0.81936   0.61426   0.00000  Uiso   1.00
C1476  C     0.96378   0.87533   0.95374   0.00000  Uiso   1.00
C1477  C     0.69313   0.81036   0.54042   0.00000  Uiso   1.00
C1478  C     0.98126   0.86959   0.90697   0.00000  Uiso   1.00
C1479  C     0.67515   0.81520   0.58745   0.00000  Uiso   1.00
C1480  C     0.91776   0.81748   0.91172   0.00000  Uiso   1.00
C1481  C     0.75932   0.81346   0.59282   0.00000  Uiso   1.00
C1482  C     0.89328   0.83227   0.95527   0.00000  Uiso   1.00
C1483  C     0.77605   0.81968   0.54550   0.00000  Uiso   1.00
C1484  C     0.91938   0.85787   0.97784   0.00000  Uiso   1.00
C1485  C     0.85341   0.85298   0.54642   0.00000  Uiso   1.00
C1486  C     0.74301   0.81340   0.51920   0.00000  Uiso   1.00
C1487  C     0.84326   0.82415   0.97645   0.00000  Uiso   1.00
C1488  C     0.82476   0.83095   0.52351   0.00000  Uiso   1.00
C1489  C     0.79138   0.79030   0.61787   0.00000  Uiso   1.00
C1490  C     0.82100   0.75521   0.59046   0.00000  Uiso   1.00
C1491  C     0.90559   0.77520   0.89593   0.00000  Uiso   1.00
C1492  C     0.94895   0.74579   0.88780   0.00000  Uiso   1.00
C1493  C     0.95357   0.81298   0.60694   0.00000  Uiso   1.00
C1494  C     0.93758   0.77231   0.63176   0.00000  Uiso   1.00
C1495  C     0.68884   0.89747   0.88109   0.00000  Uiso   1.00
C1496  C     0.81002   0.81462   0.95112   0.00000  Uiso   1.00
C1497  C     0.73869   0.88034   0.88095   0.00000  Uiso   1.00
C1498  C     0.89939   0.86756   0.52350   0.00000  Uiso   1.00
C1499  C     0.76042   0.81021   0.97208   0.00000  Uiso   1.00
C1500  C     0.96108   0.68755   0.74030   0.00000  Uiso   1.00
C1501  C     0.70506   0.97912   0.76093   0.00000  Uiso   1.00
C1502  C     0.96149   0.97836   0.74071   0.00000  Uiso   1.00
Cu1503 Cu    0.71355   0.83334   0.75000   0.00000  Uiso   1.00
Cu1504 Cu    0.95311   0.83333   0.75000   0.00000  Uiso   1.00
F1505  F     0.92395   0.89180   0.54594   0.00000  Uiso   1.00
F1506  F     0.72952   0.80237   0.94621   0.00000  Uiso   1.00
F1507  F     0.92347   0.70696   0.72959   0.00000  Uiso   1.00
F1508  F     0.74252   0.95966   0.77186   0.00000  Uiso   1.00
F1509  F     0.76914   0.78078   0.80528   0.00000  Uiso   1.00
F1510  F     0.89721   0.88659   0.69552   0.00000  Uiso   1.00
H1511  H     0.98277   0.89640   0.97045   0.00000  Uiso   1.00
H1512  H     0.79766   0.73624   0.57460   0.00000  Uiso   1.00
H1513  H     0.85275   0.76708   0.56395   0.00000  Uiso   1.00
H1514  H     0.81585   0.81150   0.62968   0.00000  Uiso   1.00
H1515  H     0.76802   0.77477   0.64839   0.00000  Uiso   1.00
H1516  H     0.97914   0.75586   0.85862   0.00000  Uiso   1.00
H1517  H     0.96249   0.74381   0.91850   0.00000  Uiso   1.00
H1518  H     0.93734   0.71462   0.88018   0.00000  Uiso   1.00
H1519  H     0.87591   0.75997   0.92199   0.00000  Uiso   1.00
H1520  H     0.89320   0.77791   0.86477   0.00000  Uiso   1.00
H1521  H     0.94449   0.74660   0.60714   0.00000  Uiso   1.00
H1522  H     0.66785   0.80556   0.52004   0.00000  Uiso   1.00
H1523  H     0.95745   0.76599   0.65755   0.00000  Uiso   1.00
H1524  H     0.89795   0.77338   0.64889   0.00000  Uiso   1.00
H1525  H     0.93993   0.83977   0.62874   0.00000  Uiso   1.00
H1526  H     0.93486   0.81496   0.57959   0.00000  Uiso   1.00
H1527  H     0.74296   0.84845   0.86777   0.00000  Uiso   1.00
H1528  H     0.76774   0.89982   0.85902   0.00000  Uiso   1.00
H1529  H     0.74318   0.88056   0.91581   0.00000  Uiso   1.00
H1530  H     0.68696   0.90285   0.84588   0.00000  Uiso   1.00
H1531  H     0.68489   0.92845   0.89689   0.00000  Uiso   1.00
H1532  H     0.83866   0.86260   0.58107   0.00000  Uiso   1.00
H1533  H     0.82150   0.81343   0.91454   0.00000  Uiso   1.00
H1534  H     0.93176   0.96201   0.73262   0.00000  Uiso   1.00
H1535  H     0.73438   0.70470   0.76860   0.00000  Uiso   1.00
H1536  H     0.86264   0.78568   0.79894   0.00000  Uiso   1.00
H1537  H     0.80404   0.88069   0.70067   0.00000  Uiso   1.00
H1538  H     0.83535   0.73513   0.61328   0.00000  Uiso   1.00
N1539  N     0.78403   0.83334   0.74999   0.00000  Uiso   1.00
N1540  N     0.88264   0.83332   0.75001   0.00000  Uiso   1.00
O1541  O     0.70625   0.77322   0.75000   0.00000  Uiso   1.00
O1542  O     0.96042   0.89345   0.75000   0.00000  Uiso   1.00
O1543  O     0.96039   0.77321   0.75000   0.00000  Uiso   1.00
O1544  O     0.70628   0.89346   0.74999   0.00000  Uiso   1.00
O1545  O     0.68519   0.83334   0.81491   0.00000  Uiso   1.00
O1546  O     0.98148   0.83332   0.68508   0.00000  Uiso   1.00
O1547  O     0.93933   0.83333   0.81492   0.00000  Uiso   1.00
O1548  O     0.72733   0.83333   0.68508   0.00000  Uiso   1.00
loop_
_geom_bond_atom_site_label_1
_geom_bond_atom_site_label_2
_geom_bond_distance
_geom_bond_site_symmetry_2
_ccdc_geom_bond_type
C1     O81     1.287   .     A
C1     C4      1.450   .     S
C1     O165    1.291   .     S
C2     H73     1.083   .     S
C2     C176    1.400   1_455 S
C2     C555    1.383   1_545 S
C3     C12     1.450   .     S
C3     C39     1.405   .     A
C3     C212    1.400   1_455 S
C4     C38     1.405   .     A
C4     C88     1.400   .     S
C5     H74     1.081   .     S
C5     C7      1.414   .     A
C5     N78     1.365   .     A
C6     H75     1.082   .     S
C6     N77     1.365   .     A
C6     C8      1.414   .     A
C7     N77     1.368   .     A
C7     F47     1.355   .     S
C8     N78     1.368   .     A
C8     F48     1.355   .     S
C9     O85     1.294   .     A
C9     C11     1.471   .     S
C9     O169    1.291   .     S
C10    O86     1.301   .     A
C10    C13     1.497   .     S
C10    O256    1.299   1_455 S
C11    C18     1.414   .     A
C11    C16     1.420   .     A
C12    O82     1.288   .     A
C12    O252    1.291   1_455 S
C13    C19     1.422   .     A
C13    C17     1.431   .     A
C14    H49     1.084   .     S
C14    C16     1.399   .     A
C14    C22     1.399   .     A
C15    H60     1.084   .     S
C15    C24     1.398   .     A
C15    C17     1.404   .     A
C16    C119    1.517   .     S
C17    C203    1.518   1_455 S
C18    C29     1.529   .     S
C18    C20     1.417   .     A
C19    C21     1.414   .     A
C19    C27     1.538   .     S
C20    C25     1.421   .     A
C20    C22     1.416   .     A
C21    C26     1.417   .     A
C21    C24     1.410   .     A
C22    C810    1.400   .     S
C23    C26     1.408   .     A
C23    H70     1.080   .     S
C23    C36     1.390   .     A
C24    C811    1.400   1_554 S
C25    C34     1.412   .     A
C25    C800    1.415   .     S
C26    C799    1.415   1_554 S
C27    H52     1.108   .     S
C27    H53     1.110   .     S
C27    C28     1.533   .     S
C28    H51     1.108   .     S
C28    H50     1.111   .     S
C28    H76     1.111   .     S
C29    C30     1.531   .     S
C29    H57     1.109   .     S
C29    H58     1.108   .     S
C30    H54     1.109   .     S
C30    H56     1.111   .     S
C30    H55     1.111   .     S
C31    H63     1.106   .     S
C31    C32     1.529   .     S
C31    H64     1.110   .     S
C31    C103    1.518   .     S
C32    H61     1.108   .     S
C32    H62     1.110   .     S
C32    H59     1.111   .     S
C33    H69     1.112   .     S
C33    C35     1.525   .     S
C33    H68     1.108   .     S
C33    C188    1.517   1_455 S
C34    C37     1.393   .     A
C34    H71     1.081   .     S
C35    H65     1.110   .     S
C35    H66     1.110   .     S
C35    H67     1.110   .     S
C36    F43     1.359   .     S
C36    C796    1.400   1_554 S
C37    F44     1.359   .     S
C37    C798    1.400   .     S
C38    F45     1.358   .     S
C38    C556    1.383   1_545 S
C39    F46     1.358   .     S
C39    C260    1.383   .     S
C40    H72     1.083   .     S
C40    C89     1.400   .     S
C40    C296    1.383   .     S
Cu41   O86     1.923   .     S
Cu41   N77     2.008   .     S
Cu41   O83     1.936   .     S
Cu41   O79     1.965   .     S
Cu41   O82     1.966   .     S
Cu41   Cu214   2.671   1_455 S
Cu42   O80     1.965   .     S
Cu42   O81     1.966   .     S
Cu42   O84     1.936   .     S
Cu42   O85     1.923   .     S
Cu42   N78     2.008   .     S
Cu42   Cu127   2.671   .     S
O79    C173    1.291   1_455 S
O80    C98     1.291   .     S
O83    C181    1.291   1_455 S
O84    C96     1.299   .     S
C87    O167    1.287   .     A
C87    C90     1.450   .     S
C87    O251    1.291   .     S
C88    H159    1.083   .     S
C88    C641    1.383   1_545 S
C89    C98     1.450   .     S
C89    C125    1.405   .     A
C90    C124    1.405   .     A
C90    C174    1.400   .     S
C91    H160    1.081   .     S
C91    C93     1.414   .     A
C91    N164    1.365   .     A
C92    H161    1.082   .     S
C92    N163    1.365   .     A
C92    C94     1.414   .     A
C93    N163    1.368   .     A
C93    F133    1.355   .     S
C94    N164    1.368   .     A
C94    F134    1.355   .     S
C95    O171    1.294   .     A
C95    C97     1.471   .     S
C95    O255    1.291   .     S
C96    O172    1.301   .     A
C96    C99     1.497   .     S
C97    C104    1.414   .     A
C97    C102    1.420   .     A
C98    O168    1.288   .     A
C99    C105    1.422   .     A
C99    C103    1.431   .     A
C100   H135    1.084   .     S
C100   C102    1.399   .     A
C100   C108    1.399   .     A
C101   H146    1.084   .     S
C101   C110    1.398   .     A
C101   C103    1.404   .     A
C102   C205    1.517   .     S
C104   C115    1.529   .     S
C104   C106    1.417   .     A
C105   C107    1.414   .     A
C105   C113    1.538   .     S
C106   C111    1.421   .     A
C106   C108    1.416   .     A
C107   C112    1.417   .     A
C107   C110    1.410   .     A
C108   C896    1.400   .     S
C109   C112    1.408   .     A
C109   H156    1.080   .     S
C109   C122    1.390   .     A
C110   C897    1.400   1_554 S
C111   C120    1.412   .     A
C111   C886    1.415   .     S
C112   C885    1.415   1_554 S
C113   H138    1.108   .     S
C113   H139    1.110   .     S
C113   C114    1.533   .     S
C114   H137    1.108   .     S
C114   H136    1.111   .     S
C114   H162    1.111   .     S
C115   C116    1.531   .     S
C115   H143    1.109   .     S
C115   H144    1.108   .     S
C116   H140    1.109   .     S
C116   H142    1.111   .     S
C116   H141    1.111   .     S
C117   H149    1.106   .     S
C117   C118    1.529   .     S
C117   H150    1.110   .     S
C117   C189    1.518   .     S
C118   H147    1.108   .     S
C118   H148    1.110   .     S
C118   H145    1.111   .     S
C119   H155    1.112   .     S
C119   C121    1.525   .     S
C119   H154    1.108   .     S
C120   C123    1.393   .     A
C120   H157    1.081   .     S
C121   H151    1.110   .     S
C121   H152    1.110   .     S
C121   H153    1.110   .     S
C122   F129    1.359   .     S
C122   C882    1.400   1_554 S
C123   F130    1.359   .     S
C123   C884    1.400   .     S
C124   F131    1.358   .     S
C124   C642    1.383   1_545 S
C125   F132    1.358   .     S
C125   C346    1.383   .     S
C126   H158    1.083   .     S
C126   C175    1.400   .     S
C126   C382    1.383   .     S
Cu127  O172    1.923   .     S
Cu127  N163    2.008   .     S
Cu127  O169    1.936   .     S
Cu127  O165    1.965   .     S
Cu127  O168    1.966   .     S
Cu128  O166    1.965   .     S
Cu128  O167    1.966   .     S
Cu128  O170    1.936   .     S
Cu128  O171    1.923   .     S
Cu128  N164    2.008   .     S
Cu128  Cu213   2.671   .     S
O166   C184    1.291   .     S
O170   C182    1.299   .     S
C173   O253    1.287   .     A
C173   C176    1.450   .     S
C173   O79     1.291   1_655 S
C174   H245    1.083   .     S
C174   C727    1.383   1_545 S
C175   C184    1.450   .     S
C175   C211    1.405   .     A
C176   C210    1.405   .     A
C176   C2      1.400   1_655 S
C177   H246    1.081   .     S
C177   C179    1.414   .     A
C177   N250    1.365   .     A
C178   H247    1.082   .     S
C178   N249    1.365   .     A
C178   C180    1.414   .     A
C179   N249    1.368   .     A
C179   F219    1.355   .     S
C180   N250    1.368   .     A
C180   F220    1.355   .     S
C181   O257    1.294   .     A
C181   C183    1.471   .     S
C181   O83     1.291   1_655 S
C182   O258    1.301   .     A
C182   C185    1.497   .     S
C183   C190    1.414   .     A
C183   C188    1.420   .     A
C184   O254    1.288   .     A
C185   C191    1.422   .     A
C185   C189    1.431   .     A
C186   H221    1.084   .     S
C186   C188    1.399   .     A
C186   C194    1.399   .     A
C187   H232    1.084   .     S
C187   C196    1.398   .     A
C187   C189    1.404   .     A
C188   C33     1.517   1_655 S
C190   C201    1.529   .     S
C190   C192    1.417   .     A
C191   C193    1.414   .     A
C191   C199    1.538   .     S
C192   C197    1.421   .     A
C192   C194    1.416   .     A
C193   C198    1.417   .     A
C193   C196    1.410   .     A
C194   C982    1.400   .     S
C195   C198    1.408   .     A
C195   H242    1.080   .     S
C195   C208    1.390   .     A
C196   C983    1.400   1_554 S
C197   C206    1.412   .     A
C197   C972    1.415   .     S
C198   C971    1.415   1_554 S
C199   H224    1.108   .     S
C199   H225    1.110   .     S
C199   C200    1.533   .     S
C200   H223    1.108   .     S
C200   H222    1.111   .     S
C200   H248    1.111   .     S
C201   C202    1.531   .     S
C201   H229    1.109   .     S
C201   H230    1.108   .     S
C202   H226    1.109   .     S
C202   H228    1.111   .     S
C202   H227    1.111   .     S
C203   H235    1.106   .     S
C203   C204    1.529   .     S
C203   H236    1.110   .     S
C203   C17     1.518   1_655 S
C204   H233    1.108   .     S
C204   H234    1.110   .     S
C204   H231    1.111   .     S
C205   H241    1.112   .     S
C205   C207    1.525   .     S
C205   H240    1.108   .     S
C206   C209    1.393   .     A
C206   H243    1.081   .     S
C207   H237    1.110   .     S
C207   H238    1.110   .     S
C207   H239    1.110   .     S
C208   F215    1.359   .     S
C208   C968    1.400   1_554 S
C209   F216    1.359   .     S
C209   C970    1.400   .     S
C210   F217    1.358   .     S
C210   C728    1.383   1_545 S
C211   F218    1.358   .     S
C211   C432    1.383   .     S
C212   H244    1.083   .     S
C212   C3      1.400   1_655 S
C212   C468    1.383   .     S
Cu213  O258    1.923   .     S
Cu213  N249    2.008   .     S
Cu213  O255    1.936   .     S
Cu213  O251    1.965   .     S
Cu213  O254    1.966   .     S
Cu214  O252    1.965   .     S
Cu214  O253    1.966   .     S
Cu214  O256    1.936   .     S
Cu214  O257    1.923   .     S
Cu214  N250    2.008   .     S
Cu214  Cu41    2.671   1_655 S
O252   C12     1.291   1_655 S
O256   C10     1.299   1_655 S
C259   O339    1.287   .     A
C259   C262    1.450   .     S
C259   O423    1.291   .     S
C260   H331    1.083   .     S
C260   C434    1.400   1_455 S
C261   C270    1.450   .     S
C261   C297    1.405   .     A
C261   C470    1.400   1_455 S
C262   C296    1.405   .     A
C262   C346    1.400   .     S
C263   H332    1.081   .     S
C263   C265    1.414   .     A
C263   N336    1.365   .     A
C264   H333    1.082   .     S
C264   N335    1.365   .     A
C264   C266    1.414   .     A
C265   N335    1.368   .     A
C265   F305    1.355   .     S
C266   N336    1.368   .     A
C266   F306    1.355   .     S
C267   O343    1.294   .     A
C267   C269    1.471   .     S
C267   O427    1.291   .     S
C268   O344    1.301   .     A
C268   C271    1.497   .     S
C268   O514    1.299   1_455 S
C269   C276    1.414   .     A
C269   C274    1.420   .     A
C270   O340    1.288   .     A
C270   O510    1.291   1_455 S
C271   C277    1.422   .     A
C271   C275    1.431   .     A
C272   H307    1.084   .     S
C272   C274    1.399   .     A
C272   C280    1.399   .     A
C273   H318    1.084   .     S
C273   C282    1.398   .     A
C273   C275    1.404   .     A
C274   C377    1.517   .     S
C275   C461    1.518   1_455 S
C276   C287    1.529   .     S
C276   C278    1.417   .     A
C277   C279    1.414   .     A
C277   C285    1.538   .     S
C278   C283    1.421   .     A
C278   C280    1.416   .     A
C279   C284    1.417   .     A
C279   C282    1.410   .     A
C280   C1068   1.400   .     S
C281   C284    1.408   .     A
C281   H328    1.080   .     S
C281   C294    1.390   .     A
C282   C1069   1.400   1_554 S
C283   C292    1.412   .     A
C283   C1058   1.415   .     S
C284   C1057   1.415   1_554 S
C285   H310    1.108   .     S
C285   H311    1.110   .     S
C285   C286    1.533   .     S
C286   H309    1.108   .     S
C286   H308    1.111   .     S
C286   H334    1.111   .     S
C287   C288    1.531   .     S
C287   H315    1.109   .     S
C287   H316    1.108   .     S
C288   H312    1.109   .     S
C288   H314    1.111   .     S
C288   H313    1.111   .     S
C289   H321    1.106   .     S
C289   C290    1.529   .     S
C289   H322    1.110   .     S
C289   C361    1.518   .     S
C290   H319    1.108   .     S
C290   H320    1.110   .     S
C290   H317    1.111   .     S
C291   H327    1.112   .     S
C291   C293    1.525   .     S
C291   H326    1.108   .     S
C291   C446    1.517   1_455 S
C292   C295    1.393   .     A
C292   H329    1.081   .     S
C293   H323    1.110   .     S
C293   H324    1.110   .     S
C293   H325    1.110   .     S
C294   F301    1.359   .     S
C294   C1054   1.400   1_554 S
C295   F302    1.359   .     S
C295   C1056   1.400   .     S
C296   F303    1.358   .     S
C297   F304    1.358   .     S
C297   C518    1.383   .     S
C298   H330    1.083   .     S
C298   C347    1.400   .     S
C298   C554    1.383   .     S
Cu299  O344    1.923   .     S
Cu299  N335    2.008   .     S
Cu299  O341    1.936   .     S
Cu299  O337    1.965   .     S
Cu299  O340    1.966   .     S
Cu299  Cu472   2.671   1_455 S
Cu300  O338    1.965   .     S
Cu300  O339    1.966   .     S
Cu300  O342    1.936   .     S
Cu300  O343    1.923   .     S
Cu300  N336    2.008   .     S
Cu300  Cu385   2.671   .     S
O337   C431    1.291   1_455 S
O338   C356    1.291   .     S
O341   C439    1.291   1_455 S
O342   C354    1.299   .     S
C345   O425    1.287   .     A
C345   C348    1.450   .     S
C345   O509    1.291   .     S
C346   H417    1.083   .     S
C347   C356    1.450   .     S
C347   C383    1.405   .     A
C348   C382    1.405   .     A
C348   C432    1.400   .     S
C349   H418    1.081   .     S
C349   C351    1.414   .     A
C349   N422    1.365   .     A
C350   H419    1.082   .     S
C350   N421    1.365   .     A
C350   C352    1.414   .     A
C351   N421    1.368   .     A
C351   F391    1.355   .     S
C352   N422    1.368   .     A
C352   F392    1.355   .     S
C353   O429    1.294   .     A
C353   C355    1.471   .     S
C353   O513    1.291   .     S
C354   O430    1.301   .     A
C354   C357    1.497   .     S
C355   C362    1.414   .     A
C355   C360    1.420   .     A
C356   O426    1.288   .     A
C357   C363    1.422   .     A
C357   C361    1.431   .     A
C358   H393    1.084   .     S
C358   C360    1.399   .     A
C358   C366    1.399   .     A
C359   H404    1.084   .     S
C359   C368    1.398   .     A
C359   C361    1.404   .     A
C360   C463    1.517   .     S
C362   C373    1.529   .     S
C362   C364    1.417   .     A
C363   C365    1.414   .     A
C363   C371    1.538   .     S
C364   C369    1.421   .     A
C364   C366    1.416   .     A
C365   C370    1.417   .     A
C365   C368    1.410   .     A
C366   C1154   1.400   .     S
C367   C370    1.408   .     A
C367   H414    1.080   .     S
C367   C380    1.390   .     A
C368   C1155   1.400   1_554 S
C369   C378    1.412   .     A
C369   C1144   1.415   .     S
C370   C1143   1.415   1_554 S
C371   H396    1.108   .     S
C371   H397    1.110   .     S
C371   C372    1.533   .     S
C372   H395    1.108   .     S
C372   H394    1.111   .     S
C372   H420    1.111   .     S
C373   C374    1.531   .     S
C373   H401    1.109   .     S
C373   H402    1.108   .     S
C374   H398    1.109   .     S
C374   H400    1.111   .     S
C374   H399    1.111   .     S
C375   H407    1.106   .     S
C375   C376    1.529   .     S
C375   H408    1.110   .     S
C375   C447    1.518   .     S
C376   H405    1.108   .     S
C376   H406    1.110   .     S
C376   H403    1.111   .     S
C377   H413    1.112   .     S
C377   C379    1.525   .     S
C377   H412    1.108   .     S
C378   C381    1.393   .     A
C378   H415    1.081   .     S
C379   H409    1.110   .     S
C379   H410    1.110   .     S
C379   H411    1.110   .     S
C380   F387    1.359   .     S
C380   C1140   1.400   1_554 S
C381   F388    1.359   .     S
C381   C1142   1.400   .     S
C382   F389    1.358   .     S
C383   F390    1.358   .     S
C383   C604    1.383   .     S
C384   H416    1.083   .     S
C384   C433    1.400   .     S
C384   C640    1.383   .     S
Cu385  O430    1.923   .     S
Cu385  N421    2.008   .     S
Cu385  O427    1.936   .     S
Cu385  O423    1.965   .     S
Cu385  O426    1.966   .     S
Cu386  O424    1.965   .     S
Cu386  O425    1.966   .     S
Cu386  O428    1.936   .     S
Cu386  O429    1.923   .     S
Cu386  N422    2.008   .     S
Cu386  Cu471   2.671   .     S
O424   C442    1.291   .     S
O428   C440    1.299   .     S
C431   O511    1.287   .     A
C431   C434    1.450   .     S
C431   O337    1.291   1_655 S
C432   H503    1.083   .     S
C433   C442    1.450   .     S
C433   C469    1.405   .     A
C434   C468    1.405   .     A
C434   C260    1.400   1_655 S
C435   H504    1.081   .     S
C435   C437    1.414   .     A
C435   N508    1.365   .     A
C436   H505    1.082   .     S
C436   N507    1.365   .     A
C436   C438    1.414   .     A
C437   N507    1.368   .     A
C437   F477    1.355   .     S
C438   N508    1.368   .     A
C438   F478    1.355   .     S
C439   O515    1.294   .     A
C439   C441    1.471   .     S
C439   O341    1.291   1_655 S
C440   O516    1.301   .     A
C440   C443    1.497   .     S
C441   C448    1.414   .     A
C441   C446    1.420   .     A
C442   O512    1.288   .     A
C443   C449    1.422   .     A
C443   C447    1.431   .     A
C444   H479    1.084   .     S
C444   C446    1.399   .     A
C444   C452    1.399   .     A
C445   H490    1.084   .     S
C445   C454    1.398   .     A
C445   C447    1.404   .     A
C446   C291    1.517   1_655 S
C448   C459    1.529   .     S
C448   C450    1.417   .     A
C449   C451    1.414   .     A
C449   C457    1.538   .     S
C450   C455    1.421   .     A
C450   C452    1.416   .     A
C451   C456    1.417   .     A
C451   C454    1.410   .     A
C452   C1240   1.400   .     S
C453   C456    1.408   .     A
C453   H500    1.080   .     S
C453   C466    1.390   .     A
C454   C1241   1.400   1_554 S
C455   C464    1.412   .     A
C455   C1230   1.415   .     S
C456   C1229   1.415   1_554 S
C457   H482    1.108   .     S
C457   H483    1.110   .     S
C457   C458    1.533   .     S
C458   H481    1.108   .     S
C458   H480    1.111   .     S
C458   H506    1.111   .     S
C459   C460    1.531   .     S
C459   H487    1.109   .     S
C459   H488    1.108   .     S
C460   H484    1.109   .     S
C460   H486    1.111   .     S
C460   H485    1.111   .     S
C461   H493    1.106   .     S
C461   C462    1.529   .     S
C461   H494    1.110   .     S
C461   C275    1.518   1_655 S
C462   H491    1.108   .     S
C462   H492    1.110   .     S
C462   H489    1.111   .     S
C463   H499    1.112   .     S
C463   C465    1.525   .     S
C463   H498    1.108   .     S
C464   C467    1.393   .     A
C464   H501    1.081   .     S
C465   H495    1.110   .     S
C465   H496    1.110   .     S
C465   H497    1.110   .     S
C466   F473    1.359   .     S
C466   C1226   1.400   1_554 S
C467   F474    1.359   .     S
C467   C1228   1.400   .     S
C468   F475    1.358   .     S
C469   F476    1.358   .     S
C469   C690    1.383   .     S
C470   H502    1.083   .     S
C470   C261    1.400   1_655 S
C470   C726    1.383   .     S
Cu471  O516    1.923   .     S
Cu471  N507    2.008   .     S
Cu471  O513    1.936   .     S
Cu471  O509    1.965   .     S
Cu471  O512    1.966   .     S
Cu472  O510    1.965   .     S
Cu472  O511    1.966   .     S
Cu472  O514    1.936   .     S
Cu472  O515    1.923   .     S
Cu472  N508    2.008   .     S
Cu472  Cu299   2.671   1_655 S
O510   C270    1.291   1_655 S
O514   C268    1.299   1_655 S
C517   O597    1.287   .     A
C517   C520    1.450   .     S
C517   O681    1.291   .     S
C518   H589    1.083   .     S
C518   C692    1.400   1_455 S
C519   C528    1.450   .     S
C519   C555    1.405   .     A
C519   C728    1.400   1_455 S
C520   C554    1.405   .     A
C520   C604    1.400   .     S
C521   H590    1.081   .     S
C521   C523    1.414   .     A
C521   N594    1.365   .     A
C522   H591    1.082   .     S
C522   N593    1.365   .     A
C522   C524    1.414   .     A
C523   N593    1.368   .     A
C523   F563    1.355   .     S
C524   N594    1.368   .     A
C524   F564    1.355   .     S
C525   O601    1.294   .     A
C525   C527    1.471   .     S
C525   O685    1.291   .     S
C526   O602    1.301   .     A
C526   C529    1.497   .     S
C526   O772    1.299   1_455 S
C527   C534    1.414   .     A
C527   C532    1.420   .     A
C528   O598    1.288   .     A
C528   O768    1.291   1_455 S
C529   C535    1.422   .     A
C529   C533    1.431   .     A
C530   H565    1.084   .     S
C530   C532    1.399   .     A
C530   C538    1.399   .     A
C531   H576    1.084   .     S
C531   C540    1.398   .     A
C531   C533    1.404   .     A
C532   C635    1.517   .     S
C533   C719    1.518   1_455 S
C534   C545    1.529   .     S
C534   C536    1.417   .     A
C535   C537    1.414   .     A
C535   C543    1.538   .     S
C536   C541    1.421   .     A
C536   C538    1.416   .     A
C537   C542    1.417   .     A
C537   C540    1.410   .     A
C538   C1326   1.400   .     S
C539   C542    1.408   .     A
C539   H586    1.080   .     S
C539   C552    1.390   .     A
C540   C1327   1.400   1_554 S
C541   C550    1.412   .     A
C541   C1316   1.415   .     S
C542   C1315   1.415   1_554 S
C543   H568    1.108   .     S
C543   H569    1.110   .     S
C543   C544    1.533   .     S
C544   H567    1.108   .     S
C544   H566    1.111   .     S
C544   H592    1.111   .     S
C545   C546    1.531   .     S
C545   H573    1.109   .     S
C545   H574    1.108   .     S
C546   H570    1.109   .     S
C546   H572    1.111   .     S
C546   H571    1.111   .     S
C547   H579    1.106   .     S
C547   C548    1.529   .     S
C547   H580    1.110   .     S
C547   C619    1.518   .     S
C548   H577    1.108   .     S
C548   H578    1.110   .     S
C548   H575    1.111   .     S
C549   H585    1.112   .     S
C549   C551    1.525   .     S
C549   H584    1.108   .     S
C549   C704    1.517   1_455 S
C550   C553    1.393   .     A
C550   H587    1.081   .     S
C551   H581    1.110   .     S
C551   H582    1.110   .     S
C551   H583    1.110   .     S
C552   F559    1.359   .     S
C552   C1312   1.400   1_554 S
C553   F560    1.359   .     S
C553   C1314   1.400   .     S
C554   F561    1.358   .     S
C555   F562    1.358   .     S
C555   C2      1.383   1_565 S
C556   H588    1.083   .     S
C556   C605    1.400   .     S
C556   C38     1.383   1_565 S
Cu557  O602    1.923   .     S
Cu557  N593    2.008   .     S
Cu557  O599    1.936   .     S
Cu557  O595    1.965   .     S
Cu557  O598    1.966   .     S
Cu557  Cu730   2.671   1_455 S
Cu558  O596    1.965   .     S
Cu558  O597    1.966   .     S
Cu558  O600    1.936   .     S
Cu558  O601    1.923   .     S
Cu558  N594    2.008   .     S
Cu558  Cu643   2.671   .     S
O595   C689    1.291   1_455 S
O596   C614    1.291   .     S
O599   C697    1.291   1_455 S
O600   C612    1.299   .     S
C603   O683    1.287   .     A
C603   C606    1.450   .     S
C603   O767    1.291   .     S
C604   H675    1.083   .     S
C605   C614    1.450   .     S
C605   C641    1.405   .     A
C606   C640    1.405   .     A
C606   C690    1.400   .     S
C607   H676    1.081   .     S
C607   C609    1.414   .     A
C607   N680    1.365   .     A
C608   H677    1.082   .     S
C608   N679    1.365   .     A
C608   C610    1.414   .     A
C609   N679    1.368   .     A
C609   F649    1.355   .     S
C610   N680    1.368   .     A
C610   F650    1.355   .     S
C611   O687    1.294   .     A
C611   C613    1.471   .     S
C611   O771    1.291   .     S
C612   O688    1.301   .     A
C612   C615    1.497   .     S
C613   C620    1.414   .     A
C613   C618    1.420   .     A
C614   O684    1.288   .     A
C615   C621    1.422   .     A
C615   C619    1.431   .     A
C616   H651    1.084   .     S
C616   C618    1.399   .     A
C616   C624    1.399   .     A
C617   H662    1.084   .     S
C617   C626    1.398   .     A
C617   C619    1.404   .     A
C618   C721    1.517   .     S
C620   C631    1.529   .     S
C620   C622    1.417   .     A
C621   C623    1.414   .     A
C621   C629    1.538   .     S
C622   C627    1.421   .     A
C622   C624    1.416   .     A
C623   C628    1.417   .     A
C623   C626    1.410   .     A
C624   C1412   1.400   .     S
C625   C628    1.408   .     A
C625   H672    1.080   .     S
C625   C638    1.390   .     A
C626   C1413   1.400   1_554 S
C627   C636    1.412   .     A
C627   C1402   1.415   .     S
C628   C1401   1.415   1_554 S
C629   H654    1.108   .     S
C629   H655    1.110   .     S
C629   C630    1.533   .     S
C630   H653    1.108   .     S
C630   H652    1.111   .     S
C630   H678    1.111   .     S
C631   C632    1.531   .     S
C631   H659    1.109   .     S
C631   H660    1.108   .     S
C632   H656    1.109   .     S
C632   H658    1.111   .     S
C632   H657    1.111   .     S
C633   H665    1.106   .     S
C633   C634    1.529   .     S
C633   H666    1.110   .     S
C633   C705    1.518   .     S
C634   H663    1.108   .     S
C634   H664    1.110   .     S
C634   H661    1.111   .     S
C635   H671    1.112   .     S
C635   C637    1.525   .     S
C635   H670    1.108   .     S
C636   C639    1.393   .     A
C636   H673    1.081   .     S
C637   H667    1.110   .     S
C637   H668    1.110   .     S
C637   H669    1.110   .     S
C638   F645    1.359   .     S
C638   C1398   1.400   1_554 S
C639   F646    1.359   .     S
C639   C1400   1.400   .     S
C640   F647    1.358   .     S
C641   F648    1.358   .     S
C641   C88     1.383   1_565 S
C642   H674    1.083   .     S
C642   C691    1.400   .     S
C642   C124    1.383   1_565 S
Cu643  O688    1.923   .     S
Cu643  N679    2.008   .     S
Cu643  O685    1.936   .     S
Cu643  O681    1.965   .     S
Cu643  O684    1.966   .     S
Cu644  O682    1.965   .     S
Cu644  O683    1.966   .     S
Cu644  O686    1.936   .     S
Cu644  O687    1.923   .     S
Cu644  N680    2.008   .     S
Cu644  Cu729   2.671   .     S
O682   C700    1.291   .     S
O686   C698    1.299   .     S
C689   O769    1.287   .     A
C689   C692    1.450   .     S
C689   O595    1.291   1_655 S
C690   H761    1.083   .     S
C691   C700    1.450   .     S
C691   C727    1.405   .     A
C692   C726    1.405   .     A
C692   C518    1.400   1_655 S
C693   H762    1.081   .     S
C693   C695    1.414   .     A
C693   N766    1.365   .     A
C694   H763    1.082   .     S
C694   N765    1.365   .     A
C694   C696    1.414   .     A
C695   N765    1.368   .     A
C695   F735    1.355   .     S
C696   N766    1.368   .     A
C696   F736    1.355   .     S
C697   O773    1.294   .     A
C697   C699    1.471   .     S
C697   O599    1.291   1_655 S
C698   O774    1.301   .     A
C698   C701    1.497   .     S
C699   C706    1.414   .     A
C699   C704    1.420   .     A
C700   O770    1.288   .     A
C701   C707    1.422   .     A
C701   C705    1.431   .     A
C702   H737    1.084   .     S
C702   C704    1.399   .     A
C702   C710    1.399   .     A
C703   H748    1.084   .     S
C703   C712    1.398   .     A
C703   C705    1.404   .     A
C704   C549    1.517   1_655 S
C706   C717    1.529   .     S
C706   C708    1.417   .     A
C707   C709    1.414   .     A
C707   C715    1.538   .     S
C708   C713    1.421   .     A
C708   C710    1.416   .     A
C709   C714    1.417   .     A
C709   C712    1.410   .     A
C710   C1498   1.400   .     S
C711   C714    1.408   .     A
C711   H758    1.080   .     S
C711   C724    1.390   .     A
C712   C1499   1.400   1_554 S
C713   C722    1.412   .     A
C713   C1488   1.415   .     S
C714   C1487   1.415   1_554 S
C715   H740    1.108   .     S
C715   H741    1.110   .     S
C715   C716    1.533   .     S
C716   H739    1.108   .     S
C716   H738    1.111   .     S
C716   H764    1.111   .     S
C717   C718    1.531   .     S
C717   H745    1.109   .     S
C717   H746    1.108   .     S
C718   H742    1.109   .     S
C718   H744    1.111   .     S
C718   H743    1.111   .     S
C719   H751    1.106   .     S
C719   C720    1.529   .     S
C719   H752    1.110   .     S
C719   C533    1.518   1_655 S
C720   H749    1.108   .     S
C720   H750    1.110   .     S
C720   H747    1.111   .     S
C721   H757    1.112   .     S
C721   C723    1.525   .     S
C721   H756    1.108   .     S
C722   C725    1.393   .     A
C722   H759    1.081   .     S
C723   H753    1.110   .     S
C723   H754    1.110   .     S
C723   H755    1.110   .     S
C724   F731    1.359   .     S
C724   C1484   1.400   1_554 S
C725   F732    1.359   .     S
C725   C1486   1.400   .     S
C726   F733    1.358   .     S
C727   F734    1.358   .     S
C727   C174    1.383   1_565 S
C728   H760    1.083   .     S
C728   C519    1.400   1_655 S
C728   C210    1.383   1_565 S
Cu729  O774    1.923   .     S
Cu729  N765    2.008   .     S
Cu729  O771    1.936   .     S
Cu729  O767    1.965   .     S
Cu729  O770    1.966   .     S
Cu730  O768    1.965   .     S
Cu730  O769    1.966   .     S
Cu730  O772    1.936   .     S
Cu730  O773    1.923   .     S
Cu730  N766    2.008   .     S
Cu730  Cu557   2.671   1_655 S
O768   C528    1.291   1_655 S
O772   C526    1.299   1_655 S
C775   O855    1.287   .     A
C775   C778    1.450   .     S
C775   O939    1.291   .     S
C776   H847    1.083   .     S
C776   C950    1.400   1_455 S
C776   C1329   1.383   1_545 S
C777   C786    1.450   .     S
C777   C813    1.405   .     A
C777   C986    1.400   1_455 S
C778   C812    1.405   .     A
C778   C862    1.400   .     S
C779   H848    1.081   .     S
C779   C781    1.414   .     A
C779   N852    1.365   .     A
C780   H849    1.082   .     S
C780   N851    1.365   .     A
C780   C782    1.414   .     A
C781   N851    1.368   .     A
C781   F821    1.355   .     S
C782   N852    1.368   .     A
C782   F822    1.355   .     S
C783   O859    1.294   .     A
C783   C785    1.471   .     S
C783   O943    1.291   .     S
C784   O860    1.301   .     A
C784   C787    1.497   .     S
C784   O1030   1.299   1_455 S
C785   C792    1.414   .     A
C785   C790    1.420   .     A
C786   O856    1.288   .     A
C786   O1026   1.291   1_455 S
C787   C793    1.422   .     A
C787   C791    1.431   .     A
C788   H823    1.084   .     S
C788   C790    1.399   .     A
C788   C796    1.399   .     A
C789   H834    1.084   .     S
C789   C798    1.398   .     A
C789   C791    1.404   .     A
C790   C893    1.517   .     S
C791   C977    1.518   1_455 S
C792   C803    1.529   .     S
C792   C794    1.417   .     A
C793   C795    1.414   .     A
C793   C801    1.538   .     S
C794   C799    1.421   .     A
C794   C796    1.416   .     A
C795   C800    1.417   .     A
C795   C798    1.410   .     A
C796   C36     1.400   1_556 S
C797   C800    1.408   .     A
C797   H844    1.080   .     S
C797   C810    1.390   .     A
C799   C808    1.412   .     A
C799   C26     1.415   1_556 S
C801   H826    1.108   .     S
C801   H827    1.110   .     S
C801   C802    1.533   .     S
C802   H825    1.108   .     S
C802   H824    1.111   .     S
C802   H850    1.111   .     S
C803   C804    1.531   .     S
C803   H831    1.109   .     S
C803   H832    1.108   .     S
C804   H828    1.109   .     S
C804   H830    1.111   .     S
C804   H829    1.111   .     S
C805   H837    1.106   .     S
C805   C806    1.529   .     S
C805   H838    1.110   .     S
C805   C877    1.518   .     S
C806   H835    1.108   .     S
C806   H836    1.110   .     S
C806   H833    1.111   .     S
C807   H843    1.112   .     S
C807   C809    1.525   .     S
C807   H842    1.108   .     S
C807   C962    1.517   1_455 S
C808   C811    1.393   .     A
C808   H845    1.081   .     S
C809   H839    1.110   .     S
C809   H840    1.110   .     S
C809   H841    1.110   .     S
C810   F817    1.359   .     S
C811   F818    1.359   .     S
C811   C24     1.400   1_556 S
C812   F819    1.358   .     S
C812   C1330   1.383   1_545 S
C813   F820    1.358   .     S
C813   C1034   1.383   .     S
C814   H846    1.083   .     S
C814   C863    1.400   .     S
C814   C1070   1.383   .     S
Cu815  O860    1.923   .     S
Cu815  N851    2.008   .     S
Cu815  O857    1.936   .     S
Cu815  O853    1.965   .     S
Cu815  O856    1.966   .     S
Cu815  Cu988   2.671   1_455 S
Cu816  O854    1.965   .     S
Cu816  O855    1.966   .     S
Cu816  O858    1.936   .     S
Cu816  O859    1.923   .     S
Cu816  N852    2.008   .     S
Cu816  Cu901   2.671   .     S
O853   C947    1.291   1_455 S
O854   C872    1.291   .     S
O857   C955    1.291   1_455 S
O858   C870    1.299   .     S
C861   O941    1.287   .     A
C861   C864    1.450   .     S
C861   O1025   1.291   .     S
C862   H933    1.083   .     S
C862   C1415   1.383   1_545 S
C863   C872    1.450   .     S
C863   C899    1.405   .     A
C864   C898    1.405   .     A
C864   C948    1.400   .     S
C865   H934    1.081   .     S
C865   C867    1.414   .     A
C865   N938    1.365   .     A
C866   H935    1.082   .     S
C866   N937    1.365   .     A
C866   C868    1.414   .     A
C867   N937    1.368   .     A
C867   F907    1.355   .     S
C868   N938    1.368   .     A
C868   F908    1.355   .     S
C869   O945    1.294   .     A
C869   C871    1.471   .     S
C869   O1029   1.291   .     S
C870   O946    1.301   .     A
C870   C873    1.497   .     S
C871   C878    1.414   .     A
C871   C876    1.420   .     A
C872   O942    1.288   .     A
C873   C879    1.422   .     A
C873   C877    1.431   .     A
C874   H909    1.084   .     S
C874   C876    1.399   .     A
C874   C882    1.399   .     A
C875   H920    1.084   .     S
C875   C884    1.398   .     A
C875   C877    1.404   .     A
C876   C979    1.517   .     S
C878   C889    1.529   .     S
C878   C880    1.417   .     A
C879   C881    1.414   .     A
C879   C887    1.538   .     S
C880   C885    1.421   .     A
C880   C882    1.416   .     A
C881   C886    1.417   .     A
C881   C884    1.410   .     A
C882   C122    1.400   1_556 S
C883   C886    1.408   .     A
C883   H930    1.080   .     S
C883   C896    1.390   .     A
C885   C894    1.412   .     A
C885   C112    1.415   1_556 S
C887   H912    1.108   .     S
C887   H913    1.110   .     S
C887   C888    1.533   .     S
C888   H911    1.108   .     S
C888   H910    1.111   .     S
C888   H936    1.111   .     S
C889   C890    1.531   .     S
C889   H917    1.109   .     S
C889   H918    1.108   .     S
C890   H914    1.109   .     S
C890   H916    1.111   .     S
C890   H915    1.111   .     S
C891   H923    1.106   .     S
C891   C892    1.529   .     S
C891   H924    1.110   .     S
C891   C963    1.518   .     S
C892   H921    1.108   .     S
C892   H922    1.110   .     S
C892   H919    1.111   .     S
C893   H929    1.112   .     S
C893   C895    1.525   .     S
C893   H928    1.108   .     S
C894   C897    1.393   .     A
C894   H931    1.081   .     S
C895   H925    1.110   .     S
C895   H926    1.110   .     S
C895   H927    1.110   .     S
C896   F903    1.359   .     S
C897   F904    1.359   .     S
C897   C110    1.400   1_556 S
C898   F905    1.358   .     S
C898   C1416   1.383   1_545 S
C899   F906    1.358   .     S
C899   C1120   1.383   .     S
C900   H932    1.083   .     S
C900   C949    1.400   .     S
C900   C1156   1.383   .     S
Cu901  O946    1.923   .     S
Cu901  N937    2.008   .     S
Cu901  O943    1.936   .     S
Cu901  O939    1.965   .     S
Cu901  O942    1.966   .     S
Cu902  O940    1.965   .     S
Cu902  O941    1.966   .     S
Cu902  O944    1.936   .     S
Cu902  O945    1.923   .     S
Cu902  N938    2.008   .     S
Cu902  Cu987   2.671   .     S
O940   C958    1.291   .     S
O944   C956    1.299   .     S
C947   O1027   1.287   .     A
C947   C950    1.450   .     S
C947   O853    1.291   1_655 S
C948   H1019   1.083   .     S
C948   C1501   1.383   1_545 S
C949   C958    1.450   .     S
C949   C985    1.405   .     A
C950   C984    1.405   .     A
C950   C776    1.400   1_655 S
C951   H1020   1.081   .     S
C951   C953    1.414   .     A
C951   N1024   1.365   .     A
C952   H1021   1.082   .     S
C952   N1023   1.365   .     A
C952   C954    1.414   .     A
C953   N1023   1.368   .     A
C953   F993    1.355   .     S
C954   N1024   1.368   .     A
C954   F994    1.355   .     S
C955   O1031   1.294   .     A
C955   C957    1.471   .     S
C955   O857    1.291   1_655 S
C956   O1032   1.301   .     A
C956   C959    1.497   .     S
C957   C964    1.414   .     A
C957   C962    1.420   .     A
C958   O1028   1.288   .     A
C959   C965    1.422   .     A
C959   C963    1.431   .     A
C960   H995    1.084   .     S
C960   C962    1.399   .     A
C960   C968    1.399   .     A
C961   H1006   1.084   .     S
C961   C970    1.398   .     A
C961   C963    1.404   .     A
C962   C807    1.517   1_655 S
C964   C975    1.529   .     S
C964   C966    1.417   .     A
C965   C967    1.414   .     A
C965   C973    1.538   .     S
C966   C971    1.421   .     A
C966   C968    1.416   .     A
C967   C972    1.417   .     A
C967   C970    1.410   .     A
C968   C208    1.400   1_556 S
C969   C972    1.408   .     A
C969   H1016   1.080   .     S
C969   C982    1.390   .     A
C971   C980    1.412   .     A
C971   C198    1.415   1_556 S
C973   H998    1.108   .     S
C973   H999    1.110   .     S
C973   C974    1.533   .     S
C974   H997    1.108   .     S
C974   H996    1.111   .     S
C974   H1022   1.111   .     S
C975   C976    1.531   .     S
C975   H1003   1.109   .     S
C975   H1004   1.108   .     S
C976   H1000   1.109   .     S
C976   H1002   1.111   .     S
C976   H1001   1.111   .     S
C977   H1009   1.106   .     S
C977   C978    1.529   .     S
C977   H1010   1.110   .     S
C977   C791    1.518   1_655 S
C978   H1007   1.108   .     S
C978   H1008   1.110   .     S
C978   H1005   1.111   .     S
C979   H1015   1.112   .     S
C979   C981    1.525   .     S
C979   H1014   1.108   .     S
C980   C983    1.393   .     A
C980   H1017   1.081   .     S
C981   H1011   1.110   .     S
C981   H1012   1.110   .     S
C981   H1013   1.110   .     S
C982   F989    1.359   .     S
C983   F990    1.359   .     S
C983   C196    1.400   1_556 S
C984   F991    1.358   .     S
C984   C1502   1.383   1_545 S
C985   F992    1.358   .     S
C985   C1206   1.383   .     S
C986   H1018   1.083   .     S
C986   C777    1.400   1_655 S
C986   C1242   1.383   .     S
Cu987  O1032   1.923   .     S
Cu987  N1023   2.008   .     S
Cu987  O1029   1.936   .     S
Cu987  O1025   1.965   .     S
Cu987  O1028   1.966   .     S
Cu988  O1026   1.965   .     S
Cu988  O1027   1.966   .     S
Cu988  O1030   1.936   .     S
Cu988  O1031   1.923   .     S
Cu988  N1024   2.008   .     S
Cu988  Cu815   2.671   1_655 S
O1026  C786    1.291   1_655 S
O1030  C784    1.299   1_655 S
C1033  O1113   1.287   .     A
C1033  C1036   1.450   .     S
C1033  O1197   1.291   .     S
C1034  H1105   1.083   .     S
C1034  C1208   1.400   1_455 S
C1035  C1044   1.450   .     S
C1035  C1071   1.405   .     A
C1035  C1244   1.400   1_455 S
C1036  C1070   1.405   .     A
C1036  C1120   1.400   .     S
C1037  H1106   1.081   .     S
C1037  C1039   1.414   .     A
C1037  N1110   1.365   .     A
C1038  H1107   1.082   .     S
C1038  N1109   1.365   .     A
C1038  C1040   1.414   .     A
C1039  N1109   1.368   .     A
C1039  F1079   1.355   .     S
C1040  N1110   1.368   .     A
C1040  F1080   1.355   .     S
C1041  O1117   1.294   .     A
C1041  C1043   1.471   .     S
C1041  O1201   1.291   .     S
C1042  O1118   1.301   .     A
C1042  C1045   1.497   .     S
C1042  O1288   1.299   1_455 S
C1043  C1050   1.414   .     A
C1043  C1048   1.420   .     A
C1044  O1114   1.288   .     A
C1044  O1284   1.291   1_455 S
C1045  C1051   1.422   .     A
C1045  C1049   1.431   .     A
C1046  H1081   1.084   .     S
C1046  C1048   1.399   .     A
C1046  C1054   1.399   .     A
C1047  H1092   1.084   .     S
C1047  C1056   1.398   .     A
C1047  C1049   1.404   .     A
C1048  C1151   1.517   .     S
C1049  C1235   1.518   1_455 S
C1050  C1061   1.529   .     S
C1050  C1052   1.417   .     A
C1051  C1053   1.414   .     A
C1051  C1059   1.538   .     S
C1052  C1057   1.421   .     A
C1052  C1054   1.416   .     A
C1053  C1058   1.417   .     A
C1053  C1056   1.410   .     A
C1054  C294    1.400   1_556 S
C1055  C1058   1.408   .     A
C1055  H1102   1.080   .     S
C1055  C1068   1.390   .     A
C1057  C1066   1.412   .     A
C1057  C284    1.415   1_556 S
C1059  H1084   1.108   .     S
C1059  H1085   1.110   .     S
C1059  C1060   1.533   .     S
C1060  H1083   1.108   .     S
C1060  H1082   1.111   .     S
C1060  H1108   1.111   .     S
C1061  C1062   1.531   .     S
C1061  H1089   1.109   .     S
C1061  H1090   1.108   .     S
C1062  H1086   1.109   .     S
C1062  H1088   1.111   .     S
C1062  H1087   1.111   .     S
C1063  H1095   1.106   .     S
C1063  C1064   1.529   .     S
C1063  H1096   1.110   .     S
C1063  C1135   1.518   .     S
C1064  H1093   1.108   .     S
C1064  H1094   1.110   .     S
C1064  H1091   1.111   .     S
C1065  H1101   1.112   .     S
C1065  C1067   1.525   .     S
C1065  H1100   1.108   .     S
C1065  C1220   1.517   1_455 S
C1066  C1069   1.393   .     A
C1066  H1103   1.081   .     S
C1067  H1097   1.110   .     S
C1067  H1098   1.110   .     S
C1067  H1099   1.110   .     S
C1068  F1075   1.359   .     S
C1069  F1076   1.359   .     S
C1069  C282    1.400   1_556 S
C1070  F1077   1.358   .     S
C1071  F1078   1.358   .     S
C1071  C1292   1.383   .     S
C1072  H1104   1.083   .     S
C1072  C1121   1.400   .     S
C1072  C1328   1.383   .     S
Cu1073 O1118   1.923   .     S
Cu1073 N1109   2.008   .     S
Cu1073 O1115   1.936   .     S
Cu1073 O1111   1.965   .     S
Cu1073 O1114   1.966   .     S
Cu1073 Cu1246  2.671   1_455 S
Cu1074 O1112   1.965   .     S
Cu1074 O1113   1.966   .     S
Cu1074 O1116   1.936   .     S
Cu1074 O1117   1.923   .     S
Cu1074 N1110   2.008   .     S
Cu1074 Cu1159  2.671   .     S
O1111  C1205   1.291   1_455 S
O1112  C1130   1.291   .     S
O1115  C1213   1.291   1_455 S
O1116  C1128   1.299   .     S
C1119  O1199   1.287   .     A
C1119  C1122   1.450   .     S
C1119  O1283   1.291   .     S
C1120  H1191   1.083   .     S
C1121  C1130   1.450   .     S
C1121  C1157   1.405   .     A
C1122  C1156   1.405   .     A
C1122  C1206   1.400   .     S
C1123  H1192   1.081   .     S
C1123  C1125   1.414   .     A
C1123  N1196   1.365   .     A
C1124  H1193   1.082   .     S
C1124  N1195   1.365   .     A
C1124  C1126   1.414   .     A
C1125  N1195   1.368   .     A
C1125  F1165   1.355   .     S
C1126  N1196   1.368   .     A
C1126  F1166   1.355   .     S
C1127  O1203   1.294   .     A
C1127  C1129   1.471   .     S
C1127  O1287   1.291   .     S
C1128  O1204   1.301   .     A
C1128  C1131   1.497   .     S
C1129  C1136   1.414   .     A
C1129  C1134   1.420   .     A
C1130  O1200   1.288   .     A
C1131  C1137   1.422   .     A
C1131  C1135   1.431   .     A
C1132  H1167   1.084   .     S
C1132  C1134   1.399   .     A
C1132  C1140   1.399   .     A
C1133  H1178   1.084   .     S
C1133  C1142   1.398   .     A
C1133  C1135   1.404   .     A
C1134  C1237   1.517   .     S
C1136  C1147   1.529   .     S
C1136  C1138   1.417   .     A
C1137  C1139   1.414   .     A
C1137  C1145   1.538   .     S
C1138  C1143   1.421   .     A
C1138  C1140   1.416   .     A
C1139  C1144   1.417   .     A
C1139  C1142   1.410   .     A
C1140  C380    1.400   1_556 S
C1141  C1144   1.408   .     A
C1141  H1188   1.080   .     S
C1141  C1154   1.390   .     A
C1143  C1152   1.412   .     A
C1143  C370    1.415   1_556 S
C1145  H1170   1.108   .     S
C1145  H1171   1.110   .     S
C1145  C1146   1.533   .     S
C1146  H1169   1.108   .     S
C1146  H1168   1.111   .     S
C1146  H1194   1.111   .     S
C1147  C1148   1.531   .     S
C1147  H1175   1.109   .     S
C1147  H1176   1.108   .     S
C1148  H1172   1.109   .     S
C1148  H1174   1.111   .     S
C1148  H1173   1.111   .     S
C1149  H1181   1.106   .     S
C1149  C1150   1.529   .     S
C1149  H1182   1.110   .     S
C1149  C1221   1.518   .     S
C1150  H1179   1.108   .     S
C1150  H1180   1.110   .     S
C1150  H1177   1.111   .     S
C1151  H1187   1.112   .     S
C1151  C1153   1.525   .     S
C1151  H1186   1.108   .     S
C1152  C1155   1.393   .     A
C1152  H1189   1.081   .     S
C1153  H1183   1.110   .     S
C1153  H1184   1.110   .     S
C1153  H1185   1.110   .     S
C1154  F1161   1.359   .     S
C1155  F1162   1.359   .     S
C1155  C368    1.400   1_556 S
C1156  F1163   1.358   .     S
C1157  F1164   1.358   .     S
C1157  C1378   1.383   .     S
C1158  H1190   1.083   .     S
C1158  C1207   1.400   .     S
C1158  C1414   1.383   .     S
Cu1159 O1204   1.923   .     S
Cu1159 N1195   2.008   .     S
Cu1159 O1201   1.936   .     S
Cu1159 O1197   1.965   .     S
Cu1159 O1200   1.966   .     S
Cu1160 O1198   1.965   .     S
Cu1160 O1199   1.966   .     S
Cu1160 O1202   1.936   .     S
Cu1160 O1203   1.923   .     S
Cu1160 N1196   2.008   .     S
Cu1160 Cu1245  2.671   .     S
O1198  C1216   1.291   .     S
O1202  C1214   1.299   .     S
C1205  O1285   1.287   .     A
C1205  C1208   1.450   .     S
C1205  O1111   1.291   1_655 S
C1206  H1277   1.083   .     S
C1207  C1216   1.450   .     S
C1207  C1243   1.405   .     A
C1208  C1242   1.405   .     A
C1208  C1034   1.400   1_655 S
C1209  H1278   1.081   .     S
C1209  C1211   1.414   .     A
C1209  N1282   1.365   .     A
C1210  H1279   1.082   .     S
C1210  N1281   1.365   .     A
C1210  C1212   1.414   .     A
C1211  N1281   1.368   .     A
C1211  F1251   1.355   .     S
C1212  N1282   1.368   .     A
C1212  F1252   1.355   .     S
C1213  O1289   1.294   .     A
C1213  C1215   1.471   .     S
C1213  O1115   1.291   1_655 S
C1214  O1290   1.301   .     A
C1214  C1217   1.497   .     S
C1215  C1222   1.414   .     A
C1215  C1220   1.420   .     A
C1216  O1286   1.288   .     A
C1217  C1223   1.422   .     A
C1217  C1221   1.431   .     A
C1218  H1253   1.084   .     S
C1218  C1220   1.399   .     A
C1218  C1226   1.399   .     A
C1219  H1264   1.084   .     S
C1219  C1228   1.398   .     A
C1219  C1221   1.404   .     A
C1220  C1065   1.517   1_655 S
C1222  C1233   1.529   .     S
C1222  C1224   1.417   .     A
C1223  C1225   1.414   .     A
C1223  C1231   1.538   .     S
C1224  C1229   1.421   .     A
C1224  C1226   1.416   .     A
C1225  C1230   1.417   .     A
C1225  C1228   1.410   .     A
C1226  C466    1.400   1_556 S
C1227  C1230   1.408   .     A
C1227  H1274   1.080   .     S
C1227  C1240   1.390   .     A
C1229  C1238   1.412   .     A
C1229  C456    1.415   1_556 S
C1231  H1256   1.108   .     S
C1231  H1257   1.110   .     S
C1231  C1232   1.533   .     S
C1232  H1255   1.108   .     S
C1232  H1254   1.111   .     S
C1232  H1280   1.111   .     S
C1233  C1234   1.531   .     S
C1233  H1261   1.109   .     S
C1233  H1262   1.108   .     S
C1234  H1258   1.109   .     S
C1234  H1260   1.111   .     S
C1234  H1259   1.111   .     S
C1235  H1267   1.106   .     S
C1235  C1236   1.529   .     S
C1235  H1268   1.110   .     S
C1235  C1049   1.518   1_655 S
C1236  H1265   1.108   .     S
C1236  H1266   1.110   .     S
C1236  H1263   1.111   .     S
C1237  H1273   1.112   .     S
C1237  C1239   1.525   .     S
C1237  H1272   1.108   .     S
C1238  C1241   1.393   .     A
C1238  H1275   1.081   .     S
C1239  H1269   1.110   .     S
C1239  H1270   1.110   .     S
C1239  H1271   1.110   .     S
C1240  F1247   1.359   .     S
C1241  F1248   1.359   .     S
C1241  C454    1.400   1_556 S
C1242  F1249   1.358   .     S
C1243  F1250   1.358   .     S
C1243  C1464   1.383   .     S
C1244  H1276   1.083   .     S
C1244  C1035   1.400   1_655 S
C1244  C1500   1.383   .     S
Cu1245 O1290   1.923   .     S
Cu1245 N1281   2.008   .     S
Cu1245 O1287   1.936   .     S
Cu1245 O1283   1.965   .     S
Cu1245 O1286   1.966   .     S
Cu1246 O1284   1.965   .     S
Cu1246 O1285   1.966   .     S
Cu1246 O1288   1.936   .     S
Cu1246 O1289   1.923   .     S
Cu1246 N1282   2.008   .     S
Cu1246 Cu1073  2.671   1_655 S
O1284  C1044   1.291   1_655 S
O1288  C1042   1.299   1_655 S
C1291  O1371   1.287   .     A
C1291  C1294   1.450   .     S
C1291  O1455   1.291   .     S
C1292  H1363   1.083   .     S
C1292  C1466   1.400   1_455 S
C1293  C1302   1.450   .     S
C1293  C1329   1.405   .     A
C1293  C1502   1.400   1_455 S
C1294  C1328   1.405   .     A
C1294  C1378   1.400   .     S
C1295  H1364   1.081   .     S
C1295  C1297   1.414   .     A
C1295  N1368   1.365   .     A
C1296  H1365   1.082   .     S
C1296  N1367   1.365   .     A
C1296  C1298   1.414   .     A
C1297  N1367   1.368   .     A
C1297  F1337   1.355   .     S
C1298  N1368   1.368   .     A
C1298  F1338   1.355   .     S
C1299  O1375   1.294   .     A
C1299  C1301   1.471   .     S
C1299  O1459   1.291   .     S
C1300  O1376   1.301   .     A
C1300  C1303   1.497   .     S
C1300  O1546   1.299   1_455 S
C1301  C1308   1.414   .     A
C1301  C1306   1.420   .     A
C1302  O1372   1.288   .     A
C1302  O1542   1.291   1_455 S
C1303  C1309   1.422   .     A
C1303  C1307   1.431   .     A
C1304  H1339   1.084   .     S
C1304  C1306   1.399   .     A
C1304  C1312   1.399   .     A
C1305  H1350   1.084   .     S
C1305  C1314   1.398   .     A
C1305  C1307   1.404   .     A
C1306  C1409   1.517   .     S
C1307  C1493   1.518   1_455 S
C1308  C1319   1.529   .     S
C1308  C1310   1.417   .     A
C1309  C1311   1.414   .     A
C1309  C1317   1.538   .     S
C1310  C1315   1.421   .     A
C1310  C1312   1.416   .     A
C1311  C1316   1.417   .     A
C1311  C1314   1.410   .     A
C1312  C552    1.400   1_556 S
C1313  C1316   1.408   .     A
C1313  H1360   1.080   .     S
C1313  C1326   1.390   .     A
C1315  C1324   1.412   .     A
C1315  C542    1.415   1_556 S
C1317  H1342   1.108   .     S
C1317  H1343   1.110   .     S
C1317  C1318   1.533   .     S
C1318  H1341   1.108   .     S
C1318  H1340   1.111   .     S
C1318  H1366   1.111   .     S
C1319  C1320   1.531   .     S
C1319  H1347   1.109   .     S
C1319  H1348   1.108   .     S
C1320  H1344   1.109   .     S
C1320  H1346   1.111   .     S
C1320  H1345   1.111   .     S
C1321  H1353   1.106   .     S
C1321  C1322   1.529   .     S
C1321  H1354   1.110   .     S
C1321  C1393   1.518   .     S
C1322  H1351   1.108   .     S
C1322  H1352   1.110   .     S
C1322  H1349   1.111   .     S
C1323  H1359   1.112   .     S
C1323  C1325   1.525   .     S
C1323  H1358   1.108   .     S
C1323  C1478   1.517   1_455 S
C1324  C1327   1.393   .     A
C1324  H1361   1.081   .     S
C1325  H1355   1.110   .     S
C1325  H1356   1.110   .     S
C1325  H1357   1.110   .     S
C1326  F1333   1.359   .     S
C1327  F1334   1.359   .     S
C1327  C540    1.400   1_556 S
C1328  F1335   1.358   .     S
C1329  F1336   1.358   .     S
C1329  C776    1.383   1_565 S
C1330  H1362   1.083   .     S
C1330  C1379   1.400   .     S
C1330  C812    1.383   1_565 S
Cu1331 O1376   1.923   .     S
Cu1331 N1367   2.008   .     S
Cu1331 O1373   1.936   .     S
Cu1331 O1369   1.965   .     S
Cu1331 O1372   1.966   .     S
Cu1331 Cu1504  2.671   1_455 S
Cu1332 O1370   1.965   .     S
Cu1332 O1371   1.966   .     S
Cu1332 O1374   1.936   .     S
Cu1332 O1375   1.923   .     S
Cu1332 N1368   2.008   .     S
Cu1332 Cu1417  2.671   .     S
O1369  C1463   1.291   1_455 S
O1370  C1388   1.291   .     S
O1373  C1471   1.291   1_455 S
O1374  C1386   1.299   .     S
C1377  O1457   1.287   .     A
C1377  C1380   1.450   .     S
C1377  O1541   1.291   .     S
C1378  H1449   1.083   .     S
C1379  C1388   1.450   .     S
C1379  C1415   1.405   .     A
C1380  C1414   1.405   .     A
C1380  C1464   1.400   .     S
C1381  H1450   1.081   .     S
C1381  C1383   1.414   .     A
C1381  N1454   1.365   .     A
C1382  H1451   1.082   .     S
C1382  N1453   1.365   .     A
C1382  C1384   1.414   .     A
C1383  N1453   1.368   .     A
C1383  F1423   1.355   .     S
C1384  N1454   1.368   .     A
C1384  F1424   1.355   .     S
C1385  O1461   1.294   .     A
C1385  C1387   1.471   .     S
C1385  O1545   1.291   .     S
C1386  O1462   1.301   .     A
C1386  C1389   1.497   .     S
C1387  C1394   1.414   .     A
C1387  C1392   1.420   .     A
C1388  O1458   1.288   .     A
C1389  C1395   1.422   .     A
C1389  C1393   1.431   .     A
C1390  H1425   1.084   .     S
C1390  C1392   1.399   .     A
C1390  C1398   1.399   .     A
C1391  H1436   1.084   .     S
C1391  C1400   1.398   .     A
C1391  C1393   1.404   .     A
C1392  C1495   1.517   .     S
C1394  C1405   1.529   .     S
C1394  C1396   1.417   .     A
C1395  C1397   1.414   .     A
C1395  C1403   1.538   .     S
C1396  C1401   1.421   .     A
C1396  C1398   1.416   .     A
C1397  C1402   1.417   .     A
C1397  C1400   1.410   .     A
C1398  C638    1.400   1_556 S
C1399  C1402   1.408   .     A
C1399  H1446   1.080   .     S
C1399  C1412   1.390   .     A
C1401  C1410   1.412   .     A
C1401  C628    1.415   1_556 S
C1403  H1428   1.108   .     S
C1403  H1429   1.110   .     S
C1403  C1404   1.533   .     S
C1404  H1427   1.108   .     S
C1404  H1426   1.111   .     S
C1404  H1452   1.111   .     S
C1405  C1406   1.531   .     S
C1405  H1433   1.109   .     S
C1405  H1434   1.108   .     S
C1406  H1430   1.109   .     S
C1406  H1432   1.111   .     S
C1406  H1431   1.111   .     S
C1407  H1439   1.106   .     S
C1407  C1408   1.529   .     S
C1407  H1440   1.110   .     S
C1407  C1479   1.518   .     S
C1408  H1437   1.108   .     S
C1408  H1438   1.110   .     S
C1408  H1435   1.111   .     S
C1409  H1445   1.112   .     S
C1409  C1411   1.525   .     S
C1409  H1444   1.108   .     S
C1410  C1413   1.393   .     A
C1410  H1447   1.081   .     S
C1411  H1441   1.110   .     S
C1411  H1442   1.110   .     S
C1411  H1443   1.110   .     S
C1412  F1419   1.359   .     S
C1413  F1420   1.359   .     S
C1413  C626    1.400   1_556 S
C1414  F1421   1.358   .     S
C1415  F1422   1.358   .     S
C1415  C862    1.383   1_565 S
C1416  H1448   1.083   .     S
C1416  C1465   1.400   .     S
C1416  C898    1.383   1_565 S
Cu1417 O1462   1.923   .     S
Cu1417 N1453   2.008   .     S
Cu1417 O1459   1.936   .     S
Cu1417 O1455   1.965   .     S
Cu1417 O1458   1.966   .     S
Cu1418 O1456   1.965   .     S
Cu1418 O1457   1.966   .     S
Cu1418 O1460   1.936   .     S
Cu1418 O1461   1.923   .     S
Cu1418 N1454   2.008   .     S
Cu1418 Cu1503  2.671   .     S
O1456  C1474   1.291   .     S
O1460  C1472   1.299   .     S
C1463  O1543   1.287   .     A
C1463  C1466   1.450   .     S
C1463  O1369   1.291   1_655 S
C1464  H1535   1.083   .     S
C1465  C1474   1.450   .     S
C1465  C1501   1.405   .     A
C1466  C1500   1.405   .     A
C1466  C1292   1.400   1_655 S
C1467  H1536   1.081   .     S
C1467  C1469   1.414   .     A
C1467  N1540   1.365   .     A
C1468  H1537   1.082   .     S
C1468  N1539   1.365   .     A
C1468  C1470   1.414   .     A
C1469  N1539   1.368   .     A
C1469  F1509   1.355   .     S
C1470  N1540   1.368   .     A
C1470  F1510   1.355   .     S
C1471  O1547   1.294   .     A
C1471  C1473   1.471   .     S
C1471  O1373   1.291   1_655 S
C1472  O1548   1.301   .     A
C1472  C1475   1.497   .     S
C1473  C1480   1.414   .     A
C1473  C1478   1.420   .     A
C1474  O1544   1.288   .     A
C1475  C1481   1.422   .     A
C1475  C1479   1.431   .     A
C1476  H1511   1.084   .     S
C1476  C1478   1.399   .     A
C1476  C1484   1.399   .     A
C1477  H1522   1.084   .     S
C1477  C1486   1.398   .     A
C1477  C1479   1.404   .     A
C1478  C1323   1.517   1_655 S
C1480  C1491   1.529   .     S
C1480  C1482   1.417   .     A
C1481  C1483   1.414   .     A
C1481  C1489   1.538   .     S
C1482  C1487   1.421   .     A
C1482  C1484   1.416   .     A
C1483  C1488   1.417   .     A
C1483  C1486   1.410   .     A
C1484  C724    1.400   1_556 S
C1485  C1488   1.408   .     A
C1485  H1532   1.080   .     S
C1485  C1498   1.390   .     A
C1487  C1496   1.412   .     A
C1487  C714    1.415   1_556 S
C1489  H1514   1.108   .     S
C1489  H1515   1.110   .     S
C1489  C1490   1.533   .     S
C1490  H1513   1.108   .     S
C1490  H1512   1.111   .     S
C1490  H1538   1.111   .     S
C1491  C1492   1.531   .     S
C1491  H1519   1.109   .     S
C1491  H1520   1.108   .     S
C1492  H1516   1.109   .     S
C1492  H1518   1.111   .     S
C1492  H1517   1.111   .     S
C1493  H1525   1.106   .     S
C1493  C1494   1.529   .     S
C1493  H1526   1.110   .     S
C1493  C1307   1.518   1_655 S
C1494  H1523   1.108   .     S
C1494  H1524   1.110   .     S
C1494  H1521   1.111   .     S
C1495  H1531   1.112   .     S
C1495  C1497   1.525   .     S
C1495  H1530   1.108   .     S
C1496  C1499   1.393   .     A
C1496  H1533   1.081   .     S
C1497  H1527   1.110   .     S
C1497  H1528   1.110   .     S
C1497  H1529   1.110   .     S
C1498  F1505   1.359   .     S
C1499  F1506   1.359   .     S
C1499  C712    1.400   1_556 S
C1500  F1507   1.358   .     S
C1501  F1508   1.358   .     S
C1501  C948    1.383   1_565 S
C1502  H1534   1.083   .     S
C1502  C1293   1.400   1_655 S
C1502  C984    1.383   1_565 S
Cu1503 O1548   1.923   .     S
Cu1503 N1539   2.008   .     S
Cu1503 O1545   1.936   .     S
Cu1503 O1541   1.965   .     S
Cu1503 O1544   1.966   .     S
Cu1504 O1542   1.965   .     S
Cu1504 O1543   1.966   .     S
Cu1504 O1546   1.936   .     S
Cu1504 O1547   1.923   .     S
Cu1504 N1540   2.008   .     S
Cu1504 Cu1331  2.671   1_655 S
O1542  C1302   1.291   1_655 S
O1546  C1300   1.299   1_655 S
