data_str_m2_o10_o18_pcu_sym.130
_audit_creation_date              2020-01-03
_audit_creation_method            'Materials Studio'
_symmetry_space_group_name_H-M    'P1'
_symmetry_Int_Tables_number       1
_symmetry_cell_setting            triclinic
loop_
_symmetry_equiv_pos_as_xyz
  x,y,z
_cell_length_a                    22.2200
_cell_length_b                    26.2459
_cell_length_c                    31.6687
_cell_angle_alpha                 94.2180
_cell_angle_beta                  74.5102
_cell_angle_gamma                 102.9708
loop_
_atom_site_label
_atom_site_type_symbol
_atom_site_fract_x
_atom_site_fract_y
_atom_site_fract_z
_atom_site_U_iso_or_equiv
_atom_site_adp_type
_atom_site_occupancy
C1     C     0.18069   0.26652   0.25267   0.00000  Uiso   1.00
C2     C     0.15265   0.06682   0.24733   0.00000  Uiso   1.00
C3     C     0.09652   0.12680   0.03870   0.00000  Uiso   1.00
C4     C     0.23681   0.20653   0.46130   0.00000  Uiso   1.00
C5     C     0.05206   0.11325   0.01397   0.00000  Uiso   1.00
C6     C     0.28127   0.22008   0.48603   0.00000  Uiso   1.00
C7     C     0.18486   0.32200   0.25872   0.00000  Uiso   1.00
C8     C     0.14847   0.01133   0.24128   0.00000  Uiso   1.00
C9     C     0.12742   0.16320   0.33343   0.00000  Uiso   1.00
C10    C     0.20591   0.17013   0.16657   0.00000  Uiso   1.00
C11    C     0.10269   0.15841   0.38165   0.00000  Uiso   1.00
C12    C     0.23065   0.17493   0.11835   0.00000  Uiso   1.00
C13    C     0.02166   0.12314   0.44647   0.00000  Uiso   1.00
C14    C     0.31167   0.21019   0.05353   0.00000  Uiso   1.00
C15    C     0.03790   0.13805   0.40281   0.00000  Uiso   1.00
C16    C     0.29544   0.19528   0.09718   0.00000  Uiso   1.00
C17    C     0.14741   0.17029   0.40676   0.00000  Uiso   1.00
C18    C     0.18593   0.16304   0.09324   0.00000  Uiso   1.00
C19    C     0.13067   0.15965   0.45181   0.00000  Uiso   1.00
C20    C     0.20266   0.17368   0.04819   0.00000  Uiso   1.00
C21    C     0.06771   0.13160   0.47083   0.00000  Uiso   1.00
C22    C     0.26562   0.20174   0.02917   0.00000  Uiso   1.00
C23    C     0.17551   0.17466   0.47785   0.00000  Uiso   1.00
C24    C     0.15782   0.15867   0.02215   0.00000  Uiso   1.00
Cu25   Cu    0.10737   0.16108   0.24516   0.00000  Uiso   1.00
Cu26   Cu    0.22596   0.17225   0.25483   0.00000  Uiso   1.00
H27    H     0.13712   0.14750   0.11024   0.00000  Uiso   1.00
H28    H     0.19622   0.18584   0.38976   0.00000  Uiso   1.00
H29    H     0.30524   0.10644   0.46132   0.00000  Uiso   1.00
H30    H     0.02809   0.22689   0.03868   0.00000  Uiso   1.00
H31    H     0.08159   0.10980   0.07072   0.00000  Uiso   1.00
H32    H     0.25174   0.22354   0.42928   0.00000  Uiso   1.00
H33    H     0.00130   0.20478   0.28434   0.00000  Uiso   1.00
H34    H     0.33203   0.12855   0.21566   0.00000  Uiso   1.00
N35    N     0.31506   0.18068   0.26212   0.00000  Uiso   1.00
N36    N     0.01827   0.15265   0.23788   0.00000  Uiso   1.00
O37    O     0.12815   0.23809   0.24686   0.00000  Uiso   1.00
O38    O     0.20518   0.09524   0.25314   0.00000  Uiso   1.00
O39    O     0.22829   0.24753   0.25502   0.00000  Uiso   1.00
O40    O     0.10504   0.08580   0.24497   0.00000  Uiso   1.00
O41    O     0.08851   0.15930   0.30854   0.00000  Uiso   1.00
O42    O     0.24482   0.17403   0.19145   0.00000  Uiso   1.00
O43    O     0.18866   0.16874   0.31671   0.00000  Uiso   1.00
O44    O     0.14468   0.16460   0.18329   0.00000  Uiso   1.00
O45    O     0.32744   0.08135   0.03341   0.00000  Uiso   1.00
H46    H     0.31242   0.05784   0.01072   0.00000  Uiso   1.00
O47    O     0.00589   0.25198   0.46659   0.00000  Uiso   1.00
H48    H     0.02091   0.27550   0.48928   0.00000  Uiso   1.00
O49    O     0.01042   0.20312   0.11810   0.00000  Uiso   1.00
H50    H     0.00398   0.17138   0.13522   0.00000  Uiso   1.00
O51    O     0.32292   0.13021   0.38190   0.00000  Uiso   1.00
H52    H     0.32935   0.16195   0.36478   0.00000  Uiso   1.00
O53    O     0.22322   0.01733   0.28412   0.00000  Uiso   1.00
H54    H     0.24193   0.32685   0.29720   0.00000  Uiso   1.00
O55    O     0.11012   0.31600   0.21588   0.00000  Uiso   1.00
H56    H     0.09140   0.00649   0.20280   0.00000  Uiso   1.00
C57    C     0.51402   0.26652   0.25267   0.00000  Uiso   1.00
C58    C     0.48598   0.06682   0.24733   0.00000  Uiso   1.00
C59    C     0.42985   0.12680   0.03870   0.00000  Uiso   1.00
C60    C     0.57015   0.20653   0.46130   0.00000  Uiso   1.00
C61    C     0.38540   0.11325   0.01397   0.00000  Uiso   1.00
C62    C     0.61460   0.22008   0.48603   0.00000  Uiso   1.00
C63    C     0.51819   0.32200   0.25872   0.00000  Uiso   1.00
C64    C     0.48181   0.01133   0.24128   0.00000  Uiso   1.00
C65    C     0.46076   0.16320   0.33343   0.00000  Uiso   1.00
C66    C     0.53924   0.17013   0.16657   0.00000  Uiso   1.00
C67    C     0.43602   0.15841   0.38165   0.00000  Uiso   1.00
C68    C     0.56398   0.17493   0.11835   0.00000  Uiso   1.00
C69    C     0.35500   0.12314   0.44647   0.00000  Uiso   1.00
C70    C     0.64500   0.21019   0.05353   0.00000  Uiso   1.00
C71    C     0.37123   0.13805   0.40281   0.00000  Uiso   1.00
C72    C     0.62877   0.19528   0.09718   0.00000  Uiso   1.00
C73    C     0.48074   0.17029   0.40676   0.00000  Uiso   1.00
C74    C     0.51926   0.16304   0.09324   0.00000  Uiso   1.00
C75    C     0.46401   0.15965   0.45181   0.00000  Uiso   1.00
C76    C     0.53599   0.17368   0.04819   0.00000  Uiso   1.00
C77    C     0.40105   0.13160   0.47083   0.00000  Uiso   1.00
C78    C     0.59895   0.20174   0.02917   0.00000  Uiso   1.00
C79    C     0.50884   0.17466   0.47785   0.00000  Uiso   1.00
C80    C     0.49116   0.15867   0.02215   0.00000  Uiso   1.00
Cu81   Cu    0.44071   0.16108   0.24516   0.00000  Uiso   1.00
Cu82   Cu    0.55929   0.17225   0.25483   0.00000  Uiso   1.00
H83    H     0.47045   0.14750   0.11024   0.00000  Uiso   1.00
H84    H     0.52955   0.18584   0.38976   0.00000  Uiso   1.00
H85    H     0.63857   0.10644   0.46132   0.00000  Uiso   1.00
H86    H     0.36143   0.22689   0.03868   0.00000  Uiso   1.00
H87    H     0.41493   0.10980   0.07072   0.00000  Uiso   1.00
H88    H     0.58507   0.22354   0.42928   0.00000  Uiso   1.00
H89    H     0.33464   0.20478   0.28434   0.00000  Uiso   1.00
H90    H     0.66536   0.12855   0.21566   0.00000  Uiso   1.00
N91    N     0.64839   0.18068   0.26212   0.00000  Uiso   1.00
N92    N     0.35161   0.15265   0.23788   0.00000  Uiso   1.00
O93    O     0.46148   0.23809   0.24686   0.00000  Uiso   1.00
O94    O     0.53852   0.09524   0.25314   0.00000  Uiso   1.00
O95    O     0.56163   0.24753   0.25502   0.00000  Uiso   1.00
O96    O     0.43837   0.08580   0.24497   0.00000  Uiso   1.00
O97    O     0.42185   0.15930   0.30854   0.00000  Uiso   1.00
O98    O     0.57815   0.17403   0.19145   0.00000  Uiso   1.00
O99    O     0.52199   0.16874   0.31671   0.00000  Uiso   1.00
O100   O     0.47801   0.16460   0.18329   0.00000  Uiso   1.00
O101   O     0.66077   0.08135   0.03341   0.00000  Uiso   1.00
H102   H     0.64576   0.05784   0.01072   0.00000  Uiso   1.00
O103   O     0.33923   0.25198   0.46659   0.00000  Uiso   1.00
H104   H     0.35424   0.27550   0.48928   0.00000  Uiso   1.00
O105   O     0.34375   0.20312   0.11810   0.00000  Uiso   1.00
H106   H     0.33732   0.17138   0.13522   0.00000  Uiso   1.00
O107   O     0.65625   0.13021   0.38190   0.00000  Uiso   1.00
H108   H     0.66268   0.16195   0.36478   0.00000  Uiso   1.00
O109   O     0.55655   0.01733   0.28412   0.00000  Uiso   1.00
H110   H     0.57526   0.32685   0.29720   0.00000  Uiso   1.00
O111   O     0.44345   0.31600   0.21588   0.00000  Uiso   1.00
H112   H     0.42474   0.00649   0.20280   0.00000  Uiso   1.00
C113   C     0.84735   0.26652   0.25267   0.00000  Uiso   1.00
C114   C     0.81931   0.06682   0.24733   0.00000  Uiso   1.00
C115   C     0.76319   0.12680   0.03870   0.00000  Uiso   1.00
C116   C     0.90348   0.20653   0.46130   0.00000  Uiso   1.00
C117   C     0.71873   0.11325   0.01397   0.00000  Uiso   1.00
C118   C     0.94794   0.22008   0.48603   0.00000  Uiso   1.00
C119   C     0.85153   0.32200   0.25872   0.00000  Uiso   1.00
C120   C     0.81514   0.01133   0.24128   0.00000  Uiso   1.00
C121   C     0.79409   0.16320   0.33343   0.00000  Uiso   1.00
C122   C     0.87258   0.17013   0.16657   0.00000  Uiso   1.00
C123   C     0.76935   0.15841   0.38165   0.00000  Uiso   1.00
C124   C     0.89731   0.17493   0.11835   0.00000  Uiso   1.00
C125   C     0.68833   0.12314   0.44647   0.00000  Uiso   1.00
C126   C     0.97834   0.21019   0.05353   0.00000  Uiso   1.00
C127   C     0.70456   0.13805   0.40281   0.00000  Uiso   1.00
C128   C     0.96210   0.19528   0.09718   0.00000  Uiso   1.00
C129   C     0.81407   0.17029   0.40676   0.00000  Uiso   1.00
C130   C     0.85259   0.16304   0.09324   0.00000  Uiso   1.00
C131   C     0.79734   0.15965   0.45181   0.00000  Uiso   1.00
C132   C     0.86933   0.17368   0.04819   0.00000  Uiso   1.00
C133   C     0.73438   0.13160   0.47083   0.00000  Uiso   1.00
C134   C     0.93229   0.20174   0.02917   0.00000  Uiso   1.00
C135   C     0.84218   0.17466   0.47785   0.00000  Uiso   1.00
C136   C     0.82449   0.15867   0.02215   0.00000  Uiso   1.00
Cu137  Cu    0.77404   0.16108   0.24516   0.00000  Uiso   1.00
Cu138  Cu    0.89263   0.17225   0.25483   0.00000  Uiso   1.00
H139   H     0.80378   0.14750   0.11024   0.00000  Uiso   1.00
H140   H     0.86288   0.18584   0.38976   0.00000  Uiso   1.00
H141   H     0.97191   0.10644   0.46132   0.00000  Uiso   1.00
H142   H     0.69476   0.22689   0.03868   0.00000  Uiso   1.00
H143   H     0.74826   0.10980   0.07072   0.00000  Uiso   1.00
H144   H     0.91841   0.22354   0.42928   0.00000  Uiso   1.00
H145   H     0.66797   0.20478   0.28434   0.00000  Uiso   1.00
H146   H     0.99870   0.12855   0.21566   0.00000  Uiso   1.00
N147   N     0.98173   0.18068   0.26212   0.00000  Uiso   1.00
N148   N     0.68494   0.15265   0.23788   0.00000  Uiso   1.00
O149   O     0.79482   0.23809   0.24686   0.00000  Uiso   1.00
O150   O     0.87185   0.09524   0.25314   0.00000  Uiso   1.00
O151   O     0.89496   0.24753   0.25502   0.00000  Uiso   1.00
O152   O     0.77171   0.08580   0.24497   0.00000  Uiso   1.00
O153   O     0.75518   0.15930   0.30854   0.00000  Uiso   1.00
O154   O     0.91149   0.17403   0.19145   0.00000  Uiso   1.00
O155   O     0.85532   0.16874   0.31671   0.00000  Uiso   1.00
O156   O     0.81134   0.16460   0.18329   0.00000  Uiso   1.00
O157   O     0.99411   0.08135   0.03341   0.00000  Uiso   1.00
H158   H     0.97909   0.05784   0.01072   0.00000  Uiso   1.00
O159   O     0.67256   0.25198   0.46659   0.00000  Uiso   1.00
H160   H     0.68758   0.27550   0.48928   0.00000  Uiso   1.00
O161   O     0.67709   0.20312   0.11810   0.00000  Uiso   1.00
H162   H     0.67065   0.17138   0.13522   0.00000  Uiso   1.00
O163   O     0.98958   0.13021   0.38190   0.00000  Uiso   1.00
H164   H     0.99602   0.16195   0.36478   0.00000  Uiso   1.00
O165   O     0.88988   0.01733   0.28412   0.00000  Uiso   1.00
H166   H     0.90860   0.32685   0.29720   0.00000  Uiso   1.00
O167   O     0.77678   0.31600   0.21588   0.00000  Uiso   1.00
H168   H     0.75807   0.00649   0.20280   0.00000  Uiso   1.00
C169   C     0.18069   0.59985   0.25267   0.00000  Uiso   1.00
C170   C     0.15265   0.40015   0.24733   0.00000  Uiso   1.00
C171   C     0.09652   0.46013   0.03870   0.00000  Uiso   1.00
C172   C     0.23681   0.53987   0.46130   0.00000  Uiso   1.00
C173   C     0.05206   0.44659   0.01397   0.00000  Uiso   1.00
C174   C     0.28127   0.55342   0.48603   0.00000  Uiso   1.00
C175   C     0.18486   0.65534   0.25872   0.00000  Uiso   1.00
C176   C     0.14847   0.34466   0.24128   0.00000  Uiso   1.00
C177   C     0.12742   0.49654   0.33343   0.00000  Uiso   1.00
C178   C     0.20591   0.50346   0.16657   0.00000  Uiso   1.00
C179   C     0.10269   0.49174   0.38165   0.00000  Uiso   1.00
C180   C     0.23065   0.50826   0.11835   0.00000  Uiso   1.00
C181   C     0.02166   0.45648   0.44647   0.00000  Uiso   1.00
C182   C     0.31167   0.54352   0.05353   0.00000  Uiso   1.00
C183   C     0.03790   0.47138   0.40281   0.00000  Uiso   1.00
C184   C     0.29544   0.52862   0.09718   0.00000  Uiso   1.00
C185   C     0.14741   0.50363   0.40676   0.00000  Uiso   1.00
C186   C     0.18593   0.49637   0.09324   0.00000  Uiso   1.00
C187   C     0.13067   0.49298   0.45181   0.00000  Uiso   1.00
C188   C     0.20266   0.50702   0.04819   0.00000  Uiso   1.00
C189   C     0.06771   0.46493   0.47083   0.00000  Uiso   1.00
C190   C     0.26562   0.53507   0.02917   0.00000  Uiso   1.00
C191   C     0.17551   0.50799   0.47785   0.00000  Uiso   1.00
C192   C     0.15782   0.49201   0.02215   0.00000  Uiso   1.00
Cu193  Cu    0.10737   0.49441   0.24516   0.00000  Uiso   1.00
Cu194  Cu    0.22596   0.50559   0.25483   0.00000  Uiso   1.00
H195   H     0.13712   0.48083   0.11024   0.00000  Uiso   1.00
H196   H     0.19622   0.51917   0.38976   0.00000  Uiso   1.00
H197   H     0.30524   0.43978   0.46132   0.00000  Uiso   1.00
H198   H     0.02809   0.56022   0.03868   0.00000  Uiso   1.00
H199   H     0.08159   0.44313   0.07072   0.00000  Uiso   1.00
H200   H     0.25174   0.55687   0.42928   0.00000  Uiso   1.00
H201   H     0.00130   0.53811   0.28434   0.00000  Uiso   1.00
H202   H     0.33203   0.46189   0.21566   0.00000  Uiso   1.00
N203   N     0.31506   0.51401   0.26212   0.00000  Uiso   1.00
N204   N     0.01827   0.48599   0.23788   0.00000  Uiso   1.00
O205   O     0.12815   0.57142   0.24686   0.00000  Uiso   1.00
O206   O     0.20518   0.42858   0.25314   0.00000  Uiso   1.00
O207   O     0.22829   0.58086   0.25502   0.00000  Uiso   1.00
O208   O     0.10504   0.41914   0.24497   0.00000  Uiso   1.00
O209   O     0.08851   0.49263   0.30854   0.00000  Uiso   1.00
O210   O     0.24482   0.50737   0.19145   0.00000  Uiso   1.00
O211   O     0.18866   0.50207   0.31671   0.00000  Uiso   1.00
O212   O     0.14468   0.49793   0.18329   0.00000  Uiso   1.00
O213   O     0.32744   0.41469   0.03341   0.00000  Uiso   1.00
H214   H     0.31242   0.39117   0.01072   0.00000  Uiso   1.00
O215   O     0.00589   0.58531   0.46659   0.00000  Uiso   1.00
H216   H     0.02091   0.60883   0.48928   0.00000  Uiso   1.00
O217   O     0.01042   0.53646   0.11810   0.00000  Uiso   1.00
H218   H     0.00398   0.50471   0.13522   0.00000  Uiso   1.00
O219   O     0.32292   0.46354   0.38190   0.00000  Uiso   1.00
H220   H     0.32935   0.49529   0.36478   0.00000  Uiso   1.00
O221   O     0.22322   0.35066   0.28412   0.00000  Uiso   1.00
H222   H     0.24193   0.66018   0.29720   0.00000  Uiso   1.00
O223   O     0.11012   0.64934   0.21588   0.00000  Uiso   1.00
H224   H     0.09140   0.33982   0.20280   0.00000  Uiso   1.00
C225   C     0.51402   0.59985   0.25267   0.00000  Uiso   1.00
C226   C     0.48598   0.40015   0.24733   0.00000  Uiso   1.00
C227   C     0.42985   0.46013   0.03870   0.00000  Uiso   1.00
C228   C     0.57015   0.53987   0.46130   0.00000  Uiso   1.00
C229   C     0.38540   0.44659   0.01397   0.00000  Uiso   1.00
C230   C     0.61460   0.55342   0.48603   0.00000  Uiso   1.00
C231   C     0.51819   0.65534   0.25872   0.00000  Uiso   1.00
C232   C     0.48181   0.34466   0.24128   0.00000  Uiso   1.00
C233   C     0.46076   0.49654   0.33343   0.00000  Uiso   1.00
C234   C     0.53924   0.50346   0.16657   0.00000  Uiso   1.00
C235   C     0.43602   0.49174   0.38165   0.00000  Uiso   1.00
C236   C     0.56398   0.50826   0.11835   0.00000  Uiso   1.00
C237   C     0.35500   0.45648   0.44647   0.00000  Uiso   1.00
C238   C     0.64500   0.54352   0.05353   0.00000  Uiso   1.00
C239   C     0.37123   0.47138   0.40281   0.00000  Uiso   1.00
C240   C     0.62877   0.52862   0.09718   0.00000  Uiso   1.00
C241   C     0.48074   0.50363   0.40676   0.00000  Uiso   1.00
C242   C     0.51926   0.49637   0.09324   0.00000  Uiso   1.00
C243   C     0.46401   0.49298   0.45181   0.00000  Uiso   1.00
C244   C     0.53599   0.50702   0.04819   0.00000  Uiso   1.00
C245   C     0.40105   0.46493   0.47083   0.00000  Uiso   1.00
C246   C     0.59895   0.53507   0.02917   0.00000  Uiso   1.00
C247   C     0.50884   0.50799   0.47785   0.00000  Uiso   1.00
C248   C     0.49116   0.49201   0.02215   0.00000  Uiso   1.00
Cu249  Cu    0.44071   0.49441   0.24516   0.00000  Uiso   1.00
Cu250  Cu    0.55929   0.50559   0.25483   0.00000  Uiso   1.00
H251   H     0.47045   0.48083   0.11024   0.00000  Uiso   1.00
H252   H     0.52955   0.51917   0.38976   0.00000  Uiso   1.00
H253   H     0.63857   0.43978   0.46132   0.00000  Uiso   1.00
H254   H     0.36143   0.56022   0.03868   0.00000  Uiso   1.00
H255   H     0.41493   0.44313   0.07072   0.00000  Uiso   1.00
H256   H     0.58507   0.55687   0.42928   0.00000  Uiso   1.00
H257   H     0.33464   0.53811   0.28434   0.00000  Uiso   1.00
H258   H     0.66536   0.46189   0.21566   0.00000  Uiso   1.00
N259   N     0.64839   0.51401   0.26212   0.00000  Uiso   1.00
N260   N     0.35161   0.48599   0.23788   0.00000  Uiso   1.00
O261   O     0.46148   0.57142   0.24686   0.00000  Uiso   1.00
O262   O     0.53852   0.42858   0.25314   0.00000  Uiso   1.00
O263   O     0.56163   0.58086   0.25502   0.00000  Uiso   1.00
O264   O     0.43837   0.41914   0.24497   0.00000  Uiso   1.00
O265   O     0.42185   0.49263   0.30854   0.00000  Uiso   1.00
O266   O     0.57815   0.50737   0.19145   0.00000  Uiso   1.00
O267   O     0.52199   0.50207   0.31671   0.00000  Uiso   1.00
O268   O     0.47801   0.49793   0.18329   0.00000  Uiso   1.00
O269   O     0.66077   0.41469   0.03341   0.00000  Uiso   1.00
H270   H     0.64576   0.39117   0.01072   0.00000  Uiso   1.00
O271   O     0.33923   0.58531   0.46659   0.00000  Uiso   1.00
H272   H     0.35424   0.60883   0.48928   0.00000  Uiso   1.00
O273   O     0.34375   0.53646   0.11810   0.00000  Uiso   1.00
H274   H     0.33732   0.50471   0.13522   0.00000  Uiso   1.00
O275   O     0.65625   0.46354   0.38190   0.00000  Uiso   1.00
H276   H     0.66268   0.49529   0.36478   0.00000  Uiso   1.00
O277   O     0.55655   0.35066   0.28412   0.00000  Uiso   1.00
H278   H     0.57526   0.66018   0.29720   0.00000  Uiso   1.00
O279   O     0.44345   0.64934   0.21588   0.00000  Uiso   1.00
H280   H     0.42474   0.33982   0.20280   0.00000  Uiso   1.00
C281   C     0.84735   0.59985   0.25267   0.00000  Uiso   1.00
C282   C     0.81931   0.40015   0.24733   0.00000  Uiso   1.00
C283   C     0.76319   0.46013   0.03870   0.00000  Uiso   1.00
C284   C     0.90348   0.53987   0.46130   0.00000  Uiso   1.00
C285   C     0.71873   0.44659   0.01397   0.00000  Uiso   1.00
C286   C     0.94794   0.55342   0.48603   0.00000  Uiso   1.00
C287   C     0.85153   0.65534   0.25872   0.00000  Uiso   1.00
C288   C     0.81514   0.34466   0.24128   0.00000  Uiso   1.00
C289   C     0.79409   0.49654   0.33343   0.00000  Uiso   1.00
C290   C     0.87258   0.50346   0.16657   0.00000  Uiso   1.00
C291   C     0.76935   0.49174   0.38165   0.00000  Uiso   1.00
C292   C     0.89731   0.50826   0.11835   0.00000  Uiso   1.00
C293   C     0.68833   0.45648   0.44647   0.00000  Uiso   1.00
C294   C     0.97834   0.54352   0.05353   0.00000  Uiso   1.00
C295   C     0.70456   0.47138   0.40281   0.00000  Uiso   1.00
C296   C     0.96210   0.52862   0.09718   0.00000  Uiso   1.00
C297   C     0.81407   0.50363   0.40676   0.00000  Uiso   1.00
C298   C     0.85259   0.49637   0.09324   0.00000  Uiso   1.00
C299   C     0.79734   0.49298   0.45181   0.00000  Uiso   1.00
C300   C     0.86933   0.50702   0.04819   0.00000  Uiso   1.00
C301   C     0.73438   0.46493   0.47083   0.00000  Uiso   1.00
C302   C     0.93229   0.53507   0.02917   0.00000  Uiso   1.00
C303   C     0.84218   0.50799   0.47785   0.00000  Uiso   1.00
C304   C     0.82449   0.49201   0.02215   0.00000  Uiso   1.00
Cu305  Cu    0.77404   0.49441   0.24516   0.00000  Uiso   1.00
Cu306  Cu    0.89263   0.50559   0.25483   0.00000  Uiso   1.00
H307   H     0.80378   0.48083   0.11024   0.00000  Uiso   1.00
H308   H     0.86288   0.51917   0.38976   0.00000  Uiso   1.00
H309   H     0.97191   0.43978   0.46132   0.00000  Uiso   1.00
H310   H     0.69476   0.56022   0.03868   0.00000  Uiso   1.00
H311   H     0.74826   0.44313   0.07072   0.00000  Uiso   1.00
H312   H     0.91841   0.55687   0.42928   0.00000  Uiso   1.00
H313   H     0.66797   0.53811   0.28434   0.00000  Uiso   1.00
H314   H     0.99870   0.46189   0.21566   0.00000  Uiso   1.00
N315   N     0.98173   0.51401   0.26212   0.00000  Uiso   1.00
N316   N     0.68494   0.48599   0.23788   0.00000  Uiso   1.00
O317   O     0.79482   0.57142   0.24686   0.00000  Uiso   1.00
O318   O     0.87185   0.42858   0.25314   0.00000  Uiso   1.00
O319   O     0.89496   0.58086   0.25502   0.00000  Uiso   1.00
O320   O     0.77171   0.41914   0.24497   0.00000  Uiso   1.00
O321   O     0.75518   0.49263   0.30854   0.00000  Uiso   1.00
O322   O     0.91149   0.50737   0.19145   0.00000  Uiso   1.00
O323   O     0.85532   0.50207   0.31671   0.00000  Uiso   1.00
O324   O     0.81134   0.49793   0.18329   0.00000  Uiso   1.00
O325   O     0.99411   0.41469   0.03341   0.00000  Uiso   1.00
H326   H     0.97909   0.39117   0.01072   0.00000  Uiso   1.00
O327   O     0.67256   0.58531   0.46659   0.00000  Uiso   1.00
H328   H     0.68758   0.60883   0.48928   0.00000  Uiso   1.00
O329   O     0.67709   0.53646   0.11810   0.00000  Uiso   1.00
H330   H     0.67065   0.50471   0.13522   0.00000  Uiso   1.00
O331   O     0.98958   0.46354   0.38190   0.00000  Uiso   1.00
H332   H     0.99602   0.49529   0.36478   0.00000  Uiso   1.00
O333   O     0.88988   0.35066   0.28412   0.00000  Uiso   1.00
H334   H     0.90860   0.66018   0.29720   0.00000  Uiso   1.00
O335   O     0.77678   0.64934   0.21588   0.00000  Uiso   1.00
H336   H     0.75807   0.33982   0.20280   0.00000  Uiso   1.00
C337   C     0.18069   0.93318   0.25267   0.00000  Uiso   1.00
C338   C     0.15265   0.73348   0.24733   0.00000  Uiso   1.00
C339   C     0.09652   0.79347   0.03870   0.00000  Uiso   1.00
C340   C     0.23681   0.87320   0.46130   0.00000  Uiso   1.00
C341   C     0.05206   0.77992   0.01397   0.00000  Uiso   1.00
C342   C     0.28127   0.88675   0.48603   0.00000  Uiso   1.00
C343   C     0.18486   0.98867   0.25872   0.00000  Uiso   1.00
C344   C     0.14847   0.67800   0.24128   0.00000  Uiso   1.00
C345   C     0.12742   0.82987   0.33343   0.00000  Uiso   1.00
C346   C     0.20591   0.83680   0.16657   0.00000  Uiso   1.00
C347   C     0.10269   0.82507   0.38165   0.00000  Uiso   1.00
C348   C     0.23065   0.84159   0.11835   0.00000  Uiso   1.00
C349   C     0.02166   0.78981   0.44647   0.00000  Uiso   1.00
C350   C     0.31167   0.87686   0.05353   0.00000  Uiso   1.00
C351   C     0.03790   0.80472   0.40281   0.00000  Uiso   1.00
C352   C     0.29544   0.86195   0.09718   0.00000  Uiso   1.00
C353   C     0.14741   0.83696   0.40676   0.00000  Uiso   1.00
C354   C     0.18593   0.82971   0.09324   0.00000  Uiso   1.00
C355   C     0.13067   0.82632   0.45181   0.00000  Uiso   1.00
C356   C     0.20266   0.84035   0.04819   0.00000  Uiso   1.00
C357   C     0.06771   0.79826   0.47083   0.00000  Uiso   1.00
C358   C     0.26562   0.86840   0.02917   0.00000  Uiso   1.00
C359   C     0.17551   0.84133   0.47785   0.00000  Uiso   1.00
C360   C     0.15782   0.82534   0.02215   0.00000  Uiso   1.00
Cu361  Cu    0.10737   0.82775   0.24516   0.00000  Uiso   1.00
Cu362  Cu    0.22596   0.83892   0.25483   0.00000  Uiso   1.00
H363   H     0.13712   0.81416   0.11024   0.00000  Uiso   1.00
H364   H     0.19622   0.85250   0.38976   0.00000  Uiso   1.00
H365   H     0.30524   0.77311   0.46132   0.00000  Uiso   1.00
H366   H     0.02809   0.89356   0.03868   0.00000  Uiso   1.00
H367   H     0.08159   0.77646   0.07072   0.00000  Uiso   1.00
H368   H     0.25174   0.89020   0.42928   0.00000  Uiso   1.00
H369   H     0.00130   0.87145   0.28434   0.00000  Uiso   1.00
H370   H     0.33203   0.79522   0.21566   0.00000  Uiso   1.00
N371   N     0.31506   0.84735   0.26212   0.00000  Uiso   1.00
N372   N     0.01827   0.81932   0.23788   0.00000  Uiso   1.00
O373   O     0.12815   0.90476   0.24686   0.00000  Uiso   1.00
O374   O     0.20518   0.76191   0.25314   0.00000  Uiso   1.00
O375   O     0.22829   0.91420   0.25502   0.00000  Uiso   1.00
O376   O     0.10504   0.75247   0.24497   0.00000  Uiso   1.00
O377   O     0.08851   0.82597   0.30854   0.00000  Uiso   1.00
O378   O     0.24482   0.84070   0.19145   0.00000  Uiso   1.00
O379   O     0.18866   0.83540   0.31671   0.00000  Uiso   1.00
O380   O     0.14468   0.83126   0.18329   0.00000  Uiso   1.00
O381   O     0.32744   0.74802   0.03341   0.00000  Uiso   1.00
H382   H     0.31242   0.72450   0.01072   0.00000  Uiso   1.00
O383   O     0.00589   0.91865   0.46659   0.00000  Uiso   1.00
H384   H     0.02091   0.94217   0.48928   0.00000  Uiso   1.00
O385   O     0.01042   0.86979   0.11810   0.00000  Uiso   1.00
H386   H     0.00398   0.83805   0.13522   0.00000  Uiso   1.00
O387   O     0.32292   0.79688   0.38190   0.00000  Uiso   1.00
H388   H     0.32935   0.82862   0.36478   0.00000  Uiso   1.00
O389   O     0.22322   0.68400   0.28412   0.00000  Uiso   1.00
H390   H     0.24193   0.99352   0.29720   0.00000  Uiso   1.00
O391   O     0.11012   0.98267   0.21588   0.00000  Uiso   1.00
H392   H     0.09140   0.67315   0.20280   0.00000  Uiso   1.00
C393   C     0.51402   0.93318   0.25267   0.00000  Uiso   1.00
C394   C     0.48598   0.73348   0.24733   0.00000  Uiso   1.00
C395   C     0.42985   0.79347   0.03870   0.00000  Uiso   1.00
C396   C     0.57015   0.87320   0.46130   0.00000  Uiso   1.00
C397   C     0.38540   0.77992   0.01397   0.00000  Uiso   1.00
C398   C     0.61460   0.88675   0.48603   0.00000  Uiso   1.00
C399   C     0.51819   0.98867   0.25872   0.00000  Uiso   1.00
C400   C     0.48181   0.67800   0.24128   0.00000  Uiso   1.00
C401   C     0.46076   0.82987   0.33343   0.00000  Uiso   1.00
C402   C     0.53924   0.83680   0.16657   0.00000  Uiso   1.00
C403   C     0.43602   0.82507   0.38165   0.00000  Uiso   1.00
C404   C     0.56398   0.84159   0.11835   0.00000  Uiso   1.00
C405   C     0.35500   0.78981   0.44647   0.00000  Uiso   1.00
C406   C     0.64500   0.87686   0.05353   0.00000  Uiso   1.00
C407   C     0.37123   0.80472   0.40281   0.00000  Uiso   1.00
C408   C     0.62877   0.86195   0.09718   0.00000  Uiso   1.00
C409   C     0.48074   0.83696   0.40676   0.00000  Uiso   1.00
C410   C     0.51926   0.82971   0.09324   0.00000  Uiso   1.00
C411   C     0.46401   0.82632   0.45181   0.00000  Uiso   1.00
C412   C     0.53599   0.84035   0.04819   0.00000  Uiso   1.00
C413   C     0.40105   0.79826   0.47083   0.00000  Uiso   1.00
C414   C     0.59895   0.86840   0.02917   0.00000  Uiso   1.00
C415   C     0.50884   0.84133   0.47785   0.00000  Uiso   1.00
C416   C     0.49116   0.82534   0.02215   0.00000  Uiso   1.00
Cu417  Cu    0.44071   0.82775   0.24516   0.00000  Uiso   1.00
Cu418  Cu    0.55929   0.83892   0.25483   0.00000  Uiso   1.00
H419   H     0.47045   0.81416   0.11024   0.00000  Uiso   1.00
H420   H     0.52955   0.85250   0.38976   0.00000  Uiso   1.00
H421   H     0.63857   0.77311   0.46132   0.00000  Uiso   1.00
H422   H     0.36143   0.89356   0.03868   0.00000  Uiso   1.00
H423   H     0.41493   0.77646   0.07072   0.00000  Uiso   1.00
H424   H     0.58507   0.89020   0.42928   0.00000  Uiso   1.00
H425   H     0.33464   0.87145   0.28434   0.00000  Uiso   1.00
H426   H     0.66536   0.79522   0.21566   0.00000  Uiso   1.00
N427   N     0.64839   0.84735   0.26212   0.00000  Uiso   1.00
N428   N     0.35161   0.81932   0.23788   0.00000  Uiso   1.00
O429   O     0.46148   0.90476   0.24686   0.00000  Uiso   1.00
O430   O     0.53852   0.76191   0.25314   0.00000  Uiso   1.00
O431   O     0.56163   0.91420   0.25502   0.00000  Uiso   1.00
O432   O     0.43837   0.75247   0.24497   0.00000  Uiso   1.00
O433   O     0.42185   0.82597   0.30854   0.00000  Uiso   1.00
O434   O     0.57815   0.84070   0.19145   0.00000  Uiso   1.00
O435   O     0.52199   0.83540   0.31671   0.00000  Uiso   1.00
O436   O     0.47801   0.83126   0.18329   0.00000  Uiso   1.00
O437   O     0.66077   0.74802   0.03341   0.00000  Uiso   1.00
H438   H     0.64576   0.72450   0.01072   0.00000  Uiso   1.00
O439   O     0.33923   0.91865   0.46659   0.00000  Uiso   1.00
H440   H     0.35424   0.94217   0.48928   0.00000  Uiso   1.00
O441   O     0.34375   0.86979   0.11810   0.00000  Uiso   1.00
H442   H     0.33732   0.83805   0.13522   0.00000  Uiso   1.00
O443   O     0.65625   0.79688   0.38190   0.00000  Uiso   1.00
H444   H     0.66268   0.82862   0.36478   0.00000  Uiso   1.00
O445   O     0.55655   0.68400   0.28412   0.00000  Uiso   1.00
H446   H     0.57526   0.99352   0.29720   0.00000  Uiso   1.00
O447   O     0.44345   0.98267   0.21588   0.00000  Uiso   1.00
H448   H     0.42474   0.67315   0.20280   0.00000  Uiso   1.00
C449   C     0.84735   0.93318   0.25267   0.00000  Uiso   1.00
C450   C     0.81931   0.73348   0.24733   0.00000  Uiso   1.00
C451   C     0.76319   0.79347   0.03870   0.00000  Uiso   1.00
C452   C     0.90348   0.87320   0.46130   0.00000  Uiso   1.00
C453   C     0.71873   0.77992   0.01397   0.00000  Uiso   1.00
C454   C     0.94794   0.88675   0.48603   0.00000  Uiso   1.00
C455   C     0.85153   0.98867   0.25872   0.00000  Uiso   1.00
C456   C     0.81514   0.67800   0.24128   0.00000  Uiso   1.00
C457   C     0.79409   0.82987   0.33343   0.00000  Uiso   1.00
C458   C     0.87258   0.83680   0.16657   0.00000  Uiso   1.00
C459   C     0.76935   0.82507   0.38165   0.00000  Uiso   1.00
C460   C     0.89731   0.84159   0.11835   0.00000  Uiso   1.00
C461   C     0.68833   0.78981   0.44647   0.00000  Uiso   1.00
C462   C     0.97834   0.87686   0.05353   0.00000  Uiso   1.00
C463   C     0.70456   0.80472   0.40281   0.00000  Uiso   1.00
C464   C     0.96210   0.86195   0.09718   0.00000  Uiso   1.00
C465   C     0.81407   0.83696   0.40676   0.00000  Uiso   1.00
C466   C     0.85259   0.82971   0.09324   0.00000  Uiso   1.00
C467   C     0.79734   0.82632   0.45181   0.00000  Uiso   1.00
C468   C     0.86933   0.84035   0.04819   0.00000  Uiso   1.00
C469   C     0.73438   0.79826   0.47083   0.00000  Uiso   1.00
C470   C     0.93229   0.86840   0.02917   0.00000  Uiso   1.00
C471   C     0.84218   0.84133   0.47785   0.00000  Uiso   1.00
C472   C     0.82449   0.82534   0.02215   0.00000  Uiso   1.00
Cu473  Cu    0.77404   0.82775   0.24516   0.00000  Uiso   1.00
Cu474  Cu    0.89263   0.83892   0.25483   0.00000  Uiso   1.00
H475   H     0.80378   0.81416   0.11024   0.00000  Uiso   1.00
H476   H     0.86288   0.85250   0.38976   0.00000  Uiso   1.00
H477   H     0.97191   0.77311   0.46132   0.00000  Uiso   1.00
H478   H     0.69476   0.89356   0.03868   0.00000  Uiso   1.00
H479   H     0.74826   0.77646   0.07072   0.00000  Uiso   1.00
H480   H     0.91841   0.89020   0.42928   0.00000  Uiso   1.00
H481   H     0.66797   0.87145   0.28434   0.00000  Uiso   1.00
H482   H     0.99870   0.79522   0.21566   0.00000  Uiso   1.00
N483   N     0.98173   0.84735   0.26212   0.00000  Uiso   1.00
N484   N     0.68494   0.81932   0.23788   0.00000  Uiso   1.00
O485   O     0.79482   0.90476   0.24686   0.00000  Uiso   1.00
O486   O     0.87185   0.76191   0.25314   0.00000  Uiso   1.00
O487   O     0.89496   0.91420   0.25502   0.00000  Uiso   1.00
O488   O     0.77171   0.75247   0.24497   0.00000  Uiso   1.00
O489   O     0.75518   0.82597   0.30854   0.00000  Uiso   1.00
O490   O     0.91149   0.84070   0.19145   0.00000  Uiso   1.00
O491   O     0.85532   0.83540   0.31671   0.00000  Uiso   1.00
O492   O     0.81134   0.83126   0.18329   0.00000  Uiso   1.00
O493   O     0.99411   0.74802   0.03341   0.00000  Uiso   1.00
H494   H     0.97909   0.72450   0.01072   0.00000  Uiso   1.00
O495   O     0.67256   0.91865   0.46659   0.00000  Uiso   1.00
H496   H     0.68758   0.94217   0.48928   0.00000  Uiso   1.00
O497   O     0.67709   0.86979   0.11810   0.00000  Uiso   1.00
H498   H     0.67065   0.83805   0.13522   0.00000  Uiso   1.00
O499   O     0.98958   0.79688   0.38190   0.00000  Uiso   1.00
H500   H     0.99602   0.82862   0.36478   0.00000  Uiso   1.00
O501   O     0.88988   0.68400   0.28412   0.00000  Uiso   1.00
H502   H     0.90860   0.99352   0.29720   0.00000  Uiso   1.00
O503   O     0.77678   0.98267   0.21588   0.00000  Uiso   1.00
H504   H     0.75807   0.67315   0.20280   0.00000  Uiso   1.00
C505   C     0.18069   0.26652   0.75267   0.00000  Uiso   1.00
C506   C     0.15265   0.06682   0.74733   0.00000  Uiso   1.00
C507   C     0.09652   0.12680   0.53870   0.00000  Uiso   1.00
C508   C     0.23681   0.20653   0.96130   0.00000  Uiso   1.00
C509   C     0.05206   0.11325   0.51397   0.00000  Uiso   1.00
C510   C     0.28127   0.22008   0.98603   0.00000  Uiso   1.00
C511   C     0.18486   0.32200   0.75872   0.00000  Uiso   1.00
C512   C     0.14847   0.01133   0.74128   0.00000  Uiso   1.00
C513   C     0.12742   0.16320   0.83343   0.00000  Uiso   1.00
C514   C     0.20591   0.17013   0.66657   0.00000  Uiso   1.00
C515   C     0.10269   0.15841   0.88165   0.00000  Uiso   1.00
C516   C     0.23065   0.17493   0.61835   0.00000  Uiso   1.00
C517   C     0.02166   0.12314   0.94647   0.00000  Uiso   1.00
C518   C     0.31167   0.21019   0.55353   0.00000  Uiso   1.00
C519   C     0.03790   0.13805   0.90281   0.00000  Uiso   1.00
C520   C     0.29544   0.19528   0.59718   0.00000  Uiso   1.00
C521   C     0.14741   0.17029   0.90676   0.00000  Uiso   1.00
C522   C     0.18593   0.16304   0.59324   0.00000  Uiso   1.00
C523   C     0.13067   0.15965   0.95181   0.00000  Uiso   1.00
C524   C     0.20266   0.17368   0.54819   0.00000  Uiso   1.00
C525   C     0.06771   0.13160   0.97083   0.00000  Uiso   1.00
C526   C     0.26562   0.20174   0.52917   0.00000  Uiso   1.00
C527   C     0.17551   0.17466   0.97785   0.00000  Uiso   1.00
C528   C     0.15782   0.15867   0.52215   0.00000  Uiso   1.00
Cu529  Cu    0.10737   0.16108   0.74516   0.00000  Uiso   1.00
Cu530  Cu    0.22596   0.17225   0.75483   0.00000  Uiso   1.00
H531   H     0.13712   0.14750   0.61024   0.00000  Uiso   1.00
H532   H     0.19622   0.18584   0.88976   0.00000  Uiso   1.00
H533   H     0.30524   0.10644   0.96132   0.00000  Uiso   1.00
H534   H     0.02809   0.22689   0.53868   0.00000  Uiso   1.00
H535   H     0.08159   0.10980   0.57072   0.00000  Uiso   1.00
H536   H     0.25174   0.22354   0.92928   0.00000  Uiso   1.00
H537   H     0.00130   0.20478   0.78434   0.00000  Uiso   1.00
H538   H     0.33203   0.12855   0.71566   0.00000  Uiso   1.00
N539   N     0.31506   0.18068   0.76212   0.00000  Uiso   1.00
N540   N     0.01827   0.15265   0.73788   0.00000  Uiso   1.00
O541   O     0.12815   0.23809   0.74686   0.00000  Uiso   1.00
O542   O     0.20518   0.09524   0.75314   0.00000  Uiso   1.00
O543   O     0.22829   0.24753   0.75502   0.00000  Uiso   1.00
O544   O     0.10504   0.08580   0.74497   0.00000  Uiso   1.00
O545   O     0.08851   0.15930   0.80854   0.00000  Uiso   1.00
O546   O     0.24482   0.17403   0.69145   0.00000  Uiso   1.00
O547   O     0.18866   0.16874   0.81671   0.00000  Uiso   1.00
O548   O     0.14468   0.16460   0.68329   0.00000  Uiso   1.00
O549   O     0.32744   0.08135   0.53341   0.00000  Uiso   1.00
H550   H     0.31242   0.05784   0.51072   0.00000  Uiso   1.00
O551   O     0.00589   0.25198   0.96659   0.00000  Uiso   1.00
H552   H     0.02091   0.27550   0.98928   0.00000  Uiso   1.00
O553   O     0.01042   0.20312   0.61810   0.00000  Uiso   1.00
H554   H     0.00398   0.17138   0.63522   0.00000  Uiso   1.00
O555   O     0.32292   0.13021   0.88190   0.00000  Uiso   1.00
H556   H     0.32935   0.16195   0.86478   0.00000  Uiso   1.00
O557   O     0.22322   0.01733   0.78412   0.00000  Uiso   1.00
H558   H     0.24193   0.32685   0.79720   0.00000  Uiso   1.00
O559   O     0.11012   0.31600   0.71588   0.00000  Uiso   1.00
H560   H     0.09140   0.00649   0.70280   0.00000  Uiso   1.00
C561   C     0.51402   0.26652   0.75267   0.00000  Uiso   1.00
C562   C     0.48598   0.06682   0.74733   0.00000  Uiso   1.00
C563   C     0.42985   0.12680   0.53870   0.00000  Uiso   1.00
C564   C     0.57015   0.20653   0.96130   0.00000  Uiso   1.00
C565   C     0.38540   0.11325   0.51397   0.00000  Uiso   1.00
C566   C     0.61460   0.22008   0.98603   0.00000  Uiso   1.00
C567   C     0.51819   0.32200   0.75872   0.00000  Uiso   1.00
C568   C     0.48181   0.01133   0.74128   0.00000  Uiso   1.00
C569   C     0.46076   0.16320   0.83343   0.00000  Uiso   1.00
C570   C     0.53924   0.17013   0.66657   0.00000  Uiso   1.00
C571   C     0.43602   0.15841   0.88165   0.00000  Uiso   1.00
C572   C     0.56398   0.17493   0.61835   0.00000  Uiso   1.00
C573   C     0.35500   0.12314   0.94647   0.00000  Uiso   1.00
C574   C     0.64500   0.21019   0.55353   0.00000  Uiso   1.00
C575   C     0.37123   0.13805   0.90281   0.00000  Uiso   1.00
C576   C     0.62877   0.19528   0.59718   0.00000  Uiso   1.00
C577   C     0.48074   0.17029   0.90676   0.00000  Uiso   1.00
C578   C     0.51926   0.16304   0.59324   0.00000  Uiso   1.00
C579   C     0.46401   0.15965   0.95181   0.00000  Uiso   1.00
C580   C     0.53599   0.17368   0.54819   0.00000  Uiso   1.00
C581   C     0.40105   0.13160   0.97083   0.00000  Uiso   1.00
C582   C     0.59895   0.20174   0.52917   0.00000  Uiso   1.00
C583   C     0.50884   0.17466   0.97785   0.00000  Uiso   1.00
C584   C     0.49116   0.15867   0.52215   0.00000  Uiso   1.00
Cu585  Cu    0.44071   0.16108   0.74516   0.00000  Uiso   1.00
Cu586  Cu    0.55929   0.17225   0.75483   0.00000  Uiso   1.00
H587   H     0.47045   0.14750   0.61024   0.00000  Uiso   1.00
H588   H     0.52955   0.18584   0.88976   0.00000  Uiso   1.00
H589   H     0.63857   0.10644   0.96132   0.00000  Uiso   1.00
H590   H     0.36143   0.22689   0.53868   0.00000  Uiso   1.00
H591   H     0.41493   0.10980   0.57072   0.00000  Uiso   1.00
H592   H     0.58507   0.22354   0.92928   0.00000  Uiso   1.00
H593   H     0.33464   0.20478   0.78434   0.00000  Uiso   1.00
H594   H     0.66536   0.12855   0.71566   0.00000  Uiso   1.00
N595   N     0.64839   0.18068   0.76212   0.00000  Uiso   1.00
N596   N     0.35161   0.15265   0.73788   0.00000  Uiso   1.00
O597   O     0.46148   0.23809   0.74686   0.00000  Uiso   1.00
O598   O     0.53852   0.09524   0.75314   0.00000  Uiso   1.00
O599   O     0.56163   0.24753   0.75502   0.00000  Uiso   1.00
O600   O     0.43837   0.08580   0.74497   0.00000  Uiso   1.00
O601   O     0.42185   0.15930   0.80854   0.00000  Uiso   1.00
O602   O     0.57815   0.17403   0.69145   0.00000  Uiso   1.00
O603   O     0.52199   0.16874   0.81671   0.00000  Uiso   1.00
O604   O     0.47801   0.16460   0.68329   0.00000  Uiso   1.00
O605   O     0.66077   0.08135   0.53341   0.00000  Uiso   1.00
H606   H     0.64576   0.05784   0.51072   0.00000  Uiso   1.00
O607   O     0.33923   0.25198   0.96659   0.00000  Uiso   1.00
H608   H     0.35424   0.27550   0.98928   0.00000  Uiso   1.00
O609   O     0.34375   0.20312   0.61810   0.00000  Uiso   1.00
H610   H     0.33732   0.17138   0.63522   0.00000  Uiso   1.00
O611   O     0.65625   0.13021   0.88190   0.00000  Uiso   1.00
H612   H     0.66268   0.16195   0.86478   0.00000  Uiso   1.00
O613   O     0.55655   0.01733   0.78412   0.00000  Uiso   1.00
H614   H     0.57526   0.32685   0.79720   0.00000  Uiso   1.00
O615   O     0.44345   0.31600   0.71588   0.00000  Uiso   1.00
H616   H     0.42474   0.00649   0.70280   0.00000  Uiso   1.00
C617   C     0.84735   0.26652   0.75267   0.00000  Uiso   1.00
C618   C     0.81931   0.06682   0.74733   0.00000  Uiso   1.00
C619   C     0.76319   0.12680   0.53870   0.00000  Uiso   1.00
C620   C     0.90348   0.20653   0.96130   0.00000  Uiso   1.00
C621   C     0.71873   0.11325   0.51397   0.00000  Uiso   1.00
C622   C     0.94794   0.22008   0.98603   0.00000  Uiso   1.00
C623   C     0.85153   0.32200   0.75872   0.00000  Uiso   1.00
C624   C     0.81514   0.01133   0.74128   0.00000  Uiso   1.00
C625   C     0.79409   0.16320   0.83343   0.00000  Uiso   1.00
C626   C     0.87258   0.17013   0.66657   0.00000  Uiso   1.00
C627   C     0.76935   0.15841   0.88165   0.00000  Uiso   1.00
C628   C     0.89731   0.17493   0.61835   0.00000  Uiso   1.00
C629   C     0.68833   0.12314   0.94647   0.00000  Uiso   1.00
C630   C     0.97834   0.21019   0.55353   0.00000  Uiso   1.00
C631   C     0.70456   0.13805   0.90281   0.00000  Uiso   1.00
C632   C     0.96210   0.19528   0.59718   0.00000  Uiso   1.00
C633   C     0.81407   0.17029   0.90676   0.00000  Uiso   1.00
C634   C     0.85259   0.16304   0.59324   0.00000  Uiso   1.00
C635   C     0.79734   0.15965   0.95181   0.00000  Uiso   1.00
C636   C     0.86933   0.17368   0.54819   0.00000  Uiso   1.00
C637   C     0.73438   0.13160   0.97083   0.00000  Uiso   1.00
C638   C     0.93229   0.20174   0.52917   0.00000  Uiso   1.00
C639   C     0.84218   0.17466   0.97785   0.00000  Uiso   1.00
C640   C     0.82449   0.15867   0.52215   0.00000  Uiso   1.00
Cu641  Cu    0.77404   0.16108   0.74516   0.00000  Uiso   1.00
Cu642  Cu    0.89263   0.17225   0.75483   0.00000  Uiso   1.00
H643   H     0.80378   0.14750   0.61024   0.00000  Uiso   1.00
H644   H     0.86288   0.18584   0.88976   0.00000  Uiso   1.00
H645   H     0.97191   0.10644   0.96132   0.00000  Uiso   1.00
H646   H     0.69476   0.22689   0.53868   0.00000  Uiso   1.00
H647   H     0.74826   0.10980   0.57072   0.00000  Uiso   1.00
H648   H     0.91841   0.22354   0.92928   0.00000  Uiso   1.00
H649   H     0.66797   0.20478   0.78434   0.00000  Uiso   1.00
H650   H     0.99870   0.12855   0.71566   0.00000  Uiso   1.00
N651   N     0.98173   0.18068   0.76212   0.00000  Uiso   1.00
N652   N     0.68494   0.15265   0.73788   0.00000  Uiso   1.00
O653   O     0.79482   0.23809   0.74686   0.00000  Uiso   1.00
O654   O     0.87185   0.09524   0.75314   0.00000  Uiso   1.00
O655   O     0.89496   0.24753   0.75502   0.00000  Uiso   1.00
O656   O     0.77171   0.08580   0.74497   0.00000  Uiso   1.00
O657   O     0.75518   0.15930   0.80854   0.00000  Uiso   1.00
O658   O     0.91149   0.17403   0.69145   0.00000  Uiso   1.00
O659   O     0.85532   0.16874   0.81671   0.00000  Uiso   1.00
O660   O     0.81134   0.16460   0.68329   0.00000  Uiso   1.00
O661   O     0.99411   0.08135   0.53341   0.00000  Uiso   1.00
H662   H     0.97909   0.05784   0.51072   0.00000  Uiso   1.00
O663   O     0.67256   0.25198   0.96659   0.00000  Uiso   1.00
H664   H     0.68758   0.27550   0.98928   0.00000  Uiso   1.00
O665   O     0.67709   0.20312   0.61810   0.00000  Uiso   1.00
H666   H     0.67065   0.17138   0.63522   0.00000  Uiso   1.00
O667   O     0.98958   0.13021   0.88190   0.00000  Uiso   1.00
H668   H     0.99602   0.16195   0.86478   0.00000  Uiso   1.00
O669   O     0.88988   0.01733   0.78412   0.00000  Uiso   1.00
H670   H     0.90860   0.32685   0.79720   0.00000  Uiso   1.00
O671   O     0.77678   0.31600   0.71588   0.00000  Uiso   1.00
H672   H     0.75807   0.00649   0.70280   0.00000  Uiso   1.00
C673   C     0.18069   0.59985   0.75267   0.00000  Uiso   1.00
C674   C     0.15265   0.40015   0.74733   0.00000  Uiso   1.00
C675   C     0.09652   0.46013   0.53870   0.00000  Uiso   1.00
C676   C     0.23681   0.53987   0.96130   0.00000  Uiso   1.00
C677   C     0.05206   0.44659   0.51397   0.00000  Uiso   1.00
C678   C     0.28127   0.55342   0.98603   0.00000  Uiso   1.00
C679   C     0.18486   0.65534   0.75872   0.00000  Uiso   1.00
C680   C     0.14847   0.34466   0.74128   0.00000  Uiso   1.00
C681   C     0.12742   0.49654   0.83343   0.00000  Uiso   1.00
C682   C     0.20591   0.50346   0.66657   0.00000  Uiso   1.00
C683   C     0.10269   0.49174   0.88165   0.00000  Uiso   1.00
C684   C     0.23065   0.50826   0.61835   0.00000  Uiso   1.00
C685   C     0.02166   0.45648   0.94647   0.00000  Uiso   1.00
C686   C     0.31167   0.54352   0.55353   0.00000  Uiso   1.00
C687   C     0.03790   0.47138   0.90281   0.00000  Uiso   1.00
C688   C     0.29544   0.52862   0.59718   0.00000  Uiso   1.00
C689   C     0.14741   0.50363   0.90676   0.00000  Uiso   1.00
C690   C     0.18593   0.49637   0.59324   0.00000  Uiso   1.00
C691   C     0.13067   0.49298   0.95181   0.00000  Uiso   1.00
C692   C     0.20266   0.50702   0.54819   0.00000  Uiso   1.00
C693   C     0.06771   0.46493   0.97083   0.00000  Uiso   1.00
C694   C     0.26562   0.53507   0.52917   0.00000  Uiso   1.00
C695   C     0.17551   0.50799   0.97785   0.00000  Uiso   1.00
C696   C     0.15782   0.49201   0.52215   0.00000  Uiso   1.00
Cu697  Cu    0.10737   0.49441   0.74516   0.00000  Uiso   1.00
Cu698  Cu    0.22596   0.50559   0.75483   0.00000  Uiso   1.00
H699   H     0.13712   0.48083   0.61024   0.00000  Uiso   1.00
H700   H     0.19622   0.51917   0.88976   0.00000  Uiso   1.00
H701   H     0.30524   0.43978   0.96132   0.00000  Uiso   1.00
H702   H     0.02809   0.56022   0.53868   0.00000  Uiso   1.00
H703   H     0.08159   0.44313   0.57072   0.00000  Uiso   1.00
H704   H     0.25174   0.55687   0.92928   0.00000  Uiso   1.00
H705   H     0.00130   0.53811   0.78434   0.00000  Uiso   1.00
H706   H     0.33203   0.46189   0.71566   0.00000  Uiso   1.00
N707   N     0.31506   0.51401   0.76212   0.00000  Uiso   1.00
N708   N     0.01827   0.48599   0.73788   0.00000  Uiso   1.00
O709   O     0.12815   0.57142   0.74686   0.00000  Uiso   1.00
O710   O     0.20518   0.42858   0.75314   0.00000  Uiso   1.00
O711   O     0.22829   0.58086   0.75502   0.00000  Uiso   1.00
O712   O     0.10504   0.41914   0.74497   0.00000  Uiso   1.00
O713   O     0.08851   0.49263   0.80854   0.00000  Uiso   1.00
O714   O     0.24482   0.50737   0.69145   0.00000  Uiso   1.00
O715   O     0.18866   0.50207   0.81671   0.00000  Uiso   1.00
O716   O     0.14468   0.49793   0.68329   0.00000  Uiso   1.00
O717   O     0.32744   0.41469   0.53341   0.00000  Uiso   1.00
H718   H     0.31242   0.39117   0.51072   0.00000  Uiso   1.00
O719   O     0.00589   0.58531   0.96659   0.00000  Uiso   1.00
H720   H     0.02091   0.60883   0.98928   0.00000  Uiso   1.00
O721   O     0.01042   0.53646   0.61810   0.00000  Uiso   1.00
H722   H     0.00398   0.50471   0.63522   0.00000  Uiso   1.00
O723   O     0.32292   0.46354   0.88190   0.00000  Uiso   1.00
H724   H     0.32935   0.49529   0.86478   0.00000  Uiso   1.00
O725   O     0.22322   0.35066   0.78412   0.00000  Uiso   1.00
H726   H     0.24193   0.66018   0.79720   0.00000  Uiso   1.00
O727   O     0.11012   0.64934   0.71588   0.00000  Uiso   1.00
H728   H     0.09140   0.33982   0.70280   0.00000  Uiso   1.00
C729   C     0.51402   0.59985   0.75267   0.00000  Uiso   1.00
C730   C     0.48598   0.40015   0.74733   0.00000  Uiso   1.00
C731   C     0.42985   0.46013   0.53870   0.00000  Uiso   1.00
C732   C     0.57015   0.53987   0.96130   0.00000  Uiso   1.00
C733   C     0.38540   0.44659   0.51397   0.00000  Uiso   1.00
C734   C     0.61460   0.55342   0.98603   0.00000  Uiso   1.00
C735   C     0.51819   0.65534   0.75872   0.00000  Uiso   1.00
C736   C     0.48181   0.34466   0.74128   0.00000  Uiso   1.00
C737   C     0.46076   0.49654   0.83343   0.00000  Uiso   1.00
C738   C     0.53924   0.50346   0.66657   0.00000  Uiso   1.00
C739   C     0.43602   0.49174   0.88165   0.00000  Uiso   1.00
C740   C     0.56398   0.50826   0.61835   0.00000  Uiso   1.00
C741   C     0.35500   0.45648   0.94647   0.00000  Uiso   1.00
C742   C     0.64500   0.54352   0.55353   0.00000  Uiso   1.00
C743   C     0.37123   0.47138   0.90281   0.00000  Uiso   1.00
C744   C     0.62877   0.52862   0.59718   0.00000  Uiso   1.00
C745   C     0.48074   0.50363   0.90676   0.00000  Uiso   1.00
C746   C     0.51926   0.49637   0.59324   0.00000  Uiso   1.00
C747   C     0.46401   0.49298   0.95181   0.00000  Uiso   1.00
C748   C     0.53599   0.50702   0.54819   0.00000  Uiso   1.00
C749   C     0.40105   0.46493   0.97083   0.00000  Uiso   1.00
C750   C     0.59895   0.53507   0.52917   0.00000  Uiso   1.00
C751   C     0.50884   0.50799   0.97785   0.00000  Uiso   1.00
C752   C     0.49116   0.49201   0.52215   0.00000  Uiso   1.00
Cu753  Cu    0.44071   0.49441   0.74516   0.00000  Uiso   1.00
Cu754  Cu    0.55929   0.50559   0.75483   0.00000  Uiso   1.00
H755   H     0.47045   0.48083   0.61024   0.00000  Uiso   1.00
H756   H     0.52955   0.51917   0.88976   0.00000  Uiso   1.00
H757   H     0.63857   0.43978   0.96132   0.00000  Uiso   1.00
H758   H     0.36143   0.56022   0.53868   0.00000  Uiso   1.00
H759   H     0.41493   0.44313   0.57072   0.00000  Uiso   1.00
H760   H     0.58507   0.55687   0.92928   0.00000  Uiso   1.00
H761   H     0.33464   0.53811   0.78434   0.00000  Uiso   1.00
H762   H     0.66536   0.46189   0.71566   0.00000  Uiso   1.00
N763   N     0.64839   0.51401   0.76212   0.00000  Uiso   1.00
N764   N     0.35161   0.48599   0.73788   0.00000  Uiso   1.00
O765   O     0.46148   0.57142   0.74686   0.00000  Uiso   1.00
O766   O     0.53852   0.42858   0.75314   0.00000  Uiso   1.00
O767   O     0.56163   0.58086   0.75502   0.00000  Uiso   1.00
O768   O     0.43837   0.41914   0.74497   0.00000  Uiso   1.00
O769   O     0.42185   0.49263   0.80854   0.00000  Uiso   1.00
O770   O     0.57815   0.50737   0.69145   0.00000  Uiso   1.00
O771   O     0.52199   0.50207   0.81671   0.00000  Uiso   1.00
O772   O     0.47801   0.49793   0.68329   0.00000  Uiso   1.00
O773   O     0.66077   0.41469   0.53341   0.00000  Uiso   1.00
H774   H     0.64576   0.39117   0.51072   0.00000  Uiso   1.00
O775   O     0.33923   0.58531   0.96659   0.00000  Uiso   1.00
H776   H     0.35424   0.60883   0.98928   0.00000  Uiso   1.00
O777   O     0.34375   0.53646   0.61810   0.00000  Uiso   1.00
H778   H     0.33732   0.50471   0.63522   0.00000  Uiso   1.00
O779   O     0.65625   0.46354   0.88190   0.00000  Uiso   1.00
H780   H     0.66268   0.49529   0.86478   0.00000  Uiso   1.00
O781   O     0.55655   0.35066   0.78412   0.00000  Uiso   1.00
H782   H     0.57526   0.66018   0.79720   0.00000  Uiso   1.00
O783   O     0.44345   0.64934   0.71588   0.00000  Uiso   1.00
H784   H     0.42474   0.33982   0.70280   0.00000  Uiso   1.00
C785   C     0.84735   0.59985   0.75267   0.00000  Uiso   1.00
C786   C     0.81931   0.40015   0.74733   0.00000  Uiso   1.00
C787   C     0.76319   0.46013   0.53870   0.00000  Uiso   1.00
C788   C     0.90348   0.53987   0.96130   0.00000  Uiso   1.00
C789   C     0.71873   0.44659   0.51397   0.00000  Uiso   1.00
C790   C     0.94794   0.55342   0.98603   0.00000  Uiso   1.00
C791   C     0.85153   0.65534   0.75872   0.00000  Uiso   1.00
C792   C     0.81514   0.34466   0.74128   0.00000  Uiso   1.00
C793   C     0.79409   0.49654   0.83343   0.00000  Uiso   1.00
C794   C     0.87258   0.50346   0.66657   0.00000  Uiso   1.00
C795   C     0.76935   0.49174   0.88165   0.00000  Uiso   1.00
C796   C     0.89731   0.50826   0.61835   0.00000  Uiso   1.00
C797   C     0.68833   0.45648   0.94647   0.00000  Uiso   1.00
C798   C     0.97834   0.54352   0.55353   0.00000  Uiso   1.00
C799   C     0.70456   0.47138   0.90281   0.00000  Uiso   1.00
C800   C     0.96210   0.52862   0.59718   0.00000  Uiso   1.00
C801   C     0.81407   0.50363   0.90676   0.00000  Uiso   1.00
C802   C     0.85259   0.49637   0.59324   0.00000  Uiso   1.00
C803   C     0.79734   0.49298   0.95181   0.00000  Uiso   1.00
C804   C     0.86933   0.50702   0.54819   0.00000  Uiso   1.00
C805   C     0.73438   0.46493   0.97083   0.00000  Uiso   1.00
C806   C     0.93229   0.53507   0.52917   0.00000  Uiso   1.00
C807   C     0.84218   0.50799   0.97785   0.00000  Uiso   1.00
C808   C     0.82449   0.49201   0.52215   0.00000  Uiso   1.00
Cu809  Cu    0.77404   0.49441   0.74516   0.00000  Uiso   1.00
Cu810  Cu    0.89263   0.50559   0.75483   0.00000  Uiso   1.00
H811   H     0.80378   0.48083   0.61024   0.00000  Uiso   1.00
H812   H     0.86288   0.51917   0.88976   0.00000  Uiso   1.00
H813   H     0.97191   0.43978   0.96132   0.00000  Uiso   1.00
H814   H     0.69476   0.56022   0.53868   0.00000  Uiso   1.00
H815   H     0.74826   0.44313   0.57072   0.00000  Uiso   1.00
H816   H     0.91841   0.55687   0.92928   0.00000  Uiso   1.00
H817   H     0.66797   0.53811   0.78434   0.00000  Uiso   1.00
H818   H     0.99870   0.46189   0.71566   0.00000  Uiso   1.00
N819   N     0.98173   0.51401   0.76212   0.00000  Uiso   1.00
N820   N     0.68494   0.48599   0.73788   0.00000  Uiso   1.00
O821   O     0.79482   0.57142   0.74686   0.00000  Uiso   1.00
O822   O     0.87185   0.42858   0.75314   0.00000  Uiso   1.00
O823   O     0.89496   0.58086   0.75502   0.00000  Uiso   1.00
O824   O     0.77171   0.41914   0.74497   0.00000  Uiso   1.00
O825   O     0.75518   0.49263   0.80854   0.00000  Uiso   1.00
O826   O     0.91149   0.50737   0.69145   0.00000  Uiso   1.00
O827   O     0.85532   0.50207   0.81671   0.00000  Uiso   1.00
O828   O     0.81134   0.49793   0.68329   0.00000  Uiso   1.00
O829   O     0.99411   0.41469   0.53341   0.00000  Uiso   1.00
H830   H     0.97909   0.39117   0.51072   0.00000  Uiso   1.00
O831   O     0.67256   0.58531   0.96659   0.00000  Uiso   1.00
H832   H     0.68758   0.60883   0.98928   0.00000  Uiso   1.00
O833   O     0.67709   0.53646   0.61810   0.00000  Uiso   1.00
H834   H     0.67065   0.50471   0.63522   0.00000  Uiso   1.00
O835   O     0.98958   0.46354   0.88190   0.00000  Uiso   1.00
H836   H     0.99602   0.49529   0.86478   0.00000  Uiso   1.00
O837   O     0.88988   0.35066   0.78412   0.00000  Uiso   1.00
H838   H     0.90860   0.66018   0.79720   0.00000  Uiso   1.00
O839   O     0.77678   0.64934   0.71588   0.00000  Uiso   1.00
H840   H     0.75807   0.33982   0.70280   0.00000  Uiso   1.00
C841   C     0.18069   0.93318   0.75267   0.00000  Uiso   1.00
C842   C     0.15265   0.73348   0.74733   0.00000  Uiso   1.00
C843   C     0.09652   0.79347   0.53870   0.00000  Uiso   1.00
C844   C     0.23681   0.87320   0.96130   0.00000  Uiso   1.00
C845   C     0.05206   0.77992   0.51397   0.00000  Uiso   1.00
C846   C     0.28127   0.88675   0.98603   0.00000  Uiso   1.00
C847   C     0.18486   0.98867   0.75872   0.00000  Uiso   1.00
C848   C     0.14847   0.67800   0.74128   0.00000  Uiso   1.00
C849   C     0.12742   0.82987   0.83343   0.00000  Uiso   1.00
C850   C     0.20591   0.83680   0.66657   0.00000  Uiso   1.00
C851   C     0.10269   0.82507   0.88165   0.00000  Uiso   1.00
C852   C     0.23065   0.84159   0.61835   0.00000  Uiso   1.00
C853   C     0.02166   0.78981   0.94647   0.00000  Uiso   1.00
C854   C     0.31167   0.87686   0.55353   0.00000  Uiso   1.00
C855   C     0.03790   0.80472   0.90281   0.00000  Uiso   1.00
C856   C     0.29544   0.86195   0.59718   0.00000  Uiso   1.00
C857   C     0.14741   0.83696   0.90676   0.00000  Uiso   1.00
C858   C     0.18593   0.82971   0.59324   0.00000  Uiso   1.00
C859   C     0.13067   0.82632   0.95181   0.00000  Uiso   1.00
C860   C     0.20266   0.84035   0.54819   0.00000  Uiso   1.00
C861   C     0.06771   0.79826   0.97083   0.00000  Uiso   1.00
C862   C     0.26562   0.86840   0.52917   0.00000  Uiso   1.00
C863   C     0.17551   0.84133   0.97785   0.00000  Uiso   1.00
C864   C     0.15782   0.82534   0.52215   0.00000  Uiso   1.00
Cu865  Cu    0.10737   0.82775   0.74516   0.00000  Uiso   1.00
Cu866  Cu    0.22596   0.83892   0.75483   0.00000  Uiso   1.00
H867   H     0.13712   0.81416   0.61024   0.00000  Uiso   1.00
H868   H     0.19622   0.85250   0.88976   0.00000  Uiso   1.00
H869   H     0.30524   0.77311   0.96132   0.00000  Uiso   1.00
H870   H     0.02809   0.89356   0.53868   0.00000  Uiso   1.00
H871   H     0.08159   0.77646   0.57072   0.00000  Uiso   1.00
H872   H     0.25174   0.89020   0.92928   0.00000  Uiso   1.00
H873   H     0.00130   0.87145   0.78434   0.00000  Uiso   1.00
H874   H     0.33203   0.79522   0.71566   0.00000  Uiso   1.00
N875   N     0.31506   0.84735   0.76212   0.00000  Uiso   1.00
N876   N     0.01827   0.81932   0.73788   0.00000  Uiso   1.00
O877   O     0.12815   0.90476   0.74686   0.00000  Uiso   1.00
O878   O     0.20518   0.76191   0.75314   0.00000  Uiso   1.00
O879   O     0.22829   0.91420   0.75502   0.00000  Uiso   1.00
O880   O     0.10504   0.75247   0.74497   0.00000  Uiso   1.00
O881   O     0.08851   0.82597   0.80854   0.00000  Uiso   1.00
O882   O     0.24482   0.84070   0.69145   0.00000  Uiso   1.00
O883   O     0.18866   0.83540   0.81671   0.00000  Uiso   1.00
O884   O     0.14468   0.83126   0.68329   0.00000  Uiso   1.00
O885   O     0.32744   0.74802   0.53341   0.00000  Uiso   1.00
H886   H     0.31242   0.72450   0.51072   0.00000  Uiso   1.00
O887   O     0.00589   0.91865   0.96659   0.00000  Uiso   1.00
H888   H     0.02091   0.94217   0.98928   0.00000  Uiso   1.00
O889   O     0.01042   0.86979   0.61810   0.00000  Uiso   1.00
H890   H     0.00398   0.83805   0.63522   0.00000  Uiso   1.00
O891   O     0.32292   0.79688   0.88190   0.00000  Uiso   1.00
H892   H     0.32935   0.82862   0.86478   0.00000  Uiso   1.00
O893   O     0.22322   0.68400   0.78412   0.00000  Uiso   1.00
H894   H     0.24193   0.99352   0.79720   0.00000  Uiso   1.00
O895   O     0.11012   0.98267   0.71588   0.00000  Uiso   1.00
H896   H     0.09140   0.67315   0.70280   0.00000  Uiso   1.00
C897   C     0.51402   0.93318   0.75267   0.00000  Uiso   1.00
C898   C     0.48598   0.73348   0.74733   0.00000  Uiso   1.00
C899   C     0.42985   0.79347   0.53870   0.00000  Uiso   1.00
C900   C     0.57015   0.87320   0.96130   0.00000  Uiso   1.00
C901   C     0.38540   0.77992   0.51397   0.00000  Uiso   1.00
C902   C     0.61460   0.88675   0.98603   0.00000  Uiso   1.00
C903   C     0.51819   0.98867   0.75872   0.00000  Uiso   1.00
C904   C     0.48181   0.67800   0.74128   0.00000  Uiso   1.00
C905   C     0.46076   0.82987   0.83343   0.00000  Uiso   1.00
C906   C     0.53924   0.83680   0.66657   0.00000  Uiso   1.00
C907   C     0.43602   0.82507   0.88165   0.00000  Uiso   1.00
C908   C     0.56398   0.84159   0.61835   0.00000  Uiso   1.00
C909   C     0.35500   0.78981   0.94647   0.00000  Uiso   1.00
C910   C     0.64500   0.87686   0.55353   0.00000  Uiso   1.00
C911   C     0.37123   0.80472   0.90281   0.00000  Uiso   1.00
C912   C     0.62877   0.86195   0.59718   0.00000  Uiso   1.00
C913   C     0.48074   0.83696   0.90676   0.00000  Uiso   1.00
C914   C     0.51926   0.82971   0.59324   0.00000  Uiso   1.00
C915   C     0.46401   0.82632   0.95181   0.00000  Uiso   1.00
C916   C     0.53599   0.84035   0.54819   0.00000  Uiso   1.00
C917   C     0.40105   0.79826   0.97083   0.00000  Uiso   1.00
C918   C     0.59895   0.86840   0.52917   0.00000  Uiso   1.00
C919   C     0.50884   0.84133   0.97785   0.00000  Uiso   1.00
C920   C     0.49116   0.82534   0.52215   0.00000  Uiso   1.00
Cu921  Cu    0.44071   0.82775   0.74516   0.00000  Uiso   1.00
Cu922  Cu    0.55929   0.83892   0.75483   0.00000  Uiso   1.00
H923   H     0.47045   0.81416   0.61024   0.00000  Uiso   1.00
H924   H     0.52955   0.85250   0.88976   0.00000  Uiso   1.00
H925   H     0.63857   0.77311   0.96132   0.00000  Uiso   1.00
H926   H     0.36143   0.89356   0.53868   0.00000  Uiso   1.00
H927   H     0.41493   0.77646   0.57072   0.00000  Uiso   1.00
H928   H     0.58507   0.89020   0.92928   0.00000  Uiso   1.00
H929   H     0.33464   0.87145   0.78434   0.00000  Uiso   1.00
H930   H     0.66536   0.79522   0.71566   0.00000  Uiso   1.00
N931   N     0.64839   0.84735   0.76212   0.00000  Uiso   1.00
N932   N     0.35161   0.81932   0.73788   0.00000  Uiso   1.00
O933   O     0.46148   0.90476   0.74686   0.00000  Uiso   1.00
O934   O     0.53852   0.76191   0.75314   0.00000  Uiso   1.00
O935   O     0.56163   0.91420   0.75502   0.00000  Uiso   1.00
O936   O     0.43837   0.75247   0.74497   0.00000  Uiso   1.00
O937   O     0.42185   0.82597   0.80854   0.00000  Uiso   1.00
O938   O     0.57815   0.84070   0.69145   0.00000  Uiso   1.00
O939   O     0.52199   0.83540   0.81671   0.00000  Uiso   1.00
O940   O     0.47801   0.83126   0.68329   0.00000  Uiso   1.00
O941   O     0.66077   0.74802   0.53341   0.00000  Uiso   1.00
H942   H     0.64576   0.72450   0.51072   0.00000  Uiso   1.00
O943   O     0.33923   0.91865   0.96659   0.00000  Uiso   1.00
H944   H     0.35424   0.94217   0.98928   0.00000  Uiso   1.00
O945   O     0.34375   0.86979   0.61810   0.00000  Uiso   1.00
H946   H     0.33732   0.83805   0.63522   0.00000  Uiso   1.00
O947   O     0.65625   0.79688   0.88190   0.00000  Uiso   1.00
H948   H     0.66268   0.82862   0.86478   0.00000  Uiso   1.00
O949   O     0.55655   0.68400   0.78412   0.00000  Uiso   1.00
H950   H     0.57526   0.99352   0.79720   0.00000  Uiso   1.00
O951   O     0.44345   0.98267   0.71588   0.00000  Uiso   1.00
H952   H     0.42474   0.67315   0.70280   0.00000  Uiso   1.00
C953   C     0.84735   0.93318   0.75267   0.00000  Uiso   1.00
C954   C     0.81931   0.73348   0.74733   0.00000  Uiso   1.00
C955   C     0.76319   0.79347   0.53870   0.00000  Uiso   1.00
C956   C     0.90348   0.87320   0.96130   0.00000  Uiso   1.00
C957   C     0.71873   0.77992   0.51397   0.00000  Uiso   1.00
C958   C     0.94794   0.88675   0.98603   0.00000  Uiso   1.00
C959   C     0.85153   0.98867   0.75872   0.00000  Uiso   1.00
C960   C     0.81514   0.67800   0.74128   0.00000  Uiso   1.00
C961   C     0.79409   0.82987   0.83343   0.00000  Uiso   1.00
C962   C     0.87258   0.83680   0.66657   0.00000  Uiso   1.00
C963   C     0.76935   0.82507   0.88165   0.00000  Uiso   1.00
C964   C     0.89731   0.84159   0.61835   0.00000  Uiso   1.00
C965   C     0.68833   0.78981   0.94647   0.00000  Uiso   1.00
C966   C     0.97834   0.87686   0.55353   0.00000  Uiso   1.00
C967   C     0.70456   0.80472   0.90281   0.00000  Uiso   1.00
C968   C     0.96210   0.86195   0.59718   0.00000  Uiso   1.00
C969   C     0.81407   0.83696   0.90676   0.00000  Uiso   1.00
C970   C     0.85259   0.82971   0.59324   0.00000  Uiso   1.00
C971   C     0.79734   0.82632   0.95181   0.00000  Uiso   1.00
C972   C     0.86933   0.84035   0.54819   0.00000  Uiso   1.00
C973   C     0.73438   0.79826   0.97083   0.00000  Uiso   1.00
C974   C     0.93229   0.86840   0.52917   0.00000  Uiso   1.00
C975   C     0.84218   0.84133   0.97785   0.00000  Uiso   1.00
C976   C     0.82449   0.82534   0.52215   0.00000  Uiso   1.00
Cu977  Cu    0.77404   0.82775   0.74516   0.00000  Uiso   1.00
Cu978  Cu    0.89263   0.83892   0.75483   0.00000  Uiso   1.00
H979   H     0.80378   0.81416   0.61024   0.00000  Uiso   1.00
H980   H     0.86288   0.85250   0.88976   0.00000  Uiso   1.00
H981   H     0.97191   0.77311   0.96132   0.00000  Uiso   1.00
H982   H     0.69476   0.89356   0.53868   0.00000  Uiso   1.00
H983   H     0.74826   0.77646   0.57072   0.00000  Uiso   1.00
H984   H     0.91841   0.89020   0.92928   0.00000  Uiso   1.00
H985   H     0.66797   0.87145   0.78434   0.00000  Uiso   1.00
H986   H     0.99870   0.79522   0.71566   0.00000  Uiso   1.00
N987   N     0.98173   0.84735   0.76212   0.00000  Uiso   1.00
N988   N     0.68494   0.81932   0.73788   0.00000  Uiso   1.00
O989   O     0.79482   0.90476   0.74686   0.00000  Uiso   1.00
O990   O     0.87185   0.76191   0.75314   0.00000  Uiso   1.00
O991   O     0.89496   0.91420   0.75502   0.00000  Uiso   1.00
O992   O     0.77171   0.75247   0.74497   0.00000  Uiso   1.00
O993   O     0.75518   0.82597   0.80854   0.00000  Uiso   1.00
O994   O     0.91149   0.84070   0.69145   0.00000  Uiso   1.00
O995   O     0.85532   0.83540   0.81671   0.00000  Uiso   1.00
O996   O     0.81134   0.83126   0.68329   0.00000  Uiso   1.00
O997   O     0.99411   0.74802   0.53341   0.00000  Uiso   1.00
H998   H     0.97909   0.72450   0.51072   0.00000  Uiso   1.00
O999   O     0.67256   0.91865   0.96659   0.00000  Uiso   1.00
H1000  H     0.68758   0.94217   0.98928   0.00000  Uiso   1.00
O1001  O     0.67709   0.86979   0.61810   0.00000  Uiso   1.00
H1002  H     0.67065   0.83805   0.63522   0.00000  Uiso   1.00
O1003  O     0.98958   0.79688   0.88190   0.00000  Uiso   1.00
H1004  H     0.99602   0.82862   0.86478   0.00000  Uiso   1.00
O1005  O     0.88988   0.68400   0.78412   0.00000  Uiso   1.00
H1006  H     0.90860   0.99352   0.79720   0.00000  Uiso   1.00
O1007  O     0.77678   0.98267   0.71588   0.00000  Uiso   1.00
H1008  H     0.75807   0.67315   0.70280   0.00000  Uiso   1.00
loop_
_geom_bond_atom_site_label_1
_geom_bond_atom_site_label_2
_geom_bond_distance
_geom_bond_site_symmetry_2
_ccdc_geom_bond_type
C1     O37     1.287   .     A
C1     O39     1.287   .     A
C1     C7      1.440   .     S
C2     O38     1.287   .     A
C2     O40     1.287   .     A
C2     C8      1.440   .     S
C3     H31     1.076   .     S
C3     C24     1.415   .     A
C3     C5      1.389   .     A
C4     H32     1.076   .     S
C4     C6      1.389   .     A
C4     C23     1.415   .     A
C5     C525    1.410   1_554 S
C5     O157    1.381   1_455 S
C6     C526    1.410   .     S
C6     O103    1.381   .     S
C7     C176    1.347   .     S
C7     O221    1.389   .     S
C8     C343    1.347   1_545 S
C8     O391    1.389   1_545 S
C9     O41     1.301   .     A
C9     C11     1.483   .     S
C9     O43     1.300   .     A
C10    O42     1.301   .     A
C10    C12     1.483   .     S
C10    O44     1.300   .     A
C11    C15     1.414   .     A
C11    C17     1.401   .     A
C12    C18     1.401   .     A
C12    C16     1.414   .     A
C13    C21     1.409   .     A
C13    C15     1.394   .     A
C13    H141    1.082   1_455 S
C14    C22     1.409   .     A
C14    C16     1.394   .     A
C14    H86     1.082   .     S
C15    O163    1.376   1_455 S
C16    O105    1.376   .     S
C17    C19     1.407   .     A
C17    H28     1.074   .     S
C18    C20     1.407   .     A
C18    H27     1.074   .     S
C19    C23     1.429   .     A
C19    C21     1.419   .     A
C20    C22     1.419   .     A
C20    C24     1.429   .     A
C21    C509    1.410   .     S
C22    C510    1.410   1_554 S
C23    C528    1.420   .     S
C24    C527    1.420   1_554 S
Cu25   O37     1.970   .     S
Cu25   O41     1.940   .     S
Cu25   O40     1.964   .     S
Cu25   N36     2.015   .     S
Cu25   O44     1.913   .     S
Cu25   Cu26    2.682   .     S
Cu26   O42     1.940   .     S
Cu26   O43     1.913   .     S
Cu26   O39     1.964   .     S
Cu26   N35     2.015   .     S
Cu26   O38     1.970   .     S
H29    C69     1.082   .     S
H30    C126    1.082   1_455 S
H33    N147    1.029   1_455 S
H34    N92     1.029   .     S
N35    H89     1.029   .     S
N35    N92     1.281   .     S
N36    H146    1.029   1_455 S
N36    N147    1.281   1_455 S
O45    H46     0.989   .     S
O45    C61     1.381   .     S
O47    H48     0.989   .     S
O47    C118    1.381   1_455 S
O49    H50     0.990   .     S
O49    C128    1.376   1_455 S
O51    H52     0.990   .     S
O51    C71     1.376   .     S
O53    C343    1.389   1_545 S
O53    H390    0.991   1_545 S
H54    O221    0.991   .     S
O55    C176    1.389   .     S
O55    H224    0.991   .     S
H56    O391    0.991   1_545 S
C57    O93     1.287   .     A
C57    O95     1.287   .     A
C57    C63     1.440   .     S
C58    O94     1.287   .     A
C58    O96     1.287   .     A
C58    C64     1.440   .     S
C59    H87     1.076   .     S
C59    C80     1.415   .     A
C59    C61     1.389   .     A
C60    H88     1.076   .     S
C60    C62     1.389   .     A
C60    C79     1.415   .     A
C61    C581    1.410   1_554 S
C62    C582    1.410   .     S
C62    O159    1.381   .     S
C63    C232    1.347   .     S
C63    O277    1.389   .     S
C64    C399    1.347   1_545 S
C64    O447    1.389   1_545 S
C65    O97     1.301   .     A
C65    C67     1.483   .     S
C65    O99     1.300   .     A
C66    O98     1.301   .     A
C66    C68     1.483   .     S
C66    O100    1.300   .     A
C67    C71     1.414   .     A
C67    C73     1.401   .     A
C68    C74     1.401   .     A
C68    C72     1.414   .     A
C69    C77     1.409   .     A
C69    C71     1.394   .     A
C70    C78     1.409   .     A
C70    C72     1.394   .     A
C70    H142    1.082   .     S
C72    O161    1.376   .     S
C73    C75     1.407   .     A
C73    H84     1.074   .     S
C74    C76     1.407   .     A
C74    H83     1.074   .     S
C75    C79     1.429   .     A
C75    C77     1.419   .     A
C76    C78     1.419   .     A
C76    C80     1.429   .     A
C77    C565    1.410   .     S
C78    C566    1.410   1_554 S
C79    C584    1.420   .     S
C80    C583    1.420   1_554 S
Cu81   O93     1.970   .     S
Cu81   O97     1.940   .     S
Cu81   O96     1.964   .     S
Cu81   N92     2.015   .     S
Cu81   O100    1.913   .     S
Cu81   Cu82    2.682   .     S
Cu82   O98     1.940   .     S
Cu82   O99     1.913   .     S
Cu82   O95     1.964   .     S
Cu82   N91     2.015   .     S
Cu82   O94     1.970   .     S
H85    C125    1.082   .     S
H90    N148    1.029   .     S
N91    H145    1.029   .     S
N91    N148    1.281   .     S
O101   H102    0.989   .     S
O101   C117    1.381   .     S
O103   H104    0.989   .     S
O105   H106    0.990   .     S
O107   H108    0.990   .     S
O107   C127    1.376   .     S
O109   C399    1.389   1_545 S
O109   H446    0.991   1_545 S
H110   O277    0.991   .     S
O111   C232    1.389   .     S
O111   H280    0.991   .     S
H112   O447    0.991   1_545 S
C113   O149    1.287   .     A
C113   O151    1.287   .     A
C113   C119    1.440   .     S
C114   O150    1.287   .     A
C114   O152    1.287   .     A
C114   C120    1.440   .     S
C115   H143    1.076   .     S
C115   C136    1.415   .     A
C115   C117    1.389   .     A
C116   H144    1.076   .     S
C116   C118    1.389   .     A
C116   C135    1.415   .     A
C117   C637    1.410   1_554 S
C118   C638    1.410   .     S
C118   O47     1.381   1_655 S
C119   C288    1.347   .     S
C119   O333    1.389   .     S
C120   C455    1.347   1_545 S
C120   O503    1.389   1_545 S
C121   O153    1.301   .     A
C121   C123    1.483   .     S
C121   O155    1.300   .     A
C122   O154    1.301   .     A
C122   C124    1.483   .     S
C122   O156    1.300   .     A
C123   C127    1.414   .     A
C123   C129    1.401   .     A
C124   C130    1.401   .     A
C124   C128    1.414   .     A
C125   C133    1.409   .     A
C125   C127    1.394   .     A
C126   C134    1.409   .     A
C126   C128    1.394   .     A
C126   H30     1.082   1_655 S
C128   O49     1.376   1_655 S
C129   C131    1.407   .     A
C129   H140    1.074   .     S
C130   C132    1.407   .     A
C130   H139    1.074   .     S
C131   C135    1.429   .     A
C131   C133    1.419   .     A
C132   C134    1.419   .     A
C132   C136    1.429   .     A
C133   C621    1.410   .     S
C134   C622    1.410   1_554 S
C135   C640    1.420   .     S
C136   C639    1.420   1_554 S
Cu137  O149    1.970   .     S
Cu137  O153    1.940   .     S
Cu137  O152    1.964   .     S
Cu137  N148    2.015   .     S
Cu137  O156    1.913   .     S
Cu137  Cu138   2.682   .     S
Cu138  O154    1.940   .     S
Cu138  O155    1.913   .     S
Cu138  O151    1.964   .     S
Cu138  N147    2.015   .     S
Cu138  O150    1.970   .     S
H141   C13     1.082   1_655 S
H146   N36     1.029   1_655 S
N147   H33     1.029   1_655 S
N147   N36     1.281   1_655 S
O157   H158    0.989   .     S
O157   C5      1.381   1_655 S
O159   H160    0.989   .     S
O161   H162    0.990   .     S
O163   H164    0.990   .     S
O163   C15     1.376   1_655 S
O165   C455    1.389   1_545 S
O165   H502    0.991   1_545 S
H166   O333    0.991   .     S
O167   C288    1.389   .     S
O167   H336    0.991   .     S
H168   O503    0.991   1_545 S
C169   O205    1.287   .     A
C169   O207    1.287   .     A
C169   C175    1.440   .     S
C170   O206    1.287   .     A
C170   O208    1.287   .     A
C170   C176    1.440   .     S
C171   H199    1.076   .     S
C171   C192    1.415   .     A
C171   C173    1.389   .     A
C172   H200    1.076   .     S
C172   C174    1.389   .     A
C172   C191    1.415   .     A
C173   C693    1.410   1_554 S
C173   O325    1.381   1_455 S
C174   C694    1.410   .     S
C174   O271    1.381   .     S
C175   C344    1.347   .     S
C175   O389    1.389   .     S
C177   O209    1.301   .     A
C177   C179    1.483   .     S
C177   O211    1.300   .     A
C178   O210    1.301   .     A
C178   C180    1.483   .     S
C178   O212    1.300   .     A
C179   C183    1.414   .     A
C179   C185    1.401   .     A
C180   C186    1.401   .     A
C180   C184    1.414   .     A
C181   C189    1.409   .     A
C181   C183    1.394   .     A
C181   H309    1.082   1_455 S
C182   C190    1.409   .     A
C182   C184    1.394   .     A
C182   H254    1.082   .     S
C183   O331    1.376   1_455 S
C184   O273    1.376   .     S
C185   C187    1.407   .     A
C185   H196    1.074   .     S
C186   C188    1.407   .     A
C186   H195    1.074   .     S
C187   C191    1.429   .     A
C187   C189    1.419   .     A
C188   C190    1.419   .     A
C188   C192    1.429   .     A
C189   C677    1.410   .     S
C190   C678    1.410   1_554 S
C191   C696    1.420   .     S
C192   C695    1.420   1_554 S
Cu193  O205    1.970   .     S
Cu193  O209    1.940   .     S
Cu193  O208    1.964   .     S
Cu193  N204    2.015   .     S
Cu193  O212    1.913   .     S
Cu193  Cu194   2.682   .     S
Cu194  O210    1.940   .     S
Cu194  O211    1.913   .     S
Cu194  O207    1.964   .     S
Cu194  N203    2.015   .     S
Cu194  O206    1.970   .     S
H197   C237    1.082   .     S
H198   C294    1.082   1_455 S
H201   N315    1.029   1_455 S
H202   N260    1.029   .     S
N203   H257    1.029   .     S
N203   N260    1.281   .     S
N204   H314    1.029   1_455 S
N204   N315    1.281   1_455 S
O213   H214    0.989   .     S
O213   C229    1.381   .     S
O215   H216    0.989   .     S
O215   C286    1.381   1_455 S
O217   H218    0.990   .     S
O217   C296    1.376   1_455 S
O219   H220    0.990   .     S
O219   C239    1.376   .     S
H222   O389    0.991   .     S
O223   C344    1.389   .     S
O223   H392    0.991   .     S
C225   O261    1.287   .     A
C225   O263    1.287   .     A
C225   C231    1.440   .     S
C226   O262    1.287   .     A
C226   O264    1.287   .     A
C226   C232    1.440   .     S
C227   H255    1.076   .     S
C227   C248    1.415   .     A
C227   C229    1.389   .     A
C228   H256    1.076   .     S
C228   C230    1.389   .     A
C228   C247    1.415   .     A
C229   C749    1.410   1_554 S
C230   C750    1.410   .     S
C230   O327    1.381   .     S
C231   C400    1.347   .     S
C231   O445    1.389   .     S
C233   O265    1.301   .     A
C233   C235    1.483   .     S
C233   O267    1.300   .     A
C234   O266    1.301   .     A
C234   C236    1.483   .     S
C234   O268    1.300   .     A
C235   C239    1.414   .     A
C235   C241    1.401   .     A
C236   C242    1.401   .     A
C236   C240    1.414   .     A
C237   C245    1.409   .     A
C237   C239    1.394   .     A
C238   C246    1.409   .     A
C238   C240    1.394   .     A
C238   H310    1.082   .     S
C240   O329    1.376   .     S
C241   C243    1.407   .     A
C241   H252    1.074   .     S
C242   C244    1.407   .     A
C242   H251    1.074   .     S
C243   C247    1.429   .     A
C243   C245    1.419   .     A
C244   C246    1.419   .     A
C244   C248    1.429   .     A
C245   C733    1.410   .     S
C246   C734    1.410   1_554 S
C247   C752    1.420   .     S
C248   C751    1.420   1_554 S
Cu249  O261    1.970   .     S
Cu249  O265    1.940   .     S
Cu249  O264    1.964   .     S
Cu249  N260    2.015   .     S
Cu249  O268    1.913   .     S
Cu249  Cu250   2.682   .     S
Cu250  O266    1.940   .     S
Cu250  O267    1.913   .     S
Cu250  O263    1.964   .     S
Cu250  N259    2.015   .     S
Cu250  O262    1.970   .     S
H253   C293    1.082   .     S
H258   N316    1.029   .     S
N259   H313    1.029   .     S
N259   N316    1.281   .     S
O269   H270    0.989   .     S
O269   C285    1.381   .     S
O271   H272    0.989   .     S
O273   H274    0.990   .     S
O275   H276    0.990   .     S
O275   C295    1.376   .     S
H278   O445    0.991   .     S
O279   C400    1.389   .     S
O279   H448    0.991   .     S
C281   O317    1.287   .     A
C281   O319    1.287   .     A
C281   C287    1.440   .     S
C282   O318    1.287   .     A
C282   O320    1.287   .     A
C282   C288    1.440   .     S
C283   H311    1.076   .     S
C283   C304    1.415   .     A
C283   C285    1.389   .     A
C284   H312    1.076   .     S
C284   C286    1.389   .     A
C284   C303    1.415   .     A
C285   C805    1.410   1_554 S
C286   C806    1.410   .     S
C286   O215    1.381   1_655 S
C287   C456    1.347   .     S
C287   O501    1.389   .     S
C289   O321    1.301   .     A
C289   C291    1.483   .     S
C289   O323    1.300   .     A
C290   O322    1.301   .     A
C290   C292    1.483   .     S
C290   O324    1.300   .     A
C291   C295    1.414   .     A
C291   C297    1.401   .     A
C292   C298    1.401   .     A
C292   C296    1.414   .     A
C293   C301    1.409   .     A
C293   C295    1.394   .     A
C294   C302    1.409   .     A
C294   C296    1.394   .     A
C294   H198    1.082   1_655 S
C296   O217    1.376   1_655 S
C297   C299    1.407   .     A
C297   H308    1.074   .     S
C298   C300    1.407   .     A
C298   H307    1.074   .     S
C299   C303    1.429   .     A
C299   C301    1.419   .     A
C300   C302    1.419   .     A
C300   C304    1.429   .     A
C301   C789    1.410   .     S
C302   C790    1.410   1_554 S
C303   C808    1.420   .     S
C304   C807    1.420   1_554 S
Cu305  O317    1.970   .     S
Cu305  O321    1.940   .     S
Cu305  O320    1.964   .     S
Cu305  N316    2.015   .     S
Cu305  O324    1.913   .     S
Cu305  Cu306   2.682   .     S
Cu306  O322    1.940   .     S
Cu306  O323    1.913   .     S
Cu306  O319    1.964   .     S
Cu306  N315    2.015   .     S
Cu306  O318    1.970   .     S
H309   C181    1.082   1_655 S
H314   N204    1.029   1_655 S
N315   H201    1.029   1_655 S
N315   N204    1.281   1_655 S
O325   H326    0.989   .     S
O325   C173    1.381   1_655 S
O327   H328    0.989   .     S
O329   H330    0.990   .     S
O331   H332    0.990   .     S
O331   C183    1.376   1_655 S
H334   O501    0.991   .     S
O335   C456    1.389   .     S
O335   H504    0.991   .     S
C337   O373    1.287   .     A
C337   O375    1.287   .     A
C337   C343    1.440   .     S
C338   O374    1.287   .     A
C338   O376    1.287   .     A
C338   C344    1.440   .     S
C339   H367    1.076   .     S
C339   C360    1.415   .     A
C339   C341    1.389   .     A
C340   H368    1.076   .     S
C340   C342    1.389   .     A
C340   C359    1.415   .     A
C341   C861    1.410   1_554 S
C341   O493    1.381   1_455 S
C342   C862    1.410   .     S
C342   O439    1.381   .     S
C343   C8      1.347   1_565 S
C343   O53     1.389   1_565 S
C345   O377    1.301   .     A
C345   C347    1.483   .     S
C345   O379    1.300   .     A
C346   O378    1.301   .     A
C346   C348    1.483   .     S
C346   O380    1.300   .     A
C347   C351    1.414   .     A
C347   C353    1.401   .     A
C348   C354    1.401   .     A
C348   C352    1.414   .     A
C349   C357    1.409   .     A
C349   C351    1.394   .     A
C349   H477    1.082   1_455 S
C350   C358    1.409   .     A
C350   C352    1.394   .     A
C350   H422    1.082   .     S
C351   O499    1.376   1_455 S
C352   O441    1.376   .     S
C353   C355    1.407   .     A
C353   H364    1.074   .     S
C354   C356    1.407   .     A
C354   H363    1.074   .     S
C355   C359    1.429   .     A
C355   C357    1.419   .     A
C356   C358    1.419   .     A
C356   C360    1.429   .     A
C357   C845    1.410   .     S
C358   C846    1.410   1_554 S
C359   C864    1.420   .     S
C360   C863    1.420   1_554 S
Cu361  O373    1.970   .     S
Cu361  O377    1.940   .     S
Cu361  O376    1.964   .     S
Cu361  N372    2.015   .     S
Cu361  O380    1.913   .     S
Cu361  Cu362   2.682   .     S
Cu362  O378    1.940   .     S
Cu362  O379    1.913   .     S
Cu362  O375    1.964   .     S
Cu362  N371    2.015   .     S
Cu362  O374    1.970   .     S
H365   C405    1.082   .     S
H366   C462    1.082   1_455 S
H369   N483    1.029   1_455 S
H370   N428    1.029   .     S
N371   H425    1.029   .     S
N371   N428    1.281   .     S
N372   H482    1.029   1_455 S
N372   N483    1.281   1_455 S
O381   H382    0.989   .     S
O381   C397    1.381   .     S
O383   H384    0.989   .     S
O383   C454    1.381   1_455 S
O385   H386    0.990   .     S
O385   C464    1.376   1_455 S
O387   H388    0.990   .     S
O387   C407    1.376   .     S
H390   O53     0.991   1_565 S
O391   C8      1.389   1_565 S
O391   H56     0.991   1_565 S
C393   O429    1.287   .     A
C393   O431    1.287   .     A
C393   C399    1.440   .     S
C394   O430    1.287   .     A
C394   O432    1.287   .     A
C394   C400    1.440   .     S
C395   H423    1.076   .     S
C395   C416    1.415   .     A
C395   C397    1.389   .     A
C396   H424    1.076   .     S
C396   C398    1.389   .     A
C396   C415    1.415   .     A
C397   C917    1.410   1_554 S
C398   C918    1.410   .     S
C398   O495    1.381   .     S
C399   C64     1.347   1_565 S
C399   O109    1.389   1_565 S
C401   O433    1.301   .     A
C401   C403    1.483   .     S
C401   O435    1.300   .     A
C402   O434    1.301   .     A
C402   C404    1.483   .     S
C402   O436    1.300   .     A
C403   C407    1.414   .     A
C403   C409    1.401   .     A
C404   C410    1.401   .     A
C404   C408    1.414   .     A
C405   C413    1.409   .     A
C405   C407    1.394   .     A
C406   C414    1.409   .     A
C406   C408    1.394   .     A
C406   H478    1.082   .     S
C408   O497    1.376   .     S
C409   C411    1.407   .     A
C409   H420    1.074   .     S
C410   C412    1.407   .     A
C410   H419    1.074   .     S
C411   C415    1.429   .     A
C411   C413    1.419   .     A
C412   C414    1.419   .     A
C412   C416    1.429   .     A
C413   C901    1.410   .     S
C414   C902    1.410   1_554 S
C415   C920    1.420   .     S
C416   C919    1.420   1_554 S
Cu417  O429    1.970   .     S
Cu417  O433    1.940   .     S
Cu417  O432    1.964   .     S
Cu417  N428    2.015   .     S
Cu417  O436    1.913   .     S
Cu417  Cu418   2.682   .     S
Cu418  O434    1.940   .     S
Cu418  O435    1.913   .     S
Cu418  O431    1.964   .     S
Cu418  N427    2.015   .     S
Cu418  O430    1.970   .     S
H421   C461    1.082   .     S
H426   N484    1.029   .     S
N427   H481    1.029   .     S
N427   N484    1.281   .     S
O437   H438    0.989   .     S
O437   C453    1.381   .     S
O439   H440    0.989   .     S
O441   H442    0.990   .     S
O443   H444    0.990   .     S
O443   C463    1.376   .     S
H446   O109    0.991   1_565 S
O447   C64     1.389   1_565 S
O447   H112    0.991   1_565 S
C449   O485    1.287   .     A
C449   O487    1.287   .     A
C449   C455    1.440   .     S
C450   O486    1.287   .     A
C450   O488    1.287   .     A
C450   C456    1.440   .     S
C451   H479    1.076   .     S
C451   C472    1.415   .     A
C451   C453    1.389   .     A
C452   H480    1.076   .     S
C452   C454    1.389   .     A
C452   C471    1.415   .     A
C453   C973    1.410   1_554 S
C454   C974    1.410   .     S
C454   O383    1.381   1_655 S
C455   C120    1.347   1_565 S
C455   O165    1.389   1_565 S
C457   O489    1.301   .     A
C457   C459    1.483   .     S
C457   O491    1.300   .     A
C458   O490    1.301   .     A
C458   C460    1.483   .     S
C458   O492    1.300   .     A
C459   C463    1.414   .     A
C459   C465    1.401   .     A
C460   C466    1.401   .     A
C460   C464    1.414   .     A
C461   C469    1.409   .     A
C461   C463    1.394   .     A
C462   C470    1.409   .     A
C462   C464    1.394   .     A
C462   H366    1.082   1_655 S
C464   O385    1.376   1_655 S
C465   C467    1.407   .     A
C465   H476    1.074   .     S
C466   C468    1.407   .     A
C466   H475    1.074   .     S
C467   C471    1.429   .     A
C467   C469    1.419   .     A
C468   C470    1.419   .     A
C468   C472    1.429   .     A
C469   C957    1.410   .     S
C470   C958    1.410   1_554 S
C471   C976    1.420   .     S
C472   C975    1.420   1_554 S
Cu473  O485    1.970   .     S
Cu473  O489    1.940   .     S
Cu473  O488    1.964   .     S
Cu473  N484    2.015   .     S
Cu473  O492    1.913   .     S
Cu473  Cu474   2.682   .     S
Cu474  O490    1.940   .     S
Cu474  O491    1.913   .     S
Cu474  O487    1.964   .     S
Cu474  N483    2.015   .     S
Cu474  O486    1.970   .     S
H477   C349    1.082   1_655 S
H482   N372    1.029   1_655 S
N483   H369    1.029   1_655 S
N483   N372    1.281   1_655 S
O493   H494    0.989   .     S
O493   C341    1.381   1_655 S
O495   H496    0.989   .     S
O497   H498    0.990   .     S
O499   H500    0.990   .     S
O499   C351    1.376   1_655 S
H502   O165    0.991   1_565 S
O503   C120    1.389   1_565 S
O503   H168    0.991   1_565 S
C505   O541    1.287   .     A
C505   O543    1.287   .     A
C505   C511    1.440   .     S
C506   O542    1.287   .     A
C506   O544    1.287   .     A
C506   C512    1.440   .     S
C507   H535    1.076   .     S
C507   C528    1.415   .     A
C507   C509    1.389   .     A
C508   H536    1.076   .     S
C508   C510    1.389   .     A
C508   C527    1.415   .     A
C509   O661    1.381   1_455 S
C510   C22     1.410   1_556 S
C510   O607    1.381   .     S
C511   C680    1.347   .     S
C511   O725    1.389   .     S
C512   C847    1.347   1_545 S
C512   O895    1.389   1_545 S
C513   O545    1.301   .     A
C513   C515    1.483   .     S
C513   O547    1.300   .     A
C514   O546    1.301   .     A
C514   C516    1.483   .     S
C514   O548    1.300   .     A
C515   C519    1.414   .     A
C515   C521    1.401   .     A
C516   C522    1.401   .     A
C516   C520    1.414   .     A
C517   C525    1.409   .     A
C517   C519    1.394   .     A
C517   H645    1.082   1_455 S
C518   C526    1.409   .     A
C518   C520    1.394   .     A
C518   H590    1.082   .     S
C519   O667    1.376   1_455 S
C520   O609    1.376   .     S
C521   C523    1.407   .     A
C521   H532    1.074   .     S
C522   C524    1.407   .     A
C522   H531    1.074   .     S
C523   C527    1.429   .     A
C523   C525    1.419   .     A
C524   C526    1.419   .     A
C524   C528    1.429   .     A
C525   C5      1.410   1_556 S
C527   C24     1.420   1_556 S
Cu529  O541    1.970   .     S
Cu529  O545    1.940   .     S
Cu529  O544    1.964   .     S
Cu529  N540    2.015   .     S
Cu529  O548    1.913   .     S
Cu529  Cu530   2.682   .     S
Cu530  O546    1.940   .     S
Cu530  O547    1.913   .     S
Cu530  O543    1.964   .     S
Cu530  N539    2.015   .     S
Cu530  O542    1.970   .     S
H533   C573    1.082   .     S
H534   C630    1.082   1_455 S
H537   N651    1.029   1_455 S
H538   N596    1.029   .     S
N539   H593    1.029   .     S
N539   N596    1.281   .     S
N540   H650    1.029   1_455 S
N540   N651    1.281   1_455 S
O549   H550    0.989   .     S
O549   C565    1.381   .     S
O551   H552    0.989   .     S
O551   C622    1.381   1_455 S
O553   H554    0.990   .     S
O553   C632    1.376   1_455 S
O555   H556    0.990   .     S
O555   C575    1.376   .     S
O557   C847    1.389   1_545 S
O557   H894    0.991   1_545 S
H558   O725    0.991   .     S
O559   C680    1.389   .     S
O559   H728    0.991   .     S
H560   O895    0.991   1_545 S
C561   O597    1.287   .     A
C561   O599    1.287   .     A
C561   C567    1.440   .     S
C562   O598    1.287   .     A
C562   O600    1.287   .     A
C562   C568    1.440   .     S
C563   H591    1.076   .     S
C563   C584    1.415   .     A
C563   C565    1.389   .     A
C564   H592    1.076   .     S
C564   C566    1.389   .     A
C564   C583    1.415   .     A
C566   C78     1.410   1_556 S
C566   O663    1.381   .     S
C567   C736    1.347   .     S
C567   O781    1.389   .     S
C568   C903    1.347   1_545 S
C568   O951    1.389   1_545 S
C569   O601    1.301   .     A
C569   C571    1.483   .     S
C569   O603    1.300   .     A
C570   O602    1.301   .     A
C570   C572    1.483   .     S
C570   O604    1.300   .     A
C571   C575    1.414   .     A
C571   C577    1.401   .     A
C572   C578    1.401   .     A
C572   C576    1.414   .     A
C573   C581    1.409   .     A
C573   C575    1.394   .     A
C574   C582    1.409   .     A
C574   C576    1.394   .     A
C574   H646    1.082   .     S
C576   O665    1.376   .     S
C577   C579    1.407   .     A
C577   H588    1.074   .     S
C578   C580    1.407   .     A
C578   H587    1.074   .     S
C579   C583    1.429   .     A
C579   C581    1.419   .     A
C580   C582    1.419   .     A
C580   C584    1.429   .     A
C581   C61     1.410   1_556 S
C583   C80     1.420   1_556 S
Cu585  O597    1.970   .     S
Cu585  O601    1.940   .     S
Cu585  O600    1.964   .     S
Cu585  N596    2.015   .     S
Cu585  O604    1.913   .     S
Cu585  Cu586   2.682   .     S
Cu586  O602    1.940   .     S
Cu586  O603    1.913   .     S
Cu586  O599    1.964   .     S
Cu586  N595    2.015   .     S
Cu586  O598    1.970   .     S
H589   C629    1.082   .     S
H594   N652    1.029   .     S
N595   H649    1.029   .     S
N595   N652    1.281   .     S
O605   H606    0.989   .     S
O605   C621    1.381   .     S
O607   H608    0.989   .     S
O609   H610    0.990   .     S
O611   H612    0.990   .     S
O611   C631    1.376   .     S
O613   C903    1.389   1_545 S
O613   H950    0.991   1_545 S
H614   O781    0.991   .     S
O615   C736    1.389   .     S
O615   H784    0.991   .     S
H616   O951    0.991   1_545 S
C617   O653    1.287   .     A
C617   O655    1.287   .     A
C617   C623    1.440   .     S
C618   O654    1.287   .     A
C618   O656    1.287   .     A
C618   C624    1.440   .     S
C619   H647    1.076   .     S
C619   C640    1.415   .     A
C619   C621    1.389   .     A
C620   H648    1.076   .     S
C620   C622    1.389   .     A
C620   C639    1.415   .     A
C622   C134    1.410   1_556 S
C622   O551    1.381   1_655 S
C623   C792    1.347   .     S
C623   O837    1.389   .     S
C624   C959    1.347   1_545 S
C624   O1007   1.389   1_545 S
C625   O657    1.301   .     A
C625   C627    1.483   .     S
C625   O659    1.300   .     A
C626   O658    1.301   .     A
C626   C628    1.483   .     S
C626   O660    1.300   .     A
C627   C631    1.414   .     A
C627   C633    1.401   .     A
C628   C634    1.401   .     A
C628   C632    1.414   .     A
C629   C637    1.409   .     A
C629   C631    1.394   .     A
C630   C638    1.409   .     A
C630   C632    1.394   .     A
C630   H534    1.082   1_655 S
C632   O553    1.376   1_655 S
C633   C635    1.407   .     A
C633   H644    1.074   .     S
C634   C636    1.407   .     A
C634   H643    1.074   .     S
C635   C639    1.429   .     A
C635   C637    1.419   .     A
C636   C638    1.419   .     A
C636   C640    1.429   .     A
C637   C117    1.410   1_556 S
C639   C136    1.420   1_556 S
Cu641  O653    1.970   .     S
Cu641  O657    1.940   .     S
Cu641  O656    1.964   .     S
Cu641  N652    2.015   .     S
Cu641  O660    1.913   .     S
Cu641  Cu642   2.682   .     S
Cu642  O658    1.940   .     S
Cu642  O659    1.913   .     S
Cu642  O655    1.964   .     S
Cu642  N651    2.015   .     S
Cu642  O654    1.970   .     S
H645   C517    1.082   1_655 S
H650   N540    1.029   1_655 S
N651   H537    1.029   1_655 S
N651   N540    1.281   1_655 S
O661   H662    0.989   .     S
O661   C509    1.381   1_655 S
O663   H664    0.989   .     S
O665   H666    0.990   .     S
O667   H668    0.990   .     S
O667   C519    1.376   1_655 S
O669   C959    1.389   1_545 S
O669   H1006   0.991   1_545 S
H670   O837    0.991   .     S
O671   C792    1.389   .     S
O671   H840    0.991   .     S
H672   O1007   0.991   1_545 S
C673   O709    1.287   .     A
C673   O711    1.287   .     A
C673   C679    1.440   .     S
C674   O710    1.287   .     A
C674   O712    1.287   .     A
C674   C680    1.440   .     S
C675   H703    1.076   .     S
C675   C696    1.415   .     A
C675   C677    1.389   .     A
C676   H704    1.076   .     S
C676   C678    1.389   .     A
C676   C695    1.415   .     A
C677   O829    1.381   1_455 S
C678   C190    1.410   1_556 S
C678   O775    1.381   .     S
C679   C848    1.347   .     S
C679   O893    1.389   .     S
C681   O713    1.301   .     A
C681   C683    1.483   .     S
C681   O715    1.300   .     A
C682   O714    1.301   .     A
C682   C684    1.483   .     S
C682   O716    1.300   .     A
C683   C687    1.414   .     A
C683   C689    1.401   .     A
C684   C690    1.401   .     A
C684   C688    1.414   .     A
C685   C693    1.409   .     A
C685   C687    1.394   .     A
C685   H813    1.082   1_455 S
C686   C694    1.409   .     A
C686   C688    1.394   .     A
C686   H758    1.082   .     S
C687   O835    1.376   1_455 S
C688   O777    1.376   .     S
C689   C691    1.407   .     A
C689   H700    1.074   .     S
C690   C692    1.407   .     A
C690   H699    1.074   .     S
C691   C695    1.429   .     A
C691   C693    1.419   .     A
C692   C694    1.419   .     A
C692   C696    1.429   .     A
C693   C173    1.410   1_556 S
C695   C192    1.420   1_556 S
Cu697  O709    1.970   .     S
Cu697  O713    1.940   .     S
Cu697  O712    1.964   .     S
Cu697  N708    2.015   .     S
Cu697  O716    1.913   .     S
Cu697  Cu698   2.682   .     S
Cu698  O714    1.940   .     S
Cu698  O715    1.913   .     S
Cu698  O711    1.964   .     S
Cu698  N707    2.015   .     S
Cu698  O710    1.970   .     S
H701   C741    1.082   .     S
H702   C798    1.082   1_455 S
H705   N819    1.029   1_455 S
H706   N764    1.029   .     S
N707   H761    1.029   .     S
N707   N764    1.281   .     S
N708   H818    1.029   1_455 S
N708   N819    1.281   1_455 S
O717   H718    0.989   .     S
O717   C733    1.381   .     S
O719   H720    0.989   .     S
O719   C790    1.381   1_455 S
O721   H722    0.990   .     S
O721   C800    1.376   1_455 S
O723   H724    0.990   .     S
O723   C743    1.376   .     S
H726   O893    0.991   .     S
O727   C848    1.389   .     S
O727   H896    0.991   .     S
C729   O765    1.287   .     A
C729   O767    1.287   .     A
C729   C735    1.440   .     S
C730   O766    1.287   .     A
C730   O768    1.287   .     A
C730   C736    1.440   .     S
C731   H759    1.076   .     S
C731   C752    1.415   .     A
C731   C733    1.389   .     A
C732   H760    1.076   .     S
C732   C734    1.389   .     A
C732   C751    1.415   .     A
C734   C246    1.410   1_556 S
C734   O831    1.381   .     S
C735   C904    1.347   .     S
C735   O949    1.389   .     S
C737   O769    1.301   .     A
C737   C739    1.483   .     S
C737   O771    1.300   .     A
C738   O770    1.301   .     A
C738   C740    1.483   .     S
C738   O772    1.300   .     A
C739   C743    1.414   .     A
C739   C745    1.401   .     A
C740   C746    1.401   .     A
C740   C744    1.414   .     A
C741   C749    1.409   .     A
C741   C743    1.394   .     A
C742   C750    1.409   .     A
C742   C744    1.394   .     A
C742   H814    1.082   .     S
C744   O833    1.376   .     S
C745   C747    1.407   .     A
C745   H756    1.074   .     S
C746   C748    1.407   .     A
C746   H755    1.074   .     S
C747   C751    1.429   .     A
C747   C749    1.419   .     A
C748   C750    1.419   .     A
C748   C752    1.429   .     A
C749   C229    1.410   1_556 S
C751   C248    1.420   1_556 S
Cu753  O765    1.970   .     S
Cu753  O769    1.940   .     S
Cu753  O768    1.964   .     S
Cu753  N764    2.015   .     S
Cu753  O772    1.913   .     S
Cu753  Cu754   2.682   .     S
Cu754  O770    1.940   .     S
Cu754  O771    1.913   .     S
Cu754  O767    1.964   .     S
Cu754  N763    2.015   .     S
Cu754  O766    1.970   .     S
H757   C797    1.082   .     S
H762   N820    1.029   .     S
N763   H817    1.029   .     S
N763   N820    1.281   .     S
O773   H774    0.989   .     S
O773   C789    1.381   .     S
O775   H776    0.989   .     S
O777   H778    0.990   .     S
O779   H780    0.990   .     S
O779   C799    1.376   .     S
H782   O949    0.991   .     S
O783   C904    1.389   .     S
O783   H952    0.991   .     S
C785   O821    1.287   .     A
C785   O823    1.287   .     A
C785   C791    1.440   .     S
C786   O822    1.287   .     A
C786   O824    1.287   .     A
C786   C792    1.440   .     S
C787   H815    1.076   .     S
C787   C808    1.415   .     A
C787   C789    1.389   .     A
C788   H816    1.076   .     S
C788   C790    1.389   .     A
C788   C807    1.415   .     A
C790   C302    1.410   1_556 S
C790   O719    1.381   1_655 S
C791   C960    1.347   .     S
C791   O1005   1.389   .     S
C793   O825    1.301   .     A
C793   C795    1.483   .     S
C793   O827    1.300   .     A
C794   O826    1.301   .     A
C794   C796    1.483   .     S
C794   O828    1.300   .     A
C795   C799    1.414   .     A
C795   C801    1.401   .     A
C796   C802    1.401   .     A
C796   C800    1.414   .     A
C797   C805    1.409   .     A
C797   C799    1.394   .     A
C798   C806    1.409   .     A
C798   C800    1.394   .     A
C798   H702    1.082   1_655 S
C800   O721    1.376   1_655 S
C801   C803    1.407   .     A
C801   H812    1.074   .     S
C802   C804    1.407   .     A
C802   H811    1.074   .     S
C803   C807    1.429   .     A
C803   C805    1.419   .     A
C804   C806    1.419   .     A
C804   C808    1.429   .     A
C805   C285    1.410   1_556 S
C807   C304    1.420   1_556 S
Cu809  O821    1.970   .     S
Cu809  O825    1.940   .     S
Cu809  O824    1.964   .     S
Cu809  N820    2.015   .     S
Cu809  O828    1.913   .     S
Cu809  Cu810   2.682   .     S
Cu810  O826    1.940   .     S
Cu810  O827    1.913   .     S
Cu810  O823    1.964   .     S
Cu810  N819    2.015   .     S
Cu810  O822    1.970   .     S
H813   C685    1.082   1_655 S
H818   N708    1.029   1_655 S
N819   H705    1.029   1_655 S
N819   N708    1.281   1_655 S
O829   H830    0.989   .     S
O829   C677    1.381   1_655 S
O831   H832    0.989   .     S
O833   H834    0.990   .     S
O835   H836    0.990   .     S
O835   C687    1.376   1_655 S
H838   O1005   0.991   .     S
O839   C960    1.389   .     S
O839   H1008   0.991   .     S
C841   O877    1.287   .     A
C841   O879    1.287   .     A
C841   C847    1.440   .     S
C842   O878    1.287   .     A
C842   O880    1.287   .     A
C842   C848    1.440   .     S
C843   H871    1.076   .     S
C843   C864    1.415   .     A
C843   C845    1.389   .     A
C844   H872    1.076   .     S
C844   C846    1.389   .     A
C844   C863    1.415   .     A
C845   O997    1.381   1_455 S
C846   C358    1.410   1_556 S
C846   O943    1.381   .     S
C847   C512    1.347   1_565 S
C847   O557    1.389   1_565 S
C849   O881    1.301   .     A
C849   C851    1.483   .     S
C849   O883    1.300   .     A
C850   O882    1.301   .     A
C850   C852    1.483   .     S
C850   O884    1.300   .     A
C851   C855    1.414   .     A
C851   C857    1.401   .     A
C852   C858    1.401   .     A
C852   C856    1.414   .     A
C853   C861    1.409   .     A
C853   C855    1.394   .     A
C853   H981    1.082   1_455 S
C854   C862    1.409   .     A
C854   C856    1.394   .     A
C854   H926    1.082   .     S
C855   O1003   1.376   1_455 S
C856   O945    1.376   .     S
C857   C859    1.407   .     A
C857   H868    1.074   .     S
C858   C860    1.407   .     A
C858   H867    1.074   .     S
C859   C863    1.429   .     A
C859   C861    1.419   .     A
C860   C862    1.419   .     A
C860   C864    1.429   .     A
C861   C341    1.410   1_556 S
C863   C360    1.420   1_556 S
Cu865  O877    1.970   .     S
Cu865  O881    1.940   .     S
Cu865  O880    1.964   .     S
Cu865  N876    2.015   .     S
Cu865  O884    1.913   .     S
Cu865  Cu866   2.682   .     S
Cu866  O882    1.940   .     S
Cu866  O883    1.913   .     S
Cu866  O879    1.964   .     S
Cu866  N875    2.015   .     S
Cu866  O878    1.970   .     S
H869   C909    1.082   .     S
H870   C966    1.082   1_455 S
H873   N987    1.029   1_455 S
H874   N932    1.029   .     S
N875   H929    1.029   .     S
N875   N932    1.281   .     S
N876   H986    1.029   1_455 S
N876   N987    1.281   1_455 S
O885   H886    0.989   .     S
O885   C901    1.381   .     S
O887   H888    0.989   .     S
O887   C958    1.381   1_455 S
O889   H890    0.990   .     S
O889   C968    1.376   1_455 S
O891   H892    0.990   .     S
O891   C911    1.376   .     S
H894   O557    0.991   1_565 S
O895   C512    1.389   1_565 S
O895   H560    0.991   1_565 S
C897   O933    1.287   .     A
C897   O935    1.287   .     A
C897   C903    1.440   .     S
C898   O934    1.287   .     A
C898   O936    1.287   .     A
C898   C904    1.440   .     S
C899   H927    1.076   .     S
C899   C920    1.415   .     A
C899   C901    1.389   .     A
C900   H928    1.076   .     S
C900   C902    1.389   .     A
C900   C919    1.415   .     A
C902   C414    1.410   1_556 S
C902   O999    1.381   .     S
C903   C568    1.347   1_565 S
C903   O613    1.389   1_565 S
C905   O937    1.301   .     A
C905   C907    1.483   .     S
C905   O939    1.300   .     A
C906   O938    1.301   .     A
C906   C908    1.483   .     S
C906   O940    1.300   .     A
C907   C911    1.414   .     A
C907   C913    1.401   .     A
C908   C914    1.401   .     A
C908   C912    1.414   .     A
C909   C917    1.409   .     A
C909   C911    1.394   .     A
C910   C918    1.409   .     A
C910   C912    1.394   .     A
C910   H982    1.082   .     S
C912   O1001   1.376   .     S
C913   C915    1.407   .     A
C913   H924    1.074   .     S
C914   C916    1.407   .     A
C914   H923    1.074   .     S
C915   C919    1.429   .     A
C915   C917    1.419   .     A
C916   C918    1.419   .     A
C916   C920    1.429   .     A
C917   C397    1.410   1_556 S
C919   C416    1.420   1_556 S
Cu921  O933    1.970   .     S
Cu921  O937    1.940   .     S
Cu921  O936    1.964   .     S
Cu921  N932    2.015   .     S
Cu921  O940    1.913   .     S
Cu921  Cu922   2.682   .     S
Cu922  O938    1.940   .     S
Cu922  O939    1.913   .     S
Cu922  O935    1.964   .     S
Cu922  N931    2.015   .     S
Cu922  O934    1.970   .     S
H925   C965    1.082   .     S
H930   N988    1.029   .     S
N931   H985    1.029   .     S
N931   N988    1.281   .     S
O941   H942    0.989   .     S
O941   C957    1.381   .     S
O943   H944    0.989   .     S
O945   H946    0.990   .     S
O947   H948    0.990   .     S
O947   C967    1.376   .     S
H950   O613    0.991   1_565 S
O951   C568    1.389   1_565 S
O951   H616    0.991   1_565 S
C953   O989    1.287   .     A
C953   O991    1.287   .     A
C953   C959    1.440   .     S
C954   O990    1.287   .     A
C954   O992    1.287   .     A
C954   C960    1.440   .     S
C955   H983    1.076   .     S
C955   C976    1.415   .     A
C955   C957    1.389   .     A
C956   H984    1.076   .     S
C956   C958    1.389   .     A
C956   C975    1.415   .     A
C958   C470    1.410   1_556 S
C958   O887    1.381   1_655 S
C959   C624    1.347   1_565 S
C959   O669    1.389   1_565 S
C961   O993    1.301   .     A
C961   C963    1.483   .     S
C961   O995    1.300   .     A
C962   O994    1.301   .     A
C962   C964    1.483   .     S
C962   O996    1.300   .     A
C963   C967    1.414   .     A
C963   C969    1.401   .     A
C964   C970    1.401   .     A
C964   C968    1.414   .     A
C965   C973    1.409   .     A
C965   C967    1.394   .     A
C966   C974    1.409   .     A
C966   C968    1.394   .     A
C966   H870    1.082   1_655 S
C968   O889    1.376   1_655 S
C969   C971    1.407   .     A
C969   H980    1.074   .     S
C970   C972    1.407   .     A
C970   H979    1.074   .     S
C971   C975    1.429   .     A
C971   C973    1.419   .     A
C972   C974    1.419   .     A
C972   C976    1.429   .     A
C973   C453    1.410   1_556 S
C975   C472    1.420   1_556 S
Cu977  O989    1.970   .     S
Cu977  O993    1.940   .     S
Cu977  O992    1.964   .     S
Cu977  N988    2.015   .     S
Cu977  O996    1.913   .     S
Cu977  Cu978   2.682   .     S
Cu978  O994    1.940   .     S
Cu978  O995    1.913   .     S
Cu978  O991    1.964   .     S
Cu978  N987    2.015   .     S
Cu978  O990    1.970   .     S
H981   C853    1.082   1_655 S
H986   N876    1.029   1_655 S
N987   H873    1.029   1_655 S
N987   N876    1.281   1_655 S
O997   H998    0.989   .     S
O997   C845    1.381   1_655 S
O999   H1000   0.989   .     S
O1001  H1002   0.990   .     S
O1003  H1004   0.990   .     S
O1003  C855    1.376   1_655 S
H1006  O669    0.991   1_565 S
O1007  C624    1.389   1_565 S
O1007  H672    0.991   1_565 S
