data_str_m1_o5_o17_pcu_sym.52
_audit_creation_date              2020-01-03
_audit_creation_method            'Materials Studio'
_symmetry_space_group_name_H-M    'P1'
_symmetry_Int_Tables_number       1
_symmetry_cell_setting            triclinic
loop_
_symmetry_equiv_pos_as_xyz
  x,y,z
_cell_length_a                    31.7197
_cell_length_b                    31.7200
_cell_length_c                    34.6713
_cell_angle_alpha                 89.9999
_cell_angle_beta                  89.9999
_cell_angle_gamma                 90.0061
loop_
_atom_site_label
_atom_site_type_symbol
_atom_site_fract_x
_atom_site_fract_y
_atom_site_fract_z
_atom_site_U_iso_or_equiv
_atom_site_adp_type
_atom_site_occupancy
Zn1    Zn    0.20052  -0.00000   0.21730   0.00000  Uiso   1.00
Zn2    Zn    0.29947  -0.00000   0.78270   0.00000  Uiso   1.00
Zn3    Zn    0.00000   0.20052   0.21730   0.00000  Uiso   1.00
Zn4    Zn    0.00000   0.29947   0.78270   0.00000  Uiso   1.00
Zn5    Zn    0.29947  -0.00000   0.21730   0.00000  Uiso   1.00
Zn6    Zn    0.20052  -0.00000   0.78270   0.00000  Uiso   1.00
Zn7    Zn    0.00000   0.29947   0.21730   0.00000  Uiso   1.00
Zn8    Zn    0.00000   0.20052   0.78270   0.00000  Uiso   1.00
Zn9    Zn    0.45052   0.25000   0.71730   0.00000  Uiso   1.00
Zn10   Zn    0.04947   0.25000   0.28270   0.00000  Uiso   1.00
Zn11   Zn    0.25000   0.45052   0.71730   0.00000  Uiso   1.00
Zn12   Zn    0.25000   0.04947   0.28270   0.00000  Uiso   1.00
Zn13   Zn    0.04947   0.25000   0.71730   0.00000  Uiso   1.00
Zn14   Zn    0.45052   0.25000   0.28270   0.00000  Uiso   1.00
Zn15   Zn    0.25000   0.04947   0.71730   0.00000  Uiso   1.00
Zn16   Zn    0.25000   0.45052   0.28270   0.00000  Uiso   1.00
O17    O     0.25000  -0.00000   0.25000   0.00000  Uiso   1.00
O18    O     0.25000  -0.00000   0.75000   0.00000  Uiso   1.00
O19    O     0.00000   0.25000   0.25000   0.00000  Uiso   1.00
O20    O     0.00000   0.25000   0.75000   0.00000  Uiso   1.00
O21    O     0.25000   0.46538   0.33749   0.00000  Uiso   1.00
O22    O     0.25000   0.03461   0.66251   0.00000  Uiso   1.00
O23    O     0.03461   0.25000   0.33749   0.00000  Uiso   1.00
O24    O     0.46538   0.25000   0.66251   0.00000  Uiso   1.00
O25    O     0.25000   0.03461   0.33749   0.00000  Uiso   1.00
O26    O     0.25000   0.46538   0.66251   0.00000  Uiso   1.00
O27    O     0.46538   0.25000   0.33749   0.00000  Uiso   1.00
O28    O     0.03461   0.25000   0.66251   0.00000  Uiso   1.00
O29    O     0.00000   0.21538   0.83749   0.00000  Uiso   1.00
O30    O    -0.00000   0.28461   0.16251   0.00000  Uiso   1.00
O31    O     0.28461  -0.00000   0.83749   0.00000  Uiso   1.00
O32    O     0.21538  -0.00000   0.16251   0.00000  Uiso   1.00
O33    O     0.00000   0.28461   0.83749   0.00000  Uiso   1.00
O34    O     0.00000   0.21538   0.16251   0.00000  Uiso   1.00
O35    O     0.21538  -0.00000   0.83749   0.00000  Uiso   1.00
O36    O     0.28461  -0.00000   0.16251   0.00000  Uiso   1.00
O37    O     0.20126   0.08332   0.27298   0.00000  Uiso   1.00
O38    O     0.29873   0.41668   0.72702   0.00000  Uiso   1.00
O39    O     0.41668   0.20126   0.27298   0.00000  Uiso   1.00
O40    O     0.08332   0.29873   0.72702   0.00000  Uiso   1.00
O41    O     0.29873   0.41668   0.27298   0.00000  Uiso   1.00
O42    O     0.20126   0.08332   0.72702   0.00000  Uiso   1.00
O43    O     0.08332   0.29873   0.27298   0.00000  Uiso   1.00
O44    O     0.41668   0.20126   0.72702   0.00000  Uiso   1.00
O45    O     0.20126   0.41668   0.72702   0.00000  Uiso   1.00
O46    O     0.29873   0.08332   0.27298   0.00000  Uiso   1.00
O47    O     0.41668   0.29873   0.72702   0.00000  Uiso   1.00
O48    O     0.08332   0.20126   0.27298   0.00000  Uiso   1.00
O49    O     0.29873   0.08332   0.72702   0.00000  Uiso   1.00
O50    O     0.20126   0.41668   0.27298   0.00000  Uiso   1.00
O51    O     0.08332   0.20126   0.72702   0.00000  Uiso   1.00
O52    O     0.41668   0.29873   0.27298   0.00000  Uiso   1.00
O53    O     0.45126   0.33332   0.77298   0.00000  Uiso   1.00
O54    O     0.04873   0.16668   0.22702   0.00000  Uiso   1.00
O55    O     0.16668   0.45126   0.77298   0.00000  Uiso   1.00
O56    O     0.33332   0.04873   0.22702   0.00000  Uiso   1.00
O57    O     0.04873   0.16668   0.77298   0.00000  Uiso   1.00
O58    O     0.45126   0.33332   0.22702   0.00000  Uiso   1.00
O59    O     0.33332   0.04873   0.77298   0.00000  Uiso   1.00
O60    O     0.16668   0.45126   0.22702   0.00000  Uiso   1.00
O61    O     0.45126   0.16668   0.22702   0.00000  Uiso   1.00
O62    O     0.04873   0.33332   0.77298   0.00000  Uiso   1.00
O63    O     0.16668   0.04873   0.22702   0.00000  Uiso   1.00
O64    O     0.33332   0.45126   0.77298   0.00000  Uiso   1.00
O65    O     0.04873   0.33332   0.22702   0.00000  Uiso   1.00
O66    O     0.45126   0.16668   0.77298   0.00000  Uiso   1.00
O67    O     0.33332   0.45126   0.22702   0.00000  Uiso   1.00
O68    O     0.16668   0.04873   0.77298   0.00000  Uiso   1.00
C69    C     0.25000  -0.00000   0.35608   0.00000  Uiso   1.00
C70    C     0.25000  -0.00000   0.64385   0.00000  Uiso   1.00
C71    C    -0.00000   0.25000   0.35607   0.00000  Uiso   1.00
C72    C     0.00000   0.25000   0.64384   0.00000  Uiso   1.00
C73    C    -0.00000   0.25000   0.85611   0.00000  Uiso   1.00
C74    C    -0.00000   0.25000   0.14388   0.00000  Uiso   1.00
C75    C     0.25000  -0.00000   0.85612   0.00000  Uiso   1.00
C76    C     0.25000  -0.00000   0.14389   0.00000  Uiso   1.00
C77    C     0.17000   0.08001   0.24999   0.00000  Uiso   1.00
C78    C     0.33001   0.42000   0.74999   0.00000  Uiso   1.00
C79    C     0.42000   0.17000   0.25000   0.00000  Uiso   1.00
C80    C     0.08000   0.33000   0.75000   0.00000  Uiso   1.00
C81    C     0.33000   0.41999   0.24999   0.00000  Uiso   1.00
C82    C     0.16999   0.08000   0.74999   0.00000  Uiso   1.00
C83    C     0.08000   0.33000   0.25000   0.00000  Uiso   1.00
C84    C     0.42000   0.17000   0.75000   0.00000  Uiso   1.00
C85    C     0.17000   0.42000   0.75000   0.00000  Uiso   1.00
C86    C     0.33001   0.08000   0.25001   0.00000  Uiso   1.00
C87    C     0.42000   0.33000   0.75000   0.00000  Uiso   1.00
C88    C     0.08000   0.17000   0.25000   0.00000  Uiso   1.00
C89    C     0.33000   0.08000   0.75000   0.00000  Uiso   1.00
C90    C     0.16999   0.42000   0.25001   0.00000  Uiso   1.00
C91    C     0.08000   0.17000   0.75000   0.00000  Uiso   1.00
C92    C     0.42000   0.33000   0.25000   0.00000  Uiso   1.00
C93    C     0.13834   0.38835   0.25001   0.00000  Uiso   1.00
C94    C     0.36165   0.11166   0.75001   0.00000  Uiso   1.00
C95    C     0.11166   0.13834   0.24999   0.00000  Uiso   1.00
C96    C     0.38834   0.36166   0.74999   0.00000  Uiso   1.00
C97    C     0.36166   0.11165   0.25001   0.00000  Uiso   1.00
C98    C     0.13835   0.38834   0.75001   0.00000  Uiso   1.00
C99    C     0.38834   0.36166   0.24999   0.00000  Uiso   1.00
C100   C     0.11166   0.13834   0.74999   0.00000  Uiso   1.00
C101   C     0.13834   0.11166   0.74999   0.00000  Uiso   1.00
C102   C     0.36165   0.38834   0.24999   0.00000  Uiso   1.00
C103   C     0.11166   0.36166   0.75000   0.00000  Uiso   1.00
C104   C     0.38835   0.13834   0.25001   0.00000  Uiso   1.00
C105   C     0.36166   0.38834   0.74999   0.00000  Uiso   1.00
C106   C     0.13835   0.11166   0.24999   0.00000  Uiso   1.00
C107   C     0.38834   0.13834   0.75000   0.00000  Uiso   1.00
C108   C     0.11165   0.36166   0.25001   0.00000  Uiso   1.00
C109   C     0.03563   0.26454   0.41927   0.00000  Uiso   1.00
C110   C     0.46282   0.25985   0.58036   0.00000  Uiso   1.00
C111   C     0.23585   0.46422   0.41930   0.00000  Uiso   1.00
C112   C     0.23974   0.03707   0.58039   0.00000  Uiso   1.00
C113   C     0.46437   0.23546   0.41927   0.00000  Uiso   1.00
C114   C     0.03718   0.24015   0.58036   0.00000  Uiso   1.00
C115   C     0.26415   0.03578   0.41930   0.00000  Uiso   1.00
C116   C     0.26026   0.46293   0.58039   0.00000  Uiso   1.00
C117   C     0.21344   0.48802   0.91947   0.00000  Uiso   1.00
C118   C     0.28639   0.48753   0.08056   0.00000  Uiso   1.00
C119   C     0.48755   0.28640   0.91944   0.00000  Uiso   1.00
C120   C     0.48799   0.21345   0.08053   0.00000  Uiso   1.00
C121   C     0.28656   0.01198   0.91947   0.00000  Uiso   1.00
C122   C     0.21361   0.01247   0.08057   0.00000  Uiso   1.00
C123   C     0.01245   0.21360   0.91944   0.00000  Uiso   1.00
C124   C     0.01201   0.28655   0.08053   0.00000  Uiso   1.00
C125   C    -0.00000   0.25000   0.39868   0.00000  Uiso   1.00
C126   C     0.00000   0.25000   0.60110   0.00000  Uiso   1.00
C127   C     0.25000  -0.00000   0.39870   0.00000  Uiso   1.00
C128   C     0.25000  -0.00000   0.60112   0.00000  Uiso   1.00
C129   C     0.25000  -0.00000   0.89880   0.00000  Uiso   1.00
C130   C     0.25000  -0.00000   0.10122   0.00000  Uiso   1.00
C131   C    -0.00000   0.25000   0.89878   0.00000  Uiso   1.00
C132   C    -0.00000   0.25000   0.10120   0.00000  Uiso   1.00
C133   C     0.46180   0.24395   0.45924   0.00000  Uiso   1.00
C134   C     0.03861   0.24922   0.54045   0.00000  Uiso   1.00
C135   C     0.25561   0.03826   0.45927   0.00000  Uiso   1.00
C136   C     0.25123   0.46140   0.54047   0.00000  Uiso   1.00
C137   C     0.03820   0.25605   0.45924   0.00000  Uiso   1.00
C138   C     0.46139   0.25078   0.54045   0.00000  Uiso   1.00
C139   C     0.24439   0.46174   0.45927   0.00000  Uiso   1.00
C140   C     0.24877   0.03860   0.54047   0.00000  Uiso   1.00
C141   C     0.28851   0.00315   0.95941   0.00000  Uiso   1.00
C142   C     0.21153   0.00370   0.04062   0.00000  Uiso   1.00
C143   C     0.00367   0.21153   0.95938   0.00000  Uiso   1.00
C144   C     0.00318   0.28851   0.04059   0.00000  Uiso   1.00
C145   C     0.21149   0.49685   0.95942   0.00000  Uiso   1.00
C146   C     0.28847   0.49630   0.04062   0.00000  Uiso   1.00
C147   C     0.49632   0.28847   0.95938   0.00000  Uiso   1.00
C148   C     0.49682   0.21149   0.04059   0.00000  Uiso   1.00
C149   C    -0.00000   0.25000   0.47958   0.00000  Uiso   1.00
C150   C     0.00000   0.25000   0.52009   0.00000  Uiso   1.00
C151   C     0.25000  -0.00000   0.47961   0.00000  Uiso   1.00
C152   C     0.25000  -0.00000   0.52011   0.00000  Uiso   1.00
C153   C     0.25000   0.00000   0.97977   0.00000  Uiso   1.00
C154   C     0.25000   0.00000   0.02027   0.00000  Uiso   1.00
C155   C    -0.00000   0.25000   0.97973   0.00000  Uiso   1.00
C156   C    -0.00000   0.25000   0.02024   0.00000  Uiso   1.00
C157   C     0.42290   0.24460   0.47955   0.00000  Uiso   1.00
C158   C     0.07705   0.25533   0.52023   0.00000  Uiso   1.00
C159   C     0.25450   0.07715   0.47957   0.00000  Uiso   1.00
C160   C     0.24558   0.42289   0.52025   0.00000  Uiso   1.00
C161   C     0.07710   0.25540   0.47955   0.00000  Uiso   1.00
C162   C     0.42295   0.24467   0.52023   0.00000  Uiso   1.00
C163   C     0.24550   0.42285   0.47957   0.00000  Uiso   1.00
C164   C     0.25442   0.07711   0.52025   0.00000  Uiso   1.00
C165   C     0.32725   0.49947   0.97967   0.00000  Uiso   1.00
C166   C     0.17274   0.00061   0.02035   0.00000  Uiso   1.00
C167   C     0.00055   0.17274   0.97965   0.00000  Uiso   1.00
C168   C     0.49953   0.32725   0.02033   0.00000  Uiso   1.00
C169   C     0.17275   0.00053   0.97967   0.00000  Uiso   1.00
C170   C     0.32726   0.49939   0.02035   0.00000  Uiso   1.00
C171   C     0.49945   0.32726   0.97965   0.00000  Uiso   1.00
C172   C     0.00047   0.17275   0.02033   0.00000  Uiso   1.00
C173   C     0.06618   0.29504   0.40037   0.00000  Uiso   1.00
H174   H     0.04893   0.31695   0.38099   0.00000  Uiso   1.00
H175   H     0.08181   0.31545   0.42206   0.00000  Uiso   1.00
H176   H     0.09037   0.27793   0.38337   0.00000  Uiso   1.00
C177   C     0.42857   0.28656   0.59875   0.00000  Uiso   1.00
H178   H     0.44287   0.31105   0.61755   0.00000  Uiso   1.00
H179   H     0.41034   0.30419   0.57672   0.00000  Uiso   1.00
H180   H     0.40678   0.26685   0.61611   0.00000  Uiso   1.00
C181   C     0.20564   0.43334   0.40045   0.00000  Uiso   1.00
H182   H     0.18351   0.45036   0.38111   0.00000  Uiso   1.00
H183   H     0.22297   0.40934   0.38342   0.00000  Uiso   1.00
H184   H     0.18544   0.41748   0.42217   0.00000  Uiso   1.00
C185   C     0.21268   0.07101   0.59882   0.00000  Uiso   1.00
H186   H     0.18841   0.05644   0.61768   0.00000  Uiso   1.00
H187   H     0.23217   0.09303   0.61614   0.00000  Uiso   1.00
H188   H     0.19478   0.08902   0.57681   0.00000  Uiso   1.00
C189   C     0.43382   0.20496   0.40037   0.00000  Uiso   1.00
H190   H     0.45107   0.18305   0.38099   0.00000  Uiso   1.00
H191   H     0.41818   0.18455   0.42206   0.00000  Uiso   1.00
H192   H     0.40963   0.22207   0.38337   0.00000  Uiso   1.00
C193   C     0.07143   0.21344   0.59875   0.00000  Uiso   1.00
H194   H     0.05713   0.18895   0.61755   0.00000  Uiso   1.00
H195   H     0.08966   0.19581   0.57672   0.00000  Uiso   1.00
H196   H     0.09322   0.23315   0.61611   0.00000  Uiso   1.00
C197   C     0.29436   0.06666   0.40045   0.00000  Uiso   1.00
H198   H     0.31456   0.08252   0.42217   0.00000  Uiso   1.00
H199   H     0.31649   0.04964   0.38111   0.00000  Uiso   1.00
H200   H     0.27703   0.09066   0.38342   0.00000  Uiso   1.00
C201   C     0.28732   0.42899   0.59882   0.00000  Uiso   1.00
H202   H     0.30522   0.41098   0.57681   0.00000  Uiso   1.00
H203   H     0.31159   0.44356   0.61768   0.00000  Uiso   1.00
H204   H     0.26783   0.40697   0.61614   0.00000  Uiso   1.00
C205   C     0.18080   0.45954   0.90087   0.00000  Uiso   1.00
H206   H     0.19647   0.43619   0.88178   0.00000  Uiso   1.00
H207   H     0.16372   0.44058   0.92275   0.00000  Uiso   1.00
H208   H     0.15787   0.47811   0.88369   0.00000  Uiso   1.00
C209   C     0.31863   0.45864   0.09923   0.00000  Uiso   1.00
H210   H     0.30265   0.43557   0.11838   0.00000  Uiso   1.00
H211   H     0.33544   0.43940   0.07738   0.00000  Uiso   1.00
H212   H     0.34182   0.47694   0.11636   0.00000  Uiso   1.00
C213   C     0.45869   0.31866   0.90078   0.00000  Uiso   1.00
H214   H     0.43560   0.30269   0.88163   0.00000  Uiso   1.00
H215   H     0.43946   0.33548   0.92263   0.00000  Uiso   1.00
H216   H     0.47700   0.34184   0.88364   0.00000  Uiso   1.00
C217   C     0.45949   0.18083   0.09914   0.00000  Uiso   1.00
H218   H     0.43615   0.19652   0.11823   0.00000  Uiso   1.00
H219   H     0.44052   0.16377   0.07725   0.00000  Uiso   1.00
H220   H     0.47804   0.15789   0.11631   0.00000  Uiso   1.00
C221   C     0.31920   0.04046   0.90087   0.00000  Uiso   1.00
H222   H     0.30352   0.06381   0.88178   0.00000  Uiso   1.00
H223   H     0.33628   0.05942   0.92275   0.00000  Uiso   1.00
H224   H     0.34213   0.02189   0.88369   0.00000  Uiso   1.00
C225   C     0.18137   0.04136   0.09923   0.00000  Uiso   1.00
H226   H     0.19735   0.06444   0.11838   0.00000  Uiso   1.00
H227   H     0.16456   0.06060   0.07738   0.00000  Uiso   1.00
H228   H     0.15818   0.02306   0.11636   0.00000  Uiso   1.00
C229   C     0.04131   0.18134   0.90078   0.00000  Uiso   1.00
H230   H     0.06054   0.16452   0.92263   0.00000  Uiso   1.00
H231   H     0.02300   0.15816   0.88364   0.00000  Uiso   1.00
H232   H     0.06440   0.19731   0.88163   0.00000  Uiso   1.00
C233   C     0.04051   0.31917   0.09914   0.00000  Uiso   1.00
H234   H     0.05948   0.33623   0.07725   0.00000  Uiso   1.00
H235   H     0.02195   0.34211   0.11631   0.00000  Uiso   1.00
H236   H     0.06385   0.30348   0.11823   0.00000  Uiso   1.00
C237   C     0.38137   0.25152   0.45873   0.00000  Uiso   1.00
H238   H     0.38607   0.26775   0.43074   0.00000  Uiso   1.00
H239   H     0.36470   0.22114   0.45439   0.00000  Uiso   1.00
H240   H     0.36063   0.27285   0.47561   0.00000  Uiso   1.00
C241   C     0.11713   0.26796   0.54119   0.00000  Uiso   1.00
H242   H     0.11015   0.28293   0.56937   0.00000  Uiso   1.00
H243   H     0.13802   0.24026   0.54528   0.00000  Uiso   1.00
H244   H     0.13455   0.29227   0.52454   0.00000  Uiso   1.00
C245   C     0.24709   0.11859   0.45874   0.00000  Uiso   1.00
H246   H     0.22550   0.13907   0.47559   0.00000  Uiso   1.00
H247   H     0.27728   0.13563   0.45441   0.00000  Uiso   1.00
H248   H     0.23095   0.11369   0.43073   0.00000  Uiso   1.00
C249   C     0.23344   0.38265   0.54121   0.00000  Uiso   1.00
H250   H     0.26140   0.36213   0.54533   0.00000  Uiso   1.00
H251   H     0.21833   0.38946   0.56937   0.00000  Uiso   1.00
H252   H     0.20937   0.36491   0.52453   0.00000  Uiso   1.00
C253   C     0.11863   0.24848   0.45873   0.00000  Uiso   1.00
H254   H     0.11393   0.23225   0.43074   0.00000  Uiso   1.00
H255   H     0.13530   0.27886   0.45439   0.00000  Uiso   1.00
H256   H     0.13937   0.22715   0.47561   0.00000  Uiso   1.00
C257   C     0.38287   0.23204   0.54119   0.00000  Uiso   1.00
H258   H     0.38985   0.21707   0.56938   0.00000  Uiso   1.00
H259   H     0.36198   0.25974   0.54528   0.00000  Uiso   1.00
H260   H     0.36545   0.20773   0.52454   0.00000  Uiso   1.00
C261   C     0.25291   0.38141   0.45874   0.00000  Uiso   1.00
H262   H     0.26905   0.38631   0.43073   0.00000  Uiso   1.00
H263   H     0.27450   0.36093   0.47559   0.00000  Uiso   1.00
H264   H     0.22273   0.36437   0.45441   0.00000  Uiso   1.00
C265   C     0.26656   0.11735   0.54120   0.00000  Uiso   1.00
H266   H     0.28167   0.11054   0.56936   0.00000  Uiso   1.00
H267   H     0.29063   0.13508   0.52453   0.00000  Uiso   1.00
H268   H     0.23860   0.13787   0.54533   0.00000  Uiso   1.00
C269   C     0.36808   0.48939   0.95877   0.00000  Uiso   1.00
H270   H     0.36208   0.47378   0.93068   0.00000  Uiso   1.00
H271   H     0.38710   0.01838   0.95453   0.00000  Uiso   1.00
H272   H     0.38707   0.46638   0.97553   0.00000  Uiso   1.00
C273   C     0.13176   0.49112   0.04124   0.00000  Uiso   1.00
H274   H     0.13751   0.47538   0.06931   0.00000  Uiso   1.00
H275   H     0.11319   0.02039   0.04550   0.00000  Uiso   1.00
H276   H     0.11242   0.46843   0.02446   0.00000  Uiso   1.00
C277   C     0.49103   0.13177   0.95876   0.00000  Uiso   1.00
H278   H     0.46832   0.11245   0.97554   0.00000  Uiso   1.00
H279   H     0.47530   0.13753   0.93069   0.00000  Uiso   1.00
H280   H     0.02029   0.11317   0.95450   0.00000  Uiso   1.00
C281   C     0.48948   0.36809   0.04123   0.00000  Uiso   1.00
H282   H     0.46649   0.38709   0.02447   0.00000  Uiso   1.00
H283   H     0.47386   0.36210   0.06932   0.00000  Uiso   1.00
H284   H     0.01848   0.38709   0.04547   0.00000  Uiso   1.00
C285   C     0.13192   0.01061   0.95877   0.00000  Uiso   1.00
H286   H     0.13792   0.02622   0.93068   0.00000  Uiso   1.00
H287   H     0.11289   0.48162   0.95454   0.00000  Uiso   1.00
H288   H     0.11293   0.03362   0.97553   0.00000  Uiso   1.00
C289   C     0.36824   0.00888   0.04124   0.00000  Uiso   1.00
H290   H     0.36249   0.02462   0.06931   0.00000  Uiso   1.00
H291   H     0.38681   0.47961   0.04550   0.00000  Uiso   1.00
H292   H     0.38758   0.03157   0.02446   0.00000  Uiso   1.00
C293   C     0.00897   0.36823   0.95876   0.00000  Uiso   1.00
H294   H     0.02470   0.36246   0.93069   0.00000  Uiso   1.00
H295   H     0.47971   0.38683   0.95450   0.00000  Uiso   1.00
H296   H     0.03168   0.38755   0.97554   0.00000  Uiso   1.00
C297   C     0.01052   0.13191   0.04123   0.00000  Uiso   1.00
H298   H     0.02613   0.13790   0.06932   0.00000  Uiso   1.00
H299   H     0.48152   0.11291   0.04547   0.00000  Uiso   1.00
H300   H     0.03351   0.11291   0.02447   0.00000  Uiso   1.00
Zn301  Zn    0.70052  -0.00000   0.21730   0.00000  Uiso   1.00
Zn302  Zn    0.79947  -0.00000   0.78270   0.00000  Uiso   1.00
Zn303  Zn    0.50000   0.20052   0.21730   0.00000  Uiso   1.00
Zn304  Zn    0.50000   0.29947   0.78270   0.00000  Uiso   1.00
Zn305  Zn    0.79947  -0.00000   0.21730   0.00000  Uiso   1.00
Zn306  Zn    0.70052  -0.00000   0.78270   0.00000  Uiso   1.00
Zn307  Zn    0.50000   0.29947   0.21730   0.00000  Uiso   1.00
Zn308  Zn    0.50000   0.20052   0.78270   0.00000  Uiso   1.00
Zn309  Zn    0.95052   0.25000   0.71730   0.00000  Uiso   1.00
Zn310  Zn    0.54947   0.25000   0.28270   0.00000  Uiso   1.00
Zn311  Zn    0.75000   0.45052   0.71730   0.00000  Uiso   1.00
Zn312  Zn    0.75000   0.04947   0.28270   0.00000  Uiso   1.00
Zn313  Zn    0.54947   0.25000   0.71730   0.00000  Uiso   1.00
Zn314  Zn    0.95052   0.25000   0.28270   0.00000  Uiso   1.00
Zn315  Zn    0.75000   0.04947   0.71730   0.00000  Uiso   1.00
Zn316  Zn    0.75000   0.45052   0.28270   0.00000  Uiso   1.00
O317   O     0.75000  -0.00000   0.25000   0.00000  Uiso   1.00
O318   O     0.75000  -0.00000   0.75000   0.00000  Uiso   1.00
O319   O     0.50000   0.25000   0.25000   0.00000  Uiso   1.00
O320   O     0.50000   0.25000   0.75000   0.00000  Uiso   1.00
O321   O     0.75000   0.46538   0.33749   0.00000  Uiso   1.00
O322   O     0.75000   0.03461   0.66251   0.00000  Uiso   1.00
O323   O     0.53461   0.25000   0.33749   0.00000  Uiso   1.00
O324   O     0.96538   0.25000   0.66251   0.00000  Uiso   1.00
O325   O     0.75000   0.03461   0.33749   0.00000  Uiso   1.00
O326   O     0.75000   0.46538   0.66251   0.00000  Uiso   1.00
O327   O     0.96538   0.25000   0.33749   0.00000  Uiso   1.00
O328   O     0.53461   0.25000   0.66251   0.00000  Uiso   1.00
O329   O     0.50000   0.21538   0.83749   0.00000  Uiso   1.00
O330   O     0.50000   0.28461   0.16251   0.00000  Uiso   1.00
O331   O     0.78461  -0.00000   0.83749   0.00000  Uiso   1.00
O332   O     0.71538  -0.00000   0.16251   0.00000  Uiso   1.00
O333   O     0.50000   0.28461   0.83749   0.00000  Uiso   1.00
O334   O     0.50000   0.21538   0.16251   0.00000  Uiso   1.00
O335   O     0.71538  -0.00000   0.83749   0.00000  Uiso   1.00
O336   O     0.78461  -0.00000   0.16251   0.00000  Uiso   1.00
O337   O     0.70126   0.08332   0.27298   0.00000  Uiso   1.00
O338   O     0.79873   0.41668   0.72702   0.00000  Uiso   1.00
O339   O     0.91668   0.20126   0.27298   0.00000  Uiso   1.00
O340   O     0.58332   0.29873   0.72702   0.00000  Uiso   1.00
O341   O     0.79873   0.41668   0.27298   0.00000  Uiso   1.00
O342   O     0.70126   0.08332   0.72702   0.00000  Uiso   1.00
O343   O     0.58332   0.29873   0.27298   0.00000  Uiso   1.00
O344   O     0.91668   0.20126   0.72702   0.00000  Uiso   1.00
O345   O     0.70126   0.41668   0.72702   0.00000  Uiso   1.00
O346   O     0.79873   0.08332   0.27298   0.00000  Uiso   1.00
O347   O     0.91668   0.29873   0.72702   0.00000  Uiso   1.00
O348   O     0.58332   0.20126   0.27298   0.00000  Uiso   1.00
O349   O     0.79873   0.08332   0.72702   0.00000  Uiso   1.00
O350   O     0.70126   0.41668   0.27298   0.00000  Uiso   1.00
O351   O     0.58332   0.20126   0.72702   0.00000  Uiso   1.00
O352   O     0.91668   0.29873   0.27298   0.00000  Uiso   1.00
O353   O     0.95126   0.33332   0.77298   0.00000  Uiso   1.00
O354   O     0.54873   0.16668   0.22702   0.00000  Uiso   1.00
O355   O     0.66668   0.45126   0.77298   0.00000  Uiso   1.00
O356   O     0.83332   0.04873   0.22702   0.00000  Uiso   1.00
O357   O     0.54873   0.16668   0.77298   0.00000  Uiso   1.00
O358   O     0.95126   0.33332   0.22702   0.00000  Uiso   1.00
O359   O     0.83332   0.04873   0.77298   0.00000  Uiso   1.00
O360   O     0.66668   0.45126   0.22702   0.00000  Uiso   1.00
O361   O     0.95126   0.16668   0.22702   0.00000  Uiso   1.00
O362   O     0.54873   0.33332   0.77298   0.00000  Uiso   1.00
O363   O     0.66668   0.04873   0.22702   0.00000  Uiso   1.00
O364   O     0.83332   0.45126   0.77298   0.00000  Uiso   1.00
O365   O     0.54873   0.33332   0.22702   0.00000  Uiso   1.00
O366   O     0.95126   0.16668   0.77298   0.00000  Uiso   1.00
O367   O     0.83332   0.45126   0.22702   0.00000  Uiso   1.00
O368   O     0.66668   0.04873   0.77298   0.00000  Uiso   1.00
C369   C     0.75000  -0.00000   0.35608   0.00000  Uiso   1.00
C370   C     0.75000  -0.00000   0.64385   0.00000  Uiso   1.00
C371   C     0.50000   0.25000   0.35607   0.00000  Uiso   1.00
C372   C     0.50000   0.25000   0.64384   0.00000  Uiso   1.00
C373   C     0.50000   0.25000   0.85611   0.00000  Uiso   1.00
C374   C     0.50000   0.25000   0.14388   0.00000  Uiso   1.00
C375   C     0.75000  -0.00000   0.85612   0.00000  Uiso   1.00
C376   C     0.75000  -0.00000   0.14389   0.00000  Uiso   1.00
C377   C     0.67000   0.08001   0.24999   0.00000  Uiso   1.00
C378   C     0.83001   0.42000   0.74999   0.00000  Uiso   1.00
C379   C     0.92000   0.17000   0.25000   0.00000  Uiso   1.00
C380   C     0.58000   0.33000   0.75000   0.00000  Uiso   1.00
C381   C     0.83000   0.41999   0.24999   0.00000  Uiso   1.00
C382   C     0.66999   0.08000   0.74999   0.00000  Uiso   1.00
C383   C     0.58000   0.33000   0.25000   0.00000  Uiso   1.00
C384   C     0.92000   0.17000   0.75000   0.00000  Uiso   1.00
C385   C     0.67000   0.42000   0.75000   0.00000  Uiso   1.00
C386   C     0.83001   0.08000   0.25001   0.00000  Uiso   1.00
C387   C     0.92000   0.33000   0.75000   0.00000  Uiso   1.00
C388   C     0.58000   0.17000   0.25000   0.00000  Uiso   1.00
C389   C     0.83000   0.08000   0.75000   0.00000  Uiso   1.00
C390   C     0.66999   0.42000   0.25001   0.00000  Uiso   1.00
C391   C     0.58000   0.17000   0.75000   0.00000  Uiso   1.00
C392   C     0.92000   0.33000   0.25000   0.00000  Uiso   1.00
C393   C     0.63834   0.38835   0.25001   0.00000  Uiso   1.00
C394   C     0.86165   0.11166   0.75001   0.00000  Uiso   1.00
C395   C     0.61166   0.13834   0.24999   0.00000  Uiso   1.00
C396   C     0.88834   0.36166   0.74999   0.00000  Uiso   1.00
C397   C     0.86166   0.11165   0.25001   0.00000  Uiso   1.00
C398   C     0.63835   0.38834   0.75001   0.00000  Uiso   1.00
C399   C     0.88834   0.36166   0.24999   0.00000  Uiso   1.00
C400   C     0.61166   0.13834   0.74999   0.00000  Uiso   1.00
C401   C     0.63834   0.11166   0.74999   0.00000  Uiso   1.00
C402   C     0.86165   0.38834   0.24999   0.00000  Uiso   1.00
C403   C     0.61166   0.36166   0.75000   0.00000  Uiso   1.00
C404   C     0.88835   0.13834   0.25001   0.00000  Uiso   1.00
C405   C     0.86166   0.38834   0.74999   0.00000  Uiso   1.00
C406   C     0.63835   0.11166   0.24999   0.00000  Uiso   1.00
C407   C     0.88834   0.13834   0.75000   0.00000  Uiso   1.00
C408   C     0.61165   0.36166   0.25001   0.00000  Uiso   1.00
C409   C     0.53563   0.26454   0.41927   0.00000  Uiso   1.00
C410   C     0.96282   0.25985   0.58036   0.00000  Uiso   1.00
C411   C     0.73585   0.46422   0.41930   0.00000  Uiso   1.00
C412   C     0.73974   0.03707   0.58039   0.00000  Uiso   1.00
C413   C     0.96437   0.23546   0.41927   0.00000  Uiso   1.00
C414   C     0.53718   0.24015   0.58036   0.00000  Uiso   1.00
C415   C     0.76415   0.03578   0.41930   0.00000  Uiso   1.00
C416   C     0.76026   0.46293   0.58039   0.00000  Uiso   1.00
C417   C     0.71344   0.48802   0.91947   0.00000  Uiso   1.00
C418   C     0.78639   0.48753   0.08056   0.00000  Uiso   1.00
C419   C     0.98755   0.28640   0.91944   0.00000  Uiso   1.00
C420   C     0.98799   0.21345   0.08053   0.00000  Uiso   1.00
C421   C     0.78656   0.01198   0.91947   0.00000  Uiso   1.00
C422   C     0.71361   0.01247   0.08057   0.00000  Uiso   1.00
C423   C     0.51245   0.21360   0.91944   0.00000  Uiso   1.00
C424   C     0.51201   0.28655   0.08053   0.00000  Uiso   1.00
C425   C     0.50000   0.25000   0.39868   0.00000  Uiso   1.00
C426   C     0.50000   0.25000   0.60110   0.00000  Uiso   1.00
C427   C     0.75000  -0.00000   0.39870   0.00000  Uiso   1.00
C428   C     0.75000  -0.00000   0.60112   0.00000  Uiso   1.00
C429   C     0.75000  -0.00000   0.89880   0.00000  Uiso   1.00
C430   C     0.75000  -0.00000   0.10122   0.00000  Uiso   1.00
C431   C     0.50000   0.25000   0.89878   0.00000  Uiso   1.00
C432   C     0.50000   0.25000   0.10120   0.00000  Uiso   1.00
C433   C     0.96180   0.24395   0.45924   0.00000  Uiso   1.00
C434   C     0.53861   0.24922   0.54045   0.00000  Uiso   1.00
C435   C     0.75561   0.03826   0.45927   0.00000  Uiso   1.00
C436   C     0.75123   0.46140   0.54047   0.00000  Uiso   1.00
C437   C     0.53820   0.25605   0.45924   0.00000  Uiso   1.00
C438   C     0.96139   0.25078   0.54045   0.00000  Uiso   1.00
C439   C     0.74439   0.46174   0.45927   0.00000  Uiso   1.00
C440   C     0.74877   0.03860   0.54047   0.00000  Uiso   1.00
C441   C     0.78851   0.00315   0.95941   0.00000  Uiso   1.00
C442   C     0.71153   0.00370   0.04062   0.00000  Uiso   1.00
C443   C     0.50367   0.21153   0.95938   0.00000  Uiso   1.00
C444   C     0.50318   0.28851   0.04059   0.00000  Uiso   1.00
C445   C     0.71149   0.49685   0.95942   0.00000  Uiso   1.00
C446   C     0.78847   0.49630   0.04062   0.00000  Uiso   1.00
C447   C     0.99632   0.28847   0.95938   0.00000  Uiso   1.00
C448   C     0.99682   0.21149   0.04059   0.00000  Uiso   1.00
C449   C     0.50000   0.25000   0.47958   0.00000  Uiso   1.00
C450   C     0.50000   0.25000   0.52009   0.00000  Uiso   1.00
C451   C     0.75000  -0.00000   0.47961   0.00000  Uiso   1.00
C452   C     0.75000  -0.00000   0.52011   0.00000  Uiso   1.00
C453   C     0.75000   0.00000   0.97977   0.00000  Uiso   1.00
C454   C     0.75000   0.00000   0.02027   0.00000  Uiso   1.00
C455   C     0.50000   0.25000   0.97973   0.00000  Uiso   1.00
C456   C     0.50000   0.25000   0.02024   0.00000  Uiso   1.00
C457   C     0.92290   0.24460   0.47955   0.00000  Uiso   1.00
C458   C     0.57705   0.25533   0.52023   0.00000  Uiso   1.00
C459   C     0.75450   0.07715   0.47957   0.00000  Uiso   1.00
C460   C     0.74558   0.42289   0.52025   0.00000  Uiso   1.00
C461   C     0.57710   0.25540   0.47955   0.00000  Uiso   1.00
C462   C     0.92295   0.24467   0.52023   0.00000  Uiso   1.00
C463   C     0.74550   0.42285   0.47957   0.00000  Uiso   1.00
C464   C     0.75442   0.07711   0.52025   0.00000  Uiso   1.00
C465   C     0.82725   0.49947   0.97967   0.00000  Uiso   1.00
C466   C     0.67274   0.00061   0.02035   0.00000  Uiso   1.00
C467   C     0.50055   0.17274   0.97965   0.00000  Uiso   1.00
C468   C     0.99953   0.32725   0.02033   0.00000  Uiso   1.00
C469   C     0.67275   0.00053   0.97967   0.00000  Uiso   1.00
C470   C     0.82726   0.49939   0.02035   0.00000  Uiso   1.00
C471   C     0.99945   0.32726   0.97965   0.00000  Uiso   1.00
C472   C     0.50047   0.17275   0.02033   0.00000  Uiso   1.00
C473   C     0.56618   0.29504   0.40037   0.00000  Uiso   1.00
H474   H     0.54893   0.31695   0.38099   0.00000  Uiso   1.00
H475   H     0.58181   0.31545   0.42206   0.00000  Uiso   1.00
H476   H     0.59037   0.27793   0.38337   0.00000  Uiso   1.00
C477   C     0.92857   0.28656   0.59875   0.00000  Uiso   1.00
H478   H     0.94287   0.31105   0.61755   0.00000  Uiso   1.00
H479   H     0.91034   0.30419   0.57672   0.00000  Uiso   1.00
H480   H     0.90678   0.26685   0.61611   0.00000  Uiso   1.00
C481   C     0.70564   0.43334   0.40045   0.00000  Uiso   1.00
H482   H     0.68351   0.45036   0.38111   0.00000  Uiso   1.00
H483   H     0.72297   0.40934   0.38342   0.00000  Uiso   1.00
H484   H     0.68544   0.41748   0.42217   0.00000  Uiso   1.00
C485   C     0.71268   0.07101   0.59882   0.00000  Uiso   1.00
H486   H     0.68841   0.05644   0.61768   0.00000  Uiso   1.00
H487   H     0.73217   0.09303   0.61614   0.00000  Uiso   1.00
H488   H     0.69478   0.08902   0.57681   0.00000  Uiso   1.00
C489   C     0.93382   0.20496   0.40037   0.00000  Uiso   1.00
H490   H     0.95107   0.18305   0.38099   0.00000  Uiso   1.00
H491   H     0.91818   0.18455   0.42206   0.00000  Uiso   1.00
H492   H     0.90963   0.22207   0.38337   0.00000  Uiso   1.00
C493   C     0.57143   0.21344   0.59875   0.00000  Uiso   1.00
H494   H     0.55713   0.18895   0.61755   0.00000  Uiso   1.00
H495   H     0.58966   0.19581   0.57672   0.00000  Uiso   1.00
H496   H     0.59322   0.23315   0.61611   0.00000  Uiso   1.00
C497   C     0.79436   0.06666   0.40045   0.00000  Uiso   1.00
H498   H     0.81456   0.08252   0.42217   0.00000  Uiso   1.00
H499   H     0.81649   0.04964   0.38111   0.00000  Uiso   1.00
H500   H     0.77703   0.09066   0.38342   0.00000  Uiso   1.00
C501   C     0.78732   0.42899   0.59882   0.00000  Uiso   1.00
H502   H     0.80522   0.41098   0.57681   0.00000  Uiso   1.00
H503   H     0.81159   0.44356   0.61768   0.00000  Uiso   1.00
H504   H     0.76783   0.40697   0.61614   0.00000  Uiso   1.00
C505   C     0.68080   0.45954   0.90087   0.00000  Uiso   1.00
H506   H     0.69647   0.43619   0.88178   0.00000  Uiso   1.00
H507   H     0.66372   0.44058   0.92275   0.00000  Uiso   1.00
H508   H     0.65787   0.47811   0.88369   0.00000  Uiso   1.00
C509   C     0.81863   0.45864   0.09923   0.00000  Uiso   1.00
H510   H     0.80265   0.43557   0.11838   0.00000  Uiso   1.00
H511   H     0.83544   0.43940   0.07738   0.00000  Uiso   1.00
H512   H     0.84182   0.47694   0.11636   0.00000  Uiso   1.00
C513   C     0.95869   0.31866   0.90078   0.00000  Uiso   1.00
H514   H     0.93560   0.30269   0.88163   0.00000  Uiso   1.00
H515   H     0.93946   0.33548   0.92263   0.00000  Uiso   1.00
H516   H     0.97700   0.34184   0.88364   0.00000  Uiso   1.00
C517   C     0.95949   0.18083   0.09914   0.00000  Uiso   1.00
H518   H     0.93615   0.19652   0.11823   0.00000  Uiso   1.00
H519   H     0.94052   0.16377   0.07725   0.00000  Uiso   1.00
H520   H     0.97804   0.15789   0.11631   0.00000  Uiso   1.00
C521   C     0.81920   0.04046   0.90087   0.00000  Uiso   1.00
H522   H     0.80352   0.06381   0.88178   0.00000  Uiso   1.00
H523   H     0.83628   0.05942   0.92275   0.00000  Uiso   1.00
H524   H     0.84213   0.02189   0.88369   0.00000  Uiso   1.00
C525   C     0.68137   0.04136   0.09923   0.00000  Uiso   1.00
H526   H     0.69735   0.06444   0.11838   0.00000  Uiso   1.00
H527   H     0.66456   0.06060   0.07738   0.00000  Uiso   1.00
H528   H     0.65818   0.02306   0.11636   0.00000  Uiso   1.00
C529   C     0.54131   0.18134   0.90078   0.00000  Uiso   1.00
H530   H     0.56054   0.16452   0.92263   0.00000  Uiso   1.00
H531   H     0.52300   0.15816   0.88364   0.00000  Uiso   1.00
H532   H     0.56440   0.19731   0.88163   0.00000  Uiso   1.00
C533   C     0.54051   0.31917   0.09914   0.00000  Uiso   1.00
H534   H     0.55948   0.33623   0.07725   0.00000  Uiso   1.00
H535   H     0.52195   0.34211   0.11631   0.00000  Uiso   1.00
H536   H     0.56385   0.30348   0.11823   0.00000  Uiso   1.00
C537   C     0.88137   0.25152   0.45873   0.00000  Uiso   1.00
H538   H     0.88607   0.26775   0.43074   0.00000  Uiso   1.00
H539   H     0.86470   0.22114   0.45439   0.00000  Uiso   1.00
H540   H     0.86063   0.27285   0.47561   0.00000  Uiso   1.00
C541   C     0.61713   0.26796   0.54119   0.00000  Uiso   1.00
H542   H     0.61015   0.28293   0.56937   0.00000  Uiso   1.00
H543   H     0.63802   0.24026   0.54528   0.00000  Uiso   1.00
H544   H     0.63455   0.29227   0.52454   0.00000  Uiso   1.00
C545   C     0.74709   0.11859   0.45874   0.00000  Uiso   1.00
H546   H     0.72550   0.13907   0.47559   0.00000  Uiso   1.00
H547   H     0.77728   0.13563   0.45441   0.00000  Uiso   1.00
H548   H     0.73095   0.11369   0.43073   0.00000  Uiso   1.00
C549   C     0.73344   0.38265   0.54121   0.00000  Uiso   1.00
H550   H     0.76140   0.36213   0.54533   0.00000  Uiso   1.00
H551   H     0.71833   0.38946   0.56937   0.00000  Uiso   1.00
H552   H     0.70937   0.36491   0.52453   0.00000  Uiso   1.00
C553   C     0.61863   0.24848   0.45873   0.00000  Uiso   1.00
H554   H     0.61393   0.23225   0.43074   0.00000  Uiso   1.00
H555   H     0.63530   0.27886   0.45439   0.00000  Uiso   1.00
H556   H     0.63937   0.22715   0.47561   0.00000  Uiso   1.00
C557   C     0.88287   0.23204   0.54119   0.00000  Uiso   1.00
H558   H     0.88985   0.21707   0.56938   0.00000  Uiso   1.00
H559   H     0.86198   0.25974   0.54528   0.00000  Uiso   1.00
H560   H     0.86545   0.20773   0.52454   0.00000  Uiso   1.00
C561   C     0.75291   0.38141   0.45874   0.00000  Uiso   1.00
H562   H     0.76905   0.38631   0.43073   0.00000  Uiso   1.00
H563   H     0.77450   0.36093   0.47559   0.00000  Uiso   1.00
H564   H     0.72273   0.36437   0.45441   0.00000  Uiso   1.00
C565   C     0.76656   0.11735   0.54120   0.00000  Uiso   1.00
H566   H     0.78167   0.11054   0.56936   0.00000  Uiso   1.00
H567   H     0.79063   0.13508   0.52453   0.00000  Uiso   1.00
H568   H     0.73860   0.13787   0.54533   0.00000  Uiso   1.00
C569   C     0.86808   0.48939   0.95877   0.00000  Uiso   1.00
H570   H     0.86208   0.47378   0.93068   0.00000  Uiso   1.00
H571   H     0.88710   0.01838   0.95453   0.00000  Uiso   1.00
H572   H     0.88707   0.46638   0.97553   0.00000  Uiso   1.00
C573   C     0.63176   0.49112   0.04124   0.00000  Uiso   1.00
H574   H     0.63751   0.47538   0.06931   0.00000  Uiso   1.00
H575   H     0.61319   0.02039   0.04550   0.00000  Uiso   1.00
H576   H     0.61242   0.46843   0.02446   0.00000  Uiso   1.00
C577   C     0.99103   0.13177   0.95876   0.00000  Uiso   1.00
H578   H     0.96832   0.11245   0.97554   0.00000  Uiso   1.00
H579   H     0.97530   0.13753   0.93069   0.00000  Uiso   1.00
H580   H     0.52029   0.11317   0.95450   0.00000  Uiso   1.00
C581   C     0.98948   0.36809   0.04123   0.00000  Uiso   1.00
H582   H     0.96649   0.38709   0.02447   0.00000  Uiso   1.00
H583   H     0.97386   0.36210   0.06932   0.00000  Uiso   1.00
H584   H     0.51848   0.38709   0.04547   0.00000  Uiso   1.00
C585   C     0.63192   0.01061   0.95877   0.00000  Uiso   1.00
H586   H     0.63792   0.02622   0.93068   0.00000  Uiso   1.00
H587   H     0.61289   0.48162   0.95454   0.00000  Uiso   1.00
H588   H     0.61293   0.03362   0.97553   0.00000  Uiso   1.00
C589   C     0.86824   0.00888   0.04124   0.00000  Uiso   1.00
H590   H     0.86249   0.02462   0.06931   0.00000  Uiso   1.00
H591   H     0.88681   0.47961   0.04550   0.00000  Uiso   1.00
H592   H     0.88758   0.03157   0.02446   0.00000  Uiso   1.00
C593   C     0.50897   0.36823   0.95876   0.00000  Uiso   1.00
H594   H     0.52470   0.36246   0.93069   0.00000  Uiso   1.00
H595   H     0.97971   0.38683   0.95450   0.00000  Uiso   1.00
H596   H     0.53168   0.38755   0.97554   0.00000  Uiso   1.00
C597   C     0.51052   0.13191   0.04123   0.00000  Uiso   1.00
H598   H     0.52613   0.13790   0.06932   0.00000  Uiso   1.00
H599   H     0.98152   0.11291   0.04547   0.00000  Uiso   1.00
H600   H     0.53351   0.11291   0.02447   0.00000  Uiso   1.00
Zn601  Zn    0.20052   0.50000   0.21730   0.00000  Uiso   1.00
Zn602  Zn    0.29947   0.50000   0.78270   0.00000  Uiso   1.00
Zn603  Zn    0.00000   0.70052   0.21730   0.00000  Uiso   1.00
Zn604  Zn    0.00000   0.79947   0.78270   0.00000  Uiso   1.00
Zn605  Zn    0.29947   0.50000   0.21730   0.00000  Uiso   1.00
Zn606  Zn    0.20052   0.50000   0.78270   0.00000  Uiso   1.00
Zn607  Zn    0.00000   0.79947   0.21730   0.00000  Uiso   1.00
Zn608  Zn    0.00000   0.70052   0.78270   0.00000  Uiso   1.00
Zn609  Zn    0.45052   0.75000   0.71730   0.00000  Uiso   1.00
Zn610  Zn    0.04947   0.75000   0.28270   0.00000  Uiso   1.00
Zn611  Zn    0.25000   0.95052   0.71730   0.00000  Uiso   1.00
Zn612  Zn    0.25000   0.54947   0.28270   0.00000  Uiso   1.00
Zn613  Zn    0.04947   0.75000   0.71730   0.00000  Uiso   1.00
Zn614  Zn    0.45052   0.75000   0.28270   0.00000  Uiso   1.00
Zn615  Zn    0.25000   0.54947   0.71730   0.00000  Uiso   1.00
Zn616  Zn    0.25000   0.95052   0.28270   0.00000  Uiso   1.00
O617   O     0.25000   0.50000   0.25000   0.00000  Uiso   1.00
O618   O     0.25000   0.50000   0.75000   0.00000  Uiso   1.00
O619   O     0.00000   0.75000   0.25000   0.00000  Uiso   1.00
O620   O     0.00000   0.75000   0.75000   0.00000  Uiso   1.00
O621   O     0.25000   0.96538   0.33749   0.00000  Uiso   1.00
O622   O     0.25000   0.53461   0.66251   0.00000  Uiso   1.00
O623   O     0.03461   0.75000   0.33749   0.00000  Uiso   1.00
O624   O     0.46538   0.75000   0.66251   0.00000  Uiso   1.00
O625   O     0.25000   0.53461   0.33749   0.00000  Uiso   1.00
O626   O     0.25000   0.96538   0.66251   0.00000  Uiso   1.00
O627   O     0.46538   0.75000   0.33749   0.00000  Uiso   1.00
O628   O     0.03461   0.75000   0.66251   0.00000  Uiso   1.00
O629   O     0.00000   0.71538   0.83749   0.00000  Uiso   1.00
O630   O    -0.00000   0.78461   0.16251   0.00000  Uiso   1.00
O631   O     0.28461   0.50000   0.83749   0.00000  Uiso   1.00
O632   O     0.21538   0.50000   0.16251   0.00000  Uiso   1.00
O633   O     0.00000   0.78461   0.83749   0.00000  Uiso   1.00
O634   O     0.00000   0.71538   0.16251   0.00000  Uiso   1.00
O635   O     0.21538   0.50000   0.83749   0.00000  Uiso   1.00
O636   O     0.28461   0.50000   0.16251   0.00000  Uiso   1.00
O637   O     0.20126   0.58332   0.27298   0.00000  Uiso   1.00
O638   O     0.29873   0.91668   0.72702   0.00000  Uiso   1.00
O639   O     0.41668   0.70126   0.27298   0.00000  Uiso   1.00
O640   O     0.08332   0.79873   0.72702   0.00000  Uiso   1.00
O641   O     0.29873   0.91668   0.27298   0.00000  Uiso   1.00
O642   O     0.20126   0.58332   0.72702   0.00000  Uiso   1.00
O643   O     0.08332   0.79873   0.27298   0.00000  Uiso   1.00
O644   O     0.41668   0.70126   0.72702   0.00000  Uiso   1.00
O645   O     0.20126   0.91668   0.72702   0.00000  Uiso   1.00
O646   O     0.29873   0.58332   0.27298   0.00000  Uiso   1.00
O647   O     0.41668   0.79873   0.72702   0.00000  Uiso   1.00
O648   O     0.08332   0.70126   0.27298   0.00000  Uiso   1.00
O649   O     0.29873   0.58332   0.72702   0.00000  Uiso   1.00
O650   O     0.20126   0.91668   0.27298   0.00000  Uiso   1.00
O651   O     0.08332   0.70126   0.72702   0.00000  Uiso   1.00
O652   O     0.41668   0.79873   0.27298   0.00000  Uiso   1.00
O653   O     0.45126   0.83332   0.77298   0.00000  Uiso   1.00
O654   O     0.04873   0.66668   0.22702   0.00000  Uiso   1.00
O655   O     0.16668   0.95126   0.77298   0.00000  Uiso   1.00
O656   O     0.33332   0.54873   0.22702   0.00000  Uiso   1.00
O657   O     0.04873   0.66668   0.77298   0.00000  Uiso   1.00
O658   O     0.45126   0.83332   0.22702   0.00000  Uiso   1.00
O659   O     0.33332   0.54873   0.77298   0.00000  Uiso   1.00
O660   O     0.16668   0.95126   0.22702   0.00000  Uiso   1.00
O661   O     0.45126   0.66668   0.22702   0.00000  Uiso   1.00
O662   O     0.04873   0.83332   0.77298   0.00000  Uiso   1.00
O663   O     0.16668   0.54873   0.22702   0.00000  Uiso   1.00
O664   O     0.33332   0.95126   0.77298   0.00000  Uiso   1.00
O665   O     0.04873   0.83332   0.22702   0.00000  Uiso   1.00
O666   O     0.45126   0.66668   0.77298   0.00000  Uiso   1.00
O667   O     0.33332   0.95126   0.22702   0.00000  Uiso   1.00
O668   O     0.16668   0.54873   0.77298   0.00000  Uiso   1.00
C669   C     0.25000   0.50000   0.35608   0.00000  Uiso   1.00
C670   C     0.25000   0.50000   0.64385   0.00000  Uiso   1.00
C671   C    -0.00000   0.75000   0.35607   0.00000  Uiso   1.00
C672   C     0.00000   0.75000   0.64384   0.00000  Uiso   1.00
C673   C    -0.00000   0.75000   0.85611   0.00000  Uiso   1.00
C674   C    -0.00000   0.75000   0.14388   0.00000  Uiso   1.00
C675   C     0.25000   0.50000   0.85612   0.00000  Uiso   1.00
C676   C     0.25000   0.50000   0.14389   0.00000  Uiso   1.00
C677   C     0.17000   0.58001   0.24999   0.00000  Uiso   1.00
C678   C     0.33001   0.92000   0.74999   0.00000  Uiso   1.00
C679   C     0.42000   0.67000   0.25000   0.00000  Uiso   1.00
C680   C     0.08000   0.83000   0.75000   0.00000  Uiso   1.00
C681   C     0.33000   0.91999   0.24999   0.00000  Uiso   1.00
C682   C     0.16999   0.58000   0.74999   0.00000  Uiso   1.00
C683   C     0.08000   0.83000   0.25000   0.00000  Uiso   1.00
C684   C     0.42000   0.67000   0.75000   0.00000  Uiso   1.00
C685   C     0.17000   0.92000   0.75000   0.00000  Uiso   1.00
C686   C     0.33001   0.58000   0.25001   0.00000  Uiso   1.00
C687   C     0.42000   0.83000   0.75000   0.00000  Uiso   1.00
C688   C     0.08000   0.67000   0.25000   0.00000  Uiso   1.00
C689   C     0.33000   0.58000   0.75000   0.00000  Uiso   1.00
C690   C     0.16999   0.92000   0.25001   0.00000  Uiso   1.00
C691   C     0.08000   0.67000   0.75000   0.00000  Uiso   1.00
C692   C     0.42000   0.83000   0.25000   0.00000  Uiso   1.00
C693   C     0.13834   0.88835   0.25001   0.00000  Uiso   1.00
C694   C     0.36165   0.61166   0.75001   0.00000  Uiso   1.00
C695   C     0.11166   0.63834   0.24999   0.00000  Uiso   1.00
C696   C     0.38834   0.86166   0.74999   0.00000  Uiso   1.00
C697   C     0.36166   0.61165   0.25001   0.00000  Uiso   1.00
C698   C     0.13835   0.88834   0.75001   0.00000  Uiso   1.00
C699   C     0.38834   0.86166   0.24999   0.00000  Uiso   1.00
C700   C     0.11166   0.63834   0.74999   0.00000  Uiso   1.00
C701   C     0.13834   0.61166   0.74999   0.00000  Uiso   1.00
C702   C     0.36165   0.88834   0.24999   0.00000  Uiso   1.00
C703   C     0.11166   0.86166   0.75000   0.00000  Uiso   1.00
C704   C     0.38835   0.63834   0.25001   0.00000  Uiso   1.00
C705   C     0.36166   0.88834   0.74999   0.00000  Uiso   1.00
C706   C     0.13835   0.61166   0.24999   0.00000  Uiso   1.00
C707   C     0.38834   0.63834   0.75000   0.00000  Uiso   1.00
C708   C     0.11165   0.86166   0.25001   0.00000  Uiso   1.00
C709   C     0.03563   0.76454   0.41927   0.00000  Uiso   1.00
C710   C     0.46282   0.75985   0.58036   0.00000  Uiso   1.00
C711   C     0.23585   0.96422   0.41930   0.00000  Uiso   1.00
C712   C     0.23974   0.53707   0.58039   0.00000  Uiso   1.00
C713   C     0.46437   0.73546   0.41927   0.00000  Uiso   1.00
C714   C     0.03718   0.74015   0.58036   0.00000  Uiso   1.00
C715   C     0.26415   0.53578   0.41930   0.00000  Uiso   1.00
C716   C     0.26026   0.96293   0.58039   0.00000  Uiso   1.00
C717   C     0.21344   0.98802   0.91947   0.00000  Uiso   1.00
C718   C     0.28639   0.98753   0.08056   0.00000  Uiso   1.00
C719   C     0.48755   0.78640   0.91944   0.00000  Uiso   1.00
C720   C     0.48799   0.71345   0.08053   0.00000  Uiso   1.00
C721   C     0.28656   0.51198   0.91947   0.00000  Uiso   1.00
C722   C     0.21361   0.51247   0.08057   0.00000  Uiso   1.00
C723   C     0.01245   0.71360   0.91944   0.00000  Uiso   1.00
C724   C     0.01201   0.78655   0.08053   0.00000  Uiso   1.00
C725   C    -0.00000   0.75000   0.39868   0.00000  Uiso   1.00
C726   C     0.00000   0.75000   0.60110   0.00000  Uiso   1.00
C727   C     0.25000   0.50000   0.39870   0.00000  Uiso   1.00
C728   C     0.25000   0.50000   0.60112   0.00000  Uiso   1.00
C729   C     0.25000   0.50000   0.89880   0.00000  Uiso   1.00
C730   C     0.25000   0.50000   0.10122   0.00000  Uiso   1.00
C731   C    -0.00000   0.75000   0.89878   0.00000  Uiso   1.00
C732   C    -0.00000   0.75000   0.10120   0.00000  Uiso   1.00
C733   C     0.46180   0.74395   0.45924   0.00000  Uiso   1.00
C734   C     0.03861   0.74922   0.54045   0.00000  Uiso   1.00
C735   C     0.25561   0.53826   0.45927   0.00000  Uiso   1.00
C736   C     0.25123   0.96140   0.54047   0.00000  Uiso   1.00
C737   C     0.03820   0.75605   0.45924   0.00000  Uiso   1.00
C738   C     0.46139   0.75078   0.54045   0.00000  Uiso   1.00
C739   C     0.24439   0.96174   0.45927   0.00000  Uiso   1.00
C740   C     0.24877   0.53860   0.54047   0.00000  Uiso   1.00
C741   C     0.28851   0.50315   0.95941   0.00000  Uiso   1.00
C742   C     0.21153   0.50370   0.04062   0.00000  Uiso   1.00
C743   C     0.00367   0.71153   0.95938   0.00000  Uiso   1.00
C744   C     0.00318   0.78851   0.04059   0.00000  Uiso   1.00
C745   C     0.21149   0.99685   0.95942   0.00000  Uiso   1.00
C746   C     0.28847   0.99630   0.04062   0.00000  Uiso   1.00
C747   C     0.49632   0.78847   0.95938   0.00000  Uiso   1.00
C748   C     0.49682   0.71149   0.04059   0.00000  Uiso   1.00
C749   C    -0.00000   0.75000   0.47958   0.00000  Uiso   1.00
C750   C     0.00000   0.75000   0.52009   0.00000  Uiso   1.00
C751   C     0.25000   0.50000   0.47961   0.00000  Uiso   1.00
C752   C     0.25000   0.50000   0.52011   0.00000  Uiso   1.00
C753   C     0.25000   0.50000   0.97977   0.00000  Uiso   1.00
C754   C     0.25000   0.50000   0.02027   0.00000  Uiso   1.00
C755   C    -0.00000   0.75000   0.97973   0.00000  Uiso   1.00
C756   C    -0.00000   0.75000   0.02024   0.00000  Uiso   1.00
C757   C     0.42290   0.74460   0.47955   0.00000  Uiso   1.00
C758   C     0.07705   0.75533   0.52023   0.00000  Uiso   1.00
C759   C     0.25450   0.57715   0.47957   0.00000  Uiso   1.00
C760   C     0.24558   0.92289   0.52025   0.00000  Uiso   1.00
C761   C     0.07710   0.75540   0.47955   0.00000  Uiso   1.00
C762   C     0.42295   0.74467   0.52023   0.00000  Uiso   1.00
C763   C     0.24550   0.92285   0.47957   0.00000  Uiso   1.00
C764   C     0.25442   0.57711   0.52025   0.00000  Uiso   1.00
C765   C     0.32725   0.99947   0.97967   0.00000  Uiso   1.00
C766   C     0.17274   0.50061   0.02035   0.00000  Uiso   1.00
C767   C     0.00055   0.67274   0.97965   0.00000  Uiso   1.00
C768   C     0.49953   0.82725   0.02033   0.00000  Uiso   1.00
C769   C     0.17275   0.50053   0.97967   0.00000  Uiso   1.00
C770   C     0.32726   0.99939   0.02035   0.00000  Uiso   1.00
C771   C     0.49945   0.82726   0.97965   0.00000  Uiso   1.00
C772   C     0.00047   0.67275   0.02033   0.00000  Uiso   1.00
C773   C     0.06618   0.79504   0.40037   0.00000  Uiso   1.00
H774   H     0.04893   0.81695   0.38099   0.00000  Uiso   1.00
H775   H     0.08181   0.81545   0.42206   0.00000  Uiso   1.00
H776   H     0.09037   0.77793   0.38337   0.00000  Uiso   1.00
C777   C     0.42857   0.78656   0.59875   0.00000  Uiso   1.00
H778   H     0.44287   0.81105   0.61755   0.00000  Uiso   1.00
H779   H     0.41034   0.80419   0.57672   0.00000  Uiso   1.00
H780   H     0.40678   0.76685   0.61611   0.00000  Uiso   1.00
C781   C     0.20564   0.93334   0.40045   0.00000  Uiso   1.00
H782   H     0.18351   0.95036   0.38111   0.00000  Uiso   1.00
H783   H     0.22297   0.90934   0.38342   0.00000  Uiso   1.00
H784   H     0.18544   0.91748   0.42217   0.00000  Uiso   1.00
C785   C     0.21268   0.57101   0.59882   0.00000  Uiso   1.00
H786   H     0.18841   0.55644   0.61768   0.00000  Uiso   1.00
H787   H     0.23217   0.59303   0.61614   0.00000  Uiso   1.00
H788   H     0.19478   0.58902   0.57681   0.00000  Uiso   1.00
C789   C     0.43382   0.70496   0.40037   0.00000  Uiso   1.00
H790   H     0.45107   0.68305   0.38099   0.00000  Uiso   1.00
H791   H     0.41818   0.68455   0.42206   0.00000  Uiso   1.00
H792   H     0.40963   0.72207   0.38337   0.00000  Uiso   1.00
C793   C     0.07143   0.71344   0.59875   0.00000  Uiso   1.00
H794   H     0.05713   0.68895   0.61755   0.00000  Uiso   1.00
H795   H     0.08966   0.69581   0.57672   0.00000  Uiso   1.00
H796   H     0.09322   0.73315   0.61611   0.00000  Uiso   1.00
C797   C     0.29436   0.56666   0.40045   0.00000  Uiso   1.00
H798   H     0.31456   0.58252   0.42217   0.00000  Uiso   1.00
H799   H     0.31649   0.54964   0.38111   0.00000  Uiso   1.00
H800   H     0.27703   0.59066   0.38342   0.00000  Uiso   1.00
C801   C     0.28732   0.92899   0.59882   0.00000  Uiso   1.00
H802   H     0.30522   0.91098   0.57681   0.00000  Uiso   1.00
H803   H     0.31159   0.94356   0.61768   0.00000  Uiso   1.00
H804   H     0.26783   0.90697   0.61614   0.00000  Uiso   1.00
C805   C     0.18080   0.95954   0.90087   0.00000  Uiso   1.00
H806   H     0.19647   0.93619   0.88178   0.00000  Uiso   1.00
H807   H     0.16372   0.94058   0.92275   0.00000  Uiso   1.00
H808   H     0.15787   0.97811   0.88369   0.00000  Uiso   1.00
C809   C     0.31863   0.95864   0.09923   0.00000  Uiso   1.00
H810   H     0.30265   0.93557   0.11838   0.00000  Uiso   1.00
H811   H     0.33544   0.93940   0.07738   0.00000  Uiso   1.00
H812   H     0.34182   0.97694   0.11636   0.00000  Uiso   1.00
C813   C     0.45869   0.81866   0.90078   0.00000  Uiso   1.00
H814   H     0.43560   0.80269   0.88163   0.00000  Uiso   1.00
H815   H     0.43946   0.83548   0.92263   0.00000  Uiso   1.00
H816   H     0.47700   0.84184   0.88364   0.00000  Uiso   1.00
C817   C     0.45949   0.68083   0.09914   0.00000  Uiso   1.00
H818   H     0.43615   0.69652   0.11823   0.00000  Uiso   1.00
H819   H     0.44052   0.66377   0.07725   0.00000  Uiso   1.00
H820   H     0.47804   0.65789   0.11631   0.00000  Uiso   1.00
C821   C     0.31920   0.54046   0.90087   0.00000  Uiso   1.00
H822   H     0.30352   0.56381   0.88178   0.00000  Uiso   1.00
H823   H     0.33628   0.55942   0.92275   0.00000  Uiso   1.00
H824   H     0.34213   0.52189   0.88369   0.00000  Uiso   1.00
C825   C     0.18137   0.54136   0.09923   0.00000  Uiso   1.00
H826   H     0.19735   0.56444   0.11838   0.00000  Uiso   1.00
H827   H     0.16456   0.56060   0.07738   0.00000  Uiso   1.00
H828   H     0.15818   0.52306   0.11636   0.00000  Uiso   1.00
C829   C     0.04131   0.68134   0.90078   0.00000  Uiso   1.00
H830   H     0.06054   0.66452   0.92263   0.00000  Uiso   1.00
H831   H     0.02300   0.65816   0.88364   0.00000  Uiso   1.00
H832   H     0.06440   0.69731   0.88163   0.00000  Uiso   1.00
C833   C     0.04051   0.81917   0.09914   0.00000  Uiso   1.00
H834   H     0.05948   0.83623   0.07725   0.00000  Uiso   1.00
H835   H     0.02195   0.84211   0.11631   0.00000  Uiso   1.00
H836   H     0.06385   0.80348   0.11823   0.00000  Uiso   1.00
C837   C     0.38137   0.75152   0.45873   0.00000  Uiso   1.00
H838   H     0.38607   0.76775   0.43074   0.00000  Uiso   1.00
H839   H     0.36470   0.72114   0.45439   0.00000  Uiso   1.00
H840   H     0.36063   0.77285   0.47561   0.00000  Uiso   1.00
C841   C     0.11713   0.76796   0.54119   0.00000  Uiso   1.00
H842   H     0.11015   0.78293   0.56937   0.00000  Uiso   1.00
H843   H     0.13802   0.74026   0.54528   0.00000  Uiso   1.00
H844   H     0.13455   0.79227   0.52454   0.00000  Uiso   1.00
C845   C     0.24709   0.61859   0.45874   0.00000  Uiso   1.00
H846   H     0.22550   0.63907   0.47559   0.00000  Uiso   1.00
H847   H     0.27728   0.63563   0.45441   0.00000  Uiso   1.00
H848   H     0.23095   0.61369   0.43073   0.00000  Uiso   1.00
C849   C     0.23344   0.88265   0.54121   0.00000  Uiso   1.00
H850   H     0.26140   0.86213   0.54533   0.00000  Uiso   1.00
H851   H     0.21833   0.88946   0.56937   0.00000  Uiso   1.00
H852   H     0.20937   0.86491   0.52453   0.00000  Uiso   1.00
C853   C     0.11863   0.74848   0.45873   0.00000  Uiso   1.00
H854   H     0.11393   0.73225   0.43074   0.00000  Uiso   1.00
H855   H     0.13530   0.77886   0.45439   0.00000  Uiso   1.00
H856   H     0.13937   0.72715   0.47561   0.00000  Uiso   1.00
C857   C     0.38287   0.73204   0.54119   0.00000  Uiso   1.00
H858   H     0.38985   0.71707   0.56938   0.00000  Uiso   1.00
H859   H     0.36198   0.75974   0.54528   0.00000  Uiso   1.00
H860   H     0.36545   0.70773   0.52454   0.00000  Uiso   1.00
C861   C     0.25291   0.88141   0.45874   0.00000  Uiso   1.00
H862   H     0.26905   0.88631   0.43073   0.00000  Uiso   1.00
H863   H     0.27450   0.86093   0.47559   0.00000  Uiso   1.00
H864   H     0.22273   0.86437   0.45441   0.00000  Uiso   1.00
C865   C     0.26656   0.61735   0.54120   0.00000  Uiso   1.00
H866   H     0.28167   0.61054   0.56936   0.00000  Uiso   1.00
H867   H     0.29063   0.63508   0.52453   0.00000  Uiso   1.00
H868   H     0.23860   0.63787   0.54533   0.00000  Uiso   1.00
C869   C     0.36808   0.98939   0.95877   0.00000  Uiso   1.00
H870   H     0.36208   0.97378   0.93068   0.00000  Uiso   1.00
H871   H     0.38710   0.51838   0.95453   0.00000  Uiso   1.00
H872   H     0.38707   0.96638   0.97553   0.00000  Uiso   1.00
C873   C     0.13176   0.99112   0.04124   0.00000  Uiso   1.00
H874   H     0.13751   0.97538   0.06931   0.00000  Uiso   1.00
H875   H     0.11319   0.52039   0.04550   0.00000  Uiso   1.00
H876   H     0.11242   0.96843   0.02446   0.00000  Uiso   1.00
C877   C     0.49103   0.63177   0.95876   0.00000  Uiso   1.00
H878   H     0.46832   0.61245   0.97554   0.00000  Uiso   1.00
H879   H     0.47530   0.63753   0.93069   0.00000  Uiso   1.00
H880   H     0.02029   0.61317   0.95450   0.00000  Uiso   1.00
C881   C     0.48948   0.86809   0.04123   0.00000  Uiso   1.00
H882   H     0.46649   0.88709   0.02447   0.00000  Uiso   1.00
H883   H     0.47386   0.86210   0.06932   0.00000  Uiso   1.00
H884   H     0.01848   0.88709   0.04547   0.00000  Uiso   1.00
C885   C     0.13192   0.51061   0.95877   0.00000  Uiso   1.00
H886   H     0.13792   0.52622   0.93068   0.00000  Uiso   1.00
H887   H     0.11289   0.98162   0.95454   0.00000  Uiso   1.00
H888   H     0.11293   0.53362   0.97553   0.00000  Uiso   1.00
C889   C     0.36824   0.50888   0.04124   0.00000  Uiso   1.00
H890   H     0.36249   0.52462   0.06931   0.00000  Uiso   1.00
H891   H     0.38681   0.97961   0.04550   0.00000  Uiso   1.00
H892   H     0.38758   0.53157   0.02446   0.00000  Uiso   1.00
C893   C     0.00897   0.86823   0.95876   0.00000  Uiso   1.00
H894   H     0.02470   0.86246   0.93069   0.00000  Uiso   1.00
H895   H     0.47971   0.88683   0.95450   0.00000  Uiso   1.00
H896   H     0.03168   0.88755   0.97554   0.00000  Uiso   1.00
C897   C     0.01052   0.63191   0.04123   0.00000  Uiso   1.00
H898   H     0.02613   0.63790   0.06932   0.00000  Uiso   1.00
H899   H     0.48152   0.61291   0.04547   0.00000  Uiso   1.00
H900   H     0.03351   0.61291   0.02447   0.00000  Uiso   1.00
Zn901  Zn    0.70052   0.50000   0.21730   0.00000  Uiso   1.00
Zn902  Zn    0.79947   0.50000   0.78270   0.00000  Uiso   1.00
Zn903  Zn    0.50000   0.70052   0.21730   0.00000  Uiso   1.00
Zn904  Zn    0.50000   0.79947   0.78270   0.00000  Uiso   1.00
Zn905  Zn    0.79947   0.50000   0.21730   0.00000  Uiso   1.00
Zn906  Zn    0.70052   0.50000   0.78270   0.00000  Uiso   1.00
Zn907  Zn    0.50000   0.79947   0.21730   0.00000  Uiso   1.00
Zn908  Zn    0.50000   0.70052   0.78270   0.00000  Uiso   1.00
Zn909  Zn    0.95052   0.75000   0.71730   0.00000  Uiso   1.00
Zn910  Zn    0.54947   0.75000   0.28270   0.00000  Uiso   1.00
Zn911  Zn    0.75000   0.95052   0.71730   0.00000  Uiso   1.00
Zn912  Zn    0.75000   0.54947   0.28270   0.00000  Uiso   1.00
Zn913  Zn    0.54947   0.75000   0.71730   0.00000  Uiso   1.00
Zn914  Zn    0.95052   0.75000   0.28270   0.00000  Uiso   1.00
Zn915  Zn    0.75000   0.54947   0.71730   0.00000  Uiso   1.00
Zn916  Zn    0.75000   0.95052   0.28270   0.00000  Uiso   1.00
O917   O     0.75000   0.50000   0.25000   0.00000  Uiso   1.00
O918   O     0.75000   0.50000   0.75000   0.00000  Uiso   1.00
O919   O     0.50000   0.75000   0.25000   0.00000  Uiso   1.00
O920   O     0.50000   0.75000   0.75000   0.00000  Uiso   1.00
O921   O     0.75000   0.96538   0.33749   0.00000  Uiso   1.00
O922   O     0.75000   0.53461   0.66251   0.00000  Uiso   1.00
O923   O     0.53461   0.75000   0.33749   0.00000  Uiso   1.00
O924   O     0.96538   0.75000   0.66251   0.00000  Uiso   1.00
O925   O     0.75000   0.53461   0.33749   0.00000  Uiso   1.00
O926   O     0.75000   0.96538   0.66251   0.00000  Uiso   1.00
O927   O     0.96538   0.75000   0.33749   0.00000  Uiso   1.00
O928   O     0.53461   0.75000   0.66251   0.00000  Uiso   1.00
O929   O     0.50000   0.71538   0.83749   0.00000  Uiso   1.00
O930   O     0.50000   0.78461   0.16251   0.00000  Uiso   1.00
O931   O     0.78461   0.50000   0.83749   0.00000  Uiso   1.00
O932   O     0.71538   0.50000   0.16251   0.00000  Uiso   1.00
O933   O     0.50000   0.78461   0.83749   0.00000  Uiso   1.00
O934   O     0.50000   0.71538   0.16251   0.00000  Uiso   1.00
O935   O     0.71538   0.50000   0.83749   0.00000  Uiso   1.00
O936   O     0.78461   0.50000   0.16251   0.00000  Uiso   1.00
O937   O     0.70126   0.58332   0.27298   0.00000  Uiso   1.00
O938   O     0.79873   0.91668   0.72702   0.00000  Uiso   1.00
O939   O     0.91668   0.70126   0.27298   0.00000  Uiso   1.00
O940   O     0.58332   0.79873   0.72702   0.00000  Uiso   1.00
O941   O     0.79873   0.91668   0.27298   0.00000  Uiso   1.00
O942   O     0.70126   0.58332   0.72702   0.00000  Uiso   1.00
O943   O     0.58332   0.79873   0.27298   0.00000  Uiso   1.00
O944   O     0.91668   0.70126   0.72702   0.00000  Uiso   1.00
O945   O     0.70126   0.91668   0.72702   0.00000  Uiso   1.00
O946   O     0.79873   0.58332   0.27298   0.00000  Uiso   1.00
O947   O     0.91668   0.79873   0.72702   0.00000  Uiso   1.00
O948   O     0.58332   0.70126   0.27298   0.00000  Uiso   1.00
O949   O     0.79873   0.58332   0.72702   0.00000  Uiso   1.00
O950   O     0.70126   0.91668   0.27298   0.00000  Uiso   1.00
O951   O     0.58332   0.70126   0.72702   0.00000  Uiso   1.00
O952   O     0.91668   0.79873   0.27298   0.00000  Uiso   1.00
O953   O     0.95126   0.83332   0.77298   0.00000  Uiso   1.00
O954   O     0.54873   0.66668   0.22702   0.00000  Uiso   1.00
O955   O     0.66668   0.95126   0.77298   0.00000  Uiso   1.00
O956   O     0.83332   0.54873   0.22702   0.00000  Uiso   1.00
O957   O     0.54873   0.66668   0.77298   0.00000  Uiso   1.00
O958   O     0.95126   0.83332   0.22702   0.00000  Uiso   1.00
O959   O     0.83332   0.54873   0.77298   0.00000  Uiso   1.00
O960   O     0.66668   0.95126   0.22702   0.00000  Uiso   1.00
O961   O     0.95126   0.66668   0.22702   0.00000  Uiso   1.00
O962   O     0.54873   0.83332   0.77298   0.00000  Uiso   1.00
O963   O     0.66668   0.54873   0.22702   0.00000  Uiso   1.00
O964   O     0.83332   0.95126   0.77298   0.00000  Uiso   1.00
O965   O     0.54873   0.83332   0.22702   0.00000  Uiso   1.00
O966   O     0.95126   0.66668   0.77298   0.00000  Uiso   1.00
O967   O     0.83332   0.95126   0.22702   0.00000  Uiso   1.00
O968   O     0.66668   0.54873   0.77298   0.00000  Uiso   1.00
C969   C     0.75000   0.50000   0.35608   0.00000  Uiso   1.00
C970   C     0.75000   0.50000   0.64385   0.00000  Uiso   1.00
C971   C     0.50000   0.75000   0.35607   0.00000  Uiso   1.00
C972   C     0.50000   0.75000   0.64384   0.00000  Uiso   1.00
C973   C     0.50000   0.75000   0.85611   0.00000  Uiso   1.00
C974   C     0.50000   0.75000   0.14388   0.00000  Uiso   1.00
C975   C     0.75000   0.50000   0.85612   0.00000  Uiso   1.00
C976   C     0.75000   0.50000   0.14389   0.00000  Uiso   1.00
C977   C     0.67000   0.58001   0.24999   0.00000  Uiso   1.00
C978   C     0.83001   0.92000   0.74999   0.00000  Uiso   1.00
C979   C     0.92000   0.67000   0.25000   0.00000  Uiso   1.00
C980   C     0.58000   0.83000   0.75000   0.00000  Uiso   1.00
C981   C     0.83000   0.91999   0.24999   0.00000  Uiso   1.00
C982   C     0.66999   0.58000   0.74999   0.00000  Uiso   1.00
C983   C     0.58000   0.83000   0.25000   0.00000  Uiso   1.00
C984   C     0.92000   0.67000   0.75000   0.00000  Uiso   1.00
C985   C     0.67000   0.92000   0.75000   0.00000  Uiso   1.00
C986   C     0.83001   0.58000   0.25001   0.00000  Uiso   1.00
C987   C     0.92000   0.83000   0.75000   0.00000  Uiso   1.00
C988   C     0.58000   0.67000   0.25000   0.00000  Uiso   1.00
C989   C     0.83000   0.58000   0.75000   0.00000  Uiso   1.00
C990   C     0.66999   0.92000   0.25001   0.00000  Uiso   1.00
C991   C     0.58000   0.67000   0.75000   0.00000  Uiso   1.00
C992   C     0.92000   0.83000   0.25000   0.00000  Uiso   1.00
C993   C     0.63834   0.88835   0.25001   0.00000  Uiso   1.00
C994   C     0.86165   0.61166   0.75001   0.00000  Uiso   1.00
C995   C     0.61166   0.63834   0.24999   0.00000  Uiso   1.00
C996   C     0.88834   0.86166   0.74999   0.00000  Uiso   1.00
C997   C     0.86166   0.61165   0.25001   0.00000  Uiso   1.00
C998   C     0.63835   0.88834   0.75001   0.00000  Uiso   1.00
C999   C     0.88834   0.86166   0.24999   0.00000  Uiso   1.00
C1000  C     0.61166   0.63834   0.74999   0.00000  Uiso   1.00
C1001  C     0.63834   0.61166   0.74999   0.00000  Uiso   1.00
C1002  C     0.86165   0.88834   0.24999   0.00000  Uiso   1.00
C1003  C     0.61166   0.86166   0.75000   0.00000  Uiso   1.00
C1004  C     0.88835   0.63834   0.25001   0.00000  Uiso   1.00
C1005  C     0.86166   0.88834   0.74999   0.00000  Uiso   1.00
C1006  C     0.63835   0.61166   0.24999   0.00000  Uiso   1.00
C1007  C     0.88834   0.63834   0.75000   0.00000  Uiso   1.00
C1008  C     0.61165   0.86166   0.25001   0.00000  Uiso   1.00
C1009  C     0.53563   0.76454   0.41927   0.00000  Uiso   1.00
C1010  C     0.96282   0.75985   0.58036   0.00000  Uiso   1.00
C1011  C     0.73585   0.96422   0.41930   0.00000  Uiso   1.00
C1012  C     0.73974   0.53707   0.58039   0.00000  Uiso   1.00
C1013  C     0.96437   0.73546   0.41927   0.00000  Uiso   1.00
C1014  C     0.53718   0.74015   0.58036   0.00000  Uiso   1.00
C1015  C     0.76415   0.53578   0.41930   0.00000  Uiso   1.00
C1016  C     0.76026   0.96293   0.58039   0.00000  Uiso   1.00
C1017  C     0.71344   0.98802   0.91947   0.00000  Uiso   1.00
C1018  C     0.78639   0.98753   0.08056   0.00000  Uiso   1.00
C1019  C     0.98755   0.78640   0.91944   0.00000  Uiso   1.00
C1020  C     0.98799   0.71345   0.08053   0.00000  Uiso   1.00
C1021  C     0.78656   0.51198   0.91947   0.00000  Uiso   1.00
C1022  C     0.71361   0.51247   0.08057   0.00000  Uiso   1.00
C1023  C     0.51245   0.71360   0.91944   0.00000  Uiso   1.00
C1024  C     0.51201   0.78655   0.08053   0.00000  Uiso   1.00
C1025  C     0.50000   0.75000   0.39868   0.00000  Uiso   1.00
C1026  C     0.50000   0.75000   0.60110   0.00000  Uiso   1.00
C1027  C     0.75000   0.50000   0.39870   0.00000  Uiso   1.00
C1028  C     0.75000   0.50000   0.60112   0.00000  Uiso   1.00
C1029  C     0.75000   0.50000   0.89880   0.00000  Uiso   1.00
C1030  C     0.75000   0.50000   0.10122   0.00000  Uiso   1.00
C1031  C     0.50000   0.75000   0.89878   0.00000  Uiso   1.00
C1032  C     0.50000   0.75000   0.10120   0.00000  Uiso   1.00
C1033  C     0.96180   0.74395   0.45924   0.00000  Uiso   1.00
C1034  C     0.53861   0.74922   0.54045   0.00000  Uiso   1.00
C1035  C     0.75561   0.53826   0.45927   0.00000  Uiso   1.00
C1036  C     0.75123   0.96140   0.54047   0.00000  Uiso   1.00
C1037  C     0.53820   0.75605   0.45924   0.00000  Uiso   1.00
C1038  C     0.96139   0.75078   0.54045   0.00000  Uiso   1.00
C1039  C     0.74439   0.96174   0.45927   0.00000  Uiso   1.00
C1040  C     0.74877   0.53860   0.54047   0.00000  Uiso   1.00
C1041  C     0.78851   0.50315   0.95941   0.00000  Uiso   1.00
C1042  C     0.71153   0.50370   0.04062   0.00000  Uiso   1.00
C1043  C     0.50367   0.71153   0.95938   0.00000  Uiso   1.00
C1044  C     0.50318   0.78851   0.04059   0.00000  Uiso   1.00
C1045  C     0.71149   0.99685   0.95942   0.00000  Uiso   1.00
C1046  C     0.78847   0.99630   0.04062   0.00000  Uiso   1.00
C1047  C     0.99632   0.78847   0.95938   0.00000  Uiso   1.00
C1048  C     0.99682   0.71149   0.04059   0.00000  Uiso   1.00
C1049  C     0.50000   0.75000   0.47958   0.00000  Uiso   1.00
C1050  C     0.50000   0.75000   0.52009   0.00000  Uiso   1.00
C1051  C     0.75000   0.50000   0.47961   0.00000  Uiso   1.00
C1052  C     0.75000   0.50000   0.52011   0.00000  Uiso   1.00
C1053  C     0.75000   0.50000   0.97977   0.00000  Uiso   1.00
C1054  C     0.75000   0.50000   0.02027   0.00000  Uiso   1.00
C1055  C     0.50000   0.75000   0.97973   0.00000  Uiso   1.00
C1056  C     0.50000   0.75000   0.02024   0.00000  Uiso   1.00
C1057  C     0.92290   0.74460   0.47955   0.00000  Uiso   1.00
C1058  C     0.57705   0.75533   0.52023   0.00000  Uiso   1.00
C1059  C     0.75450   0.57715   0.47957   0.00000  Uiso   1.00
C1060  C     0.74558   0.92289   0.52025   0.00000  Uiso   1.00
C1061  C     0.57710   0.75540   0.47955   0.00000  Uiso   1.00
C1062  C     0.92295   0.74467   0.52023   0.00000  Uiso   1.00
C1063  C     0.74550   0.92285   0.47957   0.00000  Uiso   1.00
C1064  C     0.75442   0.57711   0.52025   0.00000  Uiso   1.00
C1065  C     0.82725   0.99947   0.97967   0.00000  Uiso   1.00
C1066  C     0.67274   0.50061   0.02035   0.00000  Uiso   1.00
C1067  C     0.50055   0.67274   0.97965   0.00000  Uiso   1.00
C1068  C     0.99953   0.82725   0.02033   0.00000  Uiso   1.00
C1069  C     0.67275   0.50053   0.97967   0.00000  Uiso   1.00
C1070  C     0.82726   0.99939   0.02035   0.00000  Uiso   1.00
C1071  C     0.99945   0.82726   0.97965   0.00000  Uiso   1.00
C1072  C     0.50047   0.67275   0.02033   0.00000  Uiso   1.00
C1073  C     0.56618   0.79504   0.40037   0.00000  Uiso   1.00
H1074  H     0.54893   0.81695   0.38099   0.00000  Uiso   1.00
H1075  H     0.58181   0.81545   0.42206   0.00000  Uiso   1.00
H1076  H     0.59037   0.77793   0.38337   0.00000  Uiso   1.00
C1077  C     0.92857   0.78656   0.59875   0.00000  Uiso   1.00
H1078  H     0.94287   0.81105   0.61755   0.00000  Uiso   1.00
H1079  H     0.91034   0.80419   0.57672   0.00000  Uiso   1.00
H1080  H     0.90678   0.76685   0.61611   0.00000  Uiso   1.00
C1081  C     0.70564   0.93334   0.40045   0.00000  Uiso   1.00
H1082  H     0.68351   0.95036   0.38111   0.00000  Uiso   1.00
H1083  H     0.72297   0.90934   0.38342   0.00000  Uiso   1.00
H1084  H     0.68544   0.91748   0.42217   0.00000  Uiso   1.00
C1085  C     0.71268   0.57101   0.59882   0.00000  Uiso   1.00
H1086  H     0.68841   0.55644   0.61768   0.00000  Uiso   1.00
H1087  H     0.73217   0.59303   0.61614   0.00000  Uiso   1.00
H1088  H     0.69478   0.58902   0.57681   0.00000  Uiso   1.00
C1089  C     0.93382   0.70496   0.40037   0.00000  Uiso   1.00
H1090  H     0.95107   0.68305   0.38099   0.00000  Uiso   1.00
H1091  H     0.91818   0.68455   0.42206   0.00000  Uiso   1.00
H1092  H     0.90963   0.72207   0.38337   0.00000  Uiso   1.00
C1093  C     0.57143   0.71344   0.59875   0.00000  Uiso   1.00
H1094  H     0.55713   0.68895   0.61755   0.00000  Uiso   1.00
H1095  H     0.58966   0.69581   0.57672   0.00000  Uiso   1.00
H1096  H     0.59322   0.73315   0.61611   0.00000  Uiso   1.00
C1097  C     0.79436   0.56666   0.40045   0.00000  Uiso   1.00
H1098  H     0.81456   0.58252   0.42217   0.00000  Uiso   1.00
H1099  H     0.81649   0.54964   0.38111   0.00000  Uiso   1.00
H1100  H     0.77703   0.59066   0.38342   0.00000  Uiso   1.00
C1101  C     0.78732   0.92899   0.59882   0.00000  Uiso   1.00
H1102  H     0.80522   0.91098   0.57681   0.00000  Uiso   1.00
H1103  H     0.81159   0.94356   0.61768   0.00000  Uiso   1.00
H1104  H     0.76783   0.90697   0.61614   0.00000  Uiso   1.00
C1105  C     0.68080   0.95954   0.90087   0.00000  Uiso   1.00
H1106  H     0.69647   0.93619   0.88178   0.00000  Uiso   1.00
H1107  H     0.66372   0.94058   0.92275   0.00000  Uiso   1.00
H1108  H     0.65787   0.97811   0.88369   0.00000  Uiso   1.00
C1109  C     0.81863   0.95864   0.09923   0.00000  Uiso   1.00
H1110  H     0.80265   0.93557   0.11838   0.00000  Uiso   1.00
H1111  H     0.83544   0.93940   0.07738   0.00000  Uiso   1.00
H1112  H     0.84182   0.97694   0.11636   0.00000  Uiso   1.00
C1113  C     0.95869   0.81866   0.90078   0.00000  Uiso   1.00
H1114  H     0.93560   0.80269   0.88163   0.00000  Uiso   1.00
H1115  H     0.93946   0.83548   0.92263   0.00000  Uiso   1.00
H1116  H     0.97700   0.84184   0.88364   0.00000  Uiso   1.00
C1117  C     0.95949   0.68083   0.09914   0.00000  Uiso   1.00
H1118  H     0.93615   0.69652   0.11823   0.00000  Uiso   1.00
H1119  H     0.94052   0.66377   0.07725   0.00000  Uiso   1.00
H1120  H     0.97804   0.65789   0.11631   0.00000  Uiso   1.00
C1121  C     0.81920   0.54046   0.90087   0.00000  Uiso   1.00
H1122  H     0.80352   0.56381   0.88178   0.00000  Uiso   1.00
H1123  H     0.83628   0.55942   0.92275   0.00000  Uiso   1.00
H1124  H     0.84213   0.52189   0.88369   0.00000  Uiso   1.00
C1125  C     0.68137   0.54136   0.09923   0.00000  Uiso   1.00
H1126  H     0.69735   0.56444   0.11838   0.00000  Uiso   1.00
H1127  H     0.66456   0.56060   0.07738   0.00000  Uiso   1.00
H1128  H     0.65818   0.52306   0.11636   0.00000  Uiso   1.00
C1129  C     0.54131   0.68134   0.90078   0.00000  Uiso   1.00
H1130  H     0.56054   0.66452   0.92263   0.00000  Uiso   1.00
H1131  H     0.52300   0.65816   0.88364   0.00000  Uiso   1.00
H1132  H     0.56440   0.69731   0.88163   0.00000  Uiso   1.00
C1133  C     0.54051   0.81917   0.09914   0.00000  Uiso   1.00
H1134  H     0.55948   0.83623   0.07725   0.00000  Uiso   1.00
H1135  H     0.52195   0.84211   0.11631   0.00000  Uiso   1.00
H1136  H     0.56385   0.80348   0.11823   0.00000  Uiso   1.00
C1137  C     0.88137   0.75152   0.45873   0.00000  Uiso   1.00
H1138  H     0.88607   0.76775   0.43074   0.00000  Uiso   1.00
H1139  H     0.86470   0.72114   0.45439   0.00000  Uiso   1.00
H1140  H     0.86063   0.77285   0.47561   0.00000  Uiso   1.00
C1141  C     0.61713   0.76796   0.54119   0.00000  Uiso   1.00
H1142  H     0.61015   0.78293   0.56937   0.00000  Uiso   1.00
H1143  H     0.63802   0.74026   0.54528   0.00000  Uiso   1.00
H1144  H     0.63455   0.79227   0.52454   0.00000  Uiso   1.00
C1145  C     0.74709   0.61859   0.45874   0.00000  Uiso   1.00
H1146  H     0.72550   0.63907   0.47559   0.00000  Uiso   1.00
H1147  H     0.77728   0.63563   0.45441   0.00000  Uiso   1.00
H1148  H     0.73095   0.61369   0.43073   0.00000  Uiso   1.00
C1149  C     0.73344   0.88265   0.54121   0.00000  Uiso   1.00
H1150  H     0.76140   0.86213   0.54533   0.00000  Uiso   1.00
H1151  H     0.71833   0.88946   0.56937   0.00000  Uiso   1.00
H1152  H     0.70937   0.86491   0.52453   0.00000  Uiso   1.00
C1153  C     0.61863   0.74848   0.45873   0.00000  Uiso   1.00
H1154  H     0.61393   0.73225   0.43074   0.00000  Uiso   1.00
H1155  H     0.63530   0.77886   0.45439   0.00000  Uiso   1.00
H1156  H     0.63937   0.72715   0.47561   0.00000  Uiso   1.00
C1157  C     0.88287   0.73204   0.54119   0.00000  Uiso   1.00
H1158  H     0.88985   0.71707   0.56938   0.00000  Uiso   1.00
H1159  H     0.86198   0.75974   0.54528   0.00000  Uiso   1.00
H1160  H     0.86545   0.70773   0.52454   0.00000  Uiso   1.00
C1161  C     0.75291   0.88141   0.45874   0.00000  Uiso   1.00
H1162  H     0.76905   0.88631   0.43073   0.00000  Uiso   1.00
H1163  H     0.77450   0.86093   0.47559   0.00000  Uiso   1.00
H1164  H     0.72273   0.86437   0.45441   0.00000  Uiso   1.00
C1165  C     0.76656   0.61735   0.54120   0.00000  Uiso   1.00
H1166  H     0.78167   0.61054   0.56936   0.00000  Uiso   1.00
H1167  H     0.79063   0.63508   0.52453   0.00000  Uiso   1.00
H1168  H     0.73860   0.63787   0.54533   0.00000  Uiso   1.00
C1169  C     0.86808   0.98939   0.95877   0.00000  Uiso   1.00
H1170  H     0.86208   0.97378   0.93068   0.00000  Uiso   1.00
H1171  H     0.88710   0.51838   0.95453   0.00000  Uiso   1.00
H1172  H     0.88707   0.96638   0.97553   0.00000  Uiso   1.00
C1173  C     0.63176   0.99112   0.04124   0.00000  Uiso   1.00
H1174  H     0.63751   0.97538   0.06931   0.00000  Uiso   1.00
H1175  H     0.61319   0.52039   0.04550   0.00000  Uiso   1.00
H1176  H     0.61242   0.96843   0.02446   0.00000  Uiso   1.00
C1177  C     0.99103   0.63177   0.95876   0.00000  Uiso   1.00
H1178  H     0.96832   0.61245   0.97554   0.00000  Uiso   1.00
H1179  H     0.97530   0.63753   0.93069   0.00000  Uiso   1.00
H1180  H     0.52029   0.61317   0.95450   0.00000  Uiso   1.00
C1181  C     0.98948   0.86809   0.04123   0.00000  Uiso   1.00
H1182  H     0.96649   0.88709   0.02447   0.00000  Uiso   1.00
H1183  H     0.97386   0.86210   0.06932   0.00000  Uiso   1.00
H1184  H     0.51848   0.88709   0.04547   0.00000  Uiso   1.00
C1185  C     0.63192   0.51061   0.95877   0.00000  Uiso   1.00
H1186  H     0.63792   0.52622   0.93068   0.00000  Uiso   1.00
H1187  H     0.61289   0.98162   0.95454   0.00000  Uiso   1.00
H1188  H     0.61293   0.53362   0.97553   0.00000  Uiso   1.00
C1189  C     0.86824   0.50888   0.04124   0.00000  Uiso   1.00
H1190  H     0.86249   0.52462   0.06931   0.00000  Uiso   1.00
H1191  H     0.88681   0.97961   0.04550   0.00000  Uiso   1.00
H1192  H     0.88758   0.53157   0.02446   0.00000  Uiso   1.00
C1193  C     0.50897   0.86823   0.95876   0.00000  Uiso   1.00
H1194  H     0.52470   0.86246   0.93069   0.00000  Uiso   1.00
H1195  H     0.97971   0.88683   0.95450   0.00000  Uiso   1.00
H1196  H     0.53168   0.88755   0.97554   0.00000  Uiso   1.00
C1197  C     0.51052   0.63191   0.04123   0.00000  Uiso   1.00
H1198  H     0.52613   0.63790   0.06932   0.00000  Uiso   1.00
H1199  H     0.98152   0.61291   0.04547   0.00000  Uiso   1.00
H1200  H     0.53351   0.61291   0.02447   0.00000  Uiso   1.00
loop_
_geom_bond_atom_site_label_1
_geom_bond_atom_site_label_2
_geom_bond_distance
_geom_bond_site_symmetry_2
_ccdc_geom_bond_type
Zn1    O17     1.936   .     S
Zn1    O63     1.912   .     S
Zn1    O32     1.957   .     S
Zn1    O660    1.912   1_545 S
Zn2    O59     1.912   .     S
Zn2    O31     1.957   .     S
Zn2    O18     1.936   .     S
Zn2    O664    1.912   1_545 S
Zn3    O54     1.912   .     S
Zn3    O19     1.936   .     S
Zn3    O34     1.957   .     S
Zn3    O361    1.912   1_455 S
Zn4    O20     1.936   .     S
Zn4    O33     1.957   .     S
Zn4    O62     1.912   .     S
Zn4    O353    1.912   1_455 S
Zn5    O36     1.957   .     S
Zn5    O56     1.912   .     S
Zn5    O17     1.936   .     S
Zn5    O667    1.912   1_545 S
Zn6    O35     1.957   .     S
Zn6    O68     1.912   .     S
Zn6    O18     1.936   .     S
Zn6    O655    1.912   1_545 S
Zn7    O19     1.936   .     S
Zn7    O65     1.912   .     S
Zn7    O30     1.957   .     S
Zn7    O358    1.912   1_455 S
Zn8    O57     1.912   .     S
Zn8    O29     1.957   .     S
Zn8    O20     1.936   .     S
Zn8    O366    1.912   1_455 S
Zn9    O47     1.912   .     S
Zn9    O44     1.912   .     S
Zn9    O24     1.957   .     S
Zn9    O320    1.936   .     S
Zn10   O19     1.936   .     S
Zn10   O48     1.912   .     S
Zn10   O43     1.912   .     S
Zn10   O23     1.957   .     S
Zn11   O45     1.912   .     S
Zn11   O38     1.912   .     S
Zn11   O26     1.957   .     S
Zn11   O618    1.936   .     S
Zn12   O46     1.912   .     S
Zn12   O37     1.912   .     S
Zn12   O17     1.936   .     S
Zn12   O25     1.957   .     S
Zn13   O51     1.912   .     S
Zn13   O20     1.936   .     S
Zn13   O40     1.912   .     S
Zn13   O28     1.957   .     S
Zn14   O52     1.912   .     S
Zn14   O39     1.912   .     S
Zn14   O27     1.957   .     S
Zn14   O319    1.936   .     S
Zn15   O42     1.912   .     S
Zn15   O49     1.912   .     S
Zn15   O18     1.936   .     S
Zn15   O22     1.957   .     S
Zn16   O21     1.957   .     S
Zn16   O41     1.912   .     S
Zn16   O50     1.912   .     S
Zn16   O617    1.936   .     S
O17    Zn616   1.936   1_545 S
O18    Zn611   1.936   1_545 S
O19    Zn314   1.936   1_455 S
O20    Zn309   1.936   1_455 S
O21    C669    1.273   .     A
O22    C70     1.274   .     A
O23    C71     1.273   .     S
O24    C372    1.275   .     S
O25    C69     1.273   .     S
O26    C670    1.274   .     S
O27    C371    1.273   .     A
O28    C72     1.275   .     A
O29    C73     1.274   .     S
O30    C74     1.274   .     A
O31    C75     1.274   .     A
O32    C76     1.274   .     A
O33    C73     1.274   .     S
O34    C74     1.274   .     S
O35    C75     1.274   .     A
O36    C76     1.274   .     A
O37    C77     1.277   .     A
O38    C78     1.276   .     A
O39    C79     1.277   .     A
O40    C80     1.277   .     A
O41    C81     1.277   .     A
O42    C82     1.276   .     A
O43    C83     1.277   .     A
O44    C84     1.277   .     A
O45    C85     1.277   .     A
O46    C86     1.277   .     A
O47    C87     1.277   .     A
O48    C88     1.277   .     A
O49    C89     1.277   .     A
O50    C90     1.277   .     A
O51    C91     1.277   .     A
O52    C92     1.277   .     A
O53    C87     1.277   .     A
O53    Zn304   1.912   .     S
O54    C88     1.277   .     A
O55    C85     1.277   .     A
O55    Zn606   1.912   .     S
O56    C86     1.277   .     A
O57    C91     1.277   .     A
O58    C92     1.277   .     A
O58    Zn307   1.912   .     S
O59    C89     1.277   .     A
O60    C90     1.277   .     A
O60    Zn601   1.912   .     S
O61    C79     1.277   .     A
O61    Zn303   1.912   .     S
O62    C80     1.277   .     A
O63    C77     1.277   .     A
O64    C78     1.277   .     A
O64    Zn602   1.912   .     S
O65    C83     1.277   .     A
O66    C84     1.277   .     A
O66    Zn308   1.912   .     S
O67    C81     1.277   .     A
O67    Zn605   1.912   .     S
O68    C82     1.277   .     A
C69    O621    1.273   1_545 A
C69    C127    1.478   .     S
C70    C128    1.482   .     S
C70    O626    1.274   1_545 S
C71    O327    1.273   1_455 A
C71    C125    1.477   .     S
C72    C126    1.482   .     S
C72    O324    1.275   1_455 S
C73    C131    1.479   .     S
C74    C132    1.480   .     S
C75    C129    1.480   .     S
C76    C130    1.479   .     S
C77    C106    1.420   .     S
C78    C105    1.420   .     S
C79    C104    1.420   .     S
C80    C103    1.420   .     S
C81    C102    1.420   .     S
C82    C101    1.420   .     S
C83    C108    1.420   .     S
C84    C107    1.420   .     S
C85    C98     1.420   .     S
C86    C97     1.420   .     S
C87    C96     1.420   .     S
C88    C95     1.420   .     S
C89    C94     1.420   .     S
C90    C93     1.420   .     S
C91    C100    1.420   .     S
C92    C99     1.420   .     S
C93    C108    1.197   .     T
C94    C107    1.197   .     T
C95    C106    1.197   .     T
C96    C105    1.197   .     T
C97    C104    1.197   .     T
C98    C103    1.197   .     T
C99    C102    1.197   .     T
C100   C101    1.197   .     T
C109   C173    1.518   .     S
C109   C137    1.414   .     A
C109   C125    1.414   .     S
C110   C138    1.414   .     A
C110   C177    1.518   .     S
C110   C426    1.416   .     S
C111   C139    1.414   .     A
C111   C181    1.518   .     S
C111   C727    1.414   .     A
C112   C140    1.414   .     A
C112   C185    1.518   .     S
C112   C128    1.416   .     A
C113   C133    1.414   .     A
C113   C189    1.518   .     S
C113   C425    1.414   .     A
C114   C134    1.414   .     A
C114   C193    1.518   .     S
C114   C126    1.416   .     A
C115   C135    1.414   .     A
C115   C197    1.518   .     S
C115   C127    1.414   .     S
C116   C201    1.518   .     S
C116   C136    1.414   .     A
C116   C728    1.416   .     S
C117   C205    1.518   .     S
C117   C145    1.414   .     A
C117   C729    1.415   .     S
C118   C209    1.518   .     S
C118   C146    1.414   .     A
C118   C730    1.415   .     S
C119   C431    1.415   .     A
C119   C147    1.414   .     A
C119   C213    1.518   .     S
C120   C217    1.518   .     S
C120   C148    1.414   .     A
C120   C432    1.415   .     A
C121   C141    1.414   .     A
C121   C129    1.415   .     A
C121   C221    1.518   .     S
C122   C225    1.518   .     S
C122   C142    1.414   .     A
C122   C130    1.415   .     A
C123   C229    1.518   .     S
C123   C143    1.414   .     A
C123   C131    1.415   .     S
C124   C233    1.518   .     S
C124   C144    1.414   .     A
C124   C132    1.415   .     S
C125   C413    1.414   1_455 A
C126   C410    1.416   1_455 S
C127   C711    1.414   1_545 A
C128   C716    1.416   1_545 S
C129   C717    1.415   1_545 S
C130   C718    1.415   1_545 S
C131   C419    1.415   1_455 A
C132   C420    1.415   1_455 A
C133   C157    1.421   .     A
C133   C449    1.415   .     A
C134   C158    1.420   .     A
C134   C150    1.414   .     A
C135   C159    1.421   .     A
C135   C151    1.415   .     S
C136   C160    1.420   .     A
C136   C752    1.414   .     S
C137   C161    1.421   .     A
C137   C149    1.415   .     S
C138   C162    1.420   .     A
C138   C450    1.414   .     S
C139   C751    1.415   .     A
C139   C163    1.421   .     A
C140   C152    1.414   .     A
C140   C164    1.420   .     A
C141   C153    1.414   .     A
C141   C765    1.420   1_545 S
C142   C166    1.420   .     A
C142   C154    1.414   .     A
C143   C167    1.420   .     A
C143   C155    1.414   .     S
C144   C156    1.414   .     S
C144   C468    1.420   1_455 S
C145   C753    1.414   .     S
C145   C769    1.420   .     S
C146   C170    1.420   .     A
C146   C754    1.414   .     S
C147   C455    1.414   .     A
C147   C171    1.420   .     A
C148   C456    1.414   .     A
C148   C472    1.420   .     S
C149   C433    1.415   1_455 A
C149   C150    1.404   .     S
C150   C438    1.414   1_455 S
C151   C739    1.415   1_545 A
C151   C152    1.404   .     S
C152   C736    1.414   1_545 S
C153   C745    1.414   1_545 S
C153   C154    1.404   1_556 S
C154   C746    1.414   1_545 S
C154   C153    1.404   1_554 S
C155   C447    1.414   1_455 A
C155   C156    1.404   1_556 S
C156   C448    1.414   1_455 A
C156   C155    1.404   1_554 S
C157   C162    1.410   .     A
C157   C237    1.518   .     S
C158   C161    1.410   .     A
C158   C241    1.518   .     S
C159   C245    1.518   .     S
C159   C164    1.410   .     A
C160   C163    1.410   .     A
C160   C249    1.518   .     S
C161   C253    1.518   .     S
C162   C257    1.518   .     S
C163   C261    1.518   .     S
C164   C265    1.518   .     S
C165   C269    1.518   .     S
C165   C741    1.420   .     S
C165   C170    1.410   1_556 S
C166   C169    1.410   1_554 S
C166   C873    1.518   1_545 S
C167   C172    1.410   1_556 S
C167   C577    1.518   1_455 S
C168   C281    1.518   .     S
C168   C444    1.420   .     S
C168   C171    1.410   1_554 S
C169   C285    1.518   .     S
C169   C166    1.410   1_556 S
C169   C745    1.420   1_545 S
C170   C165    1.410   1_554 S
C170   C889    1.518   .     S
C171   C168    1.410   1_556 S
C171   C593    1.518   .     S
C172   C297    1.518   .     S
C172   C448    1.420   1_455 S
C172   C167    1.410   1_554 S
C173   H175    1.109   .     S
C173   H176    1.109   .     S
C173   H174    1.111   .     S
C177   H179    1.110   .     S
C177   H178    1.111   .     S
C177   H180    1.109   .     S
C181   H182    1.111   .     S
C181   H183    1.109   .     S
C181   H184    1.109   .     S
C185   H187    1.109   .     S
C185   H186    1.111   .     S
C185   H188    1.110   .     S
C189   H191    1.109   .     S
C189   H190    1.111   .     S
C189   H192    1.109   .     S
C193   H194    1.111   .     S
C193   H196    1.109   .     S
C193   H195    1.110   .     S
C197   H199    1.111   .     S
C197   H198    1.109   .     S
C197   H200    1.109   .     S
C201   H203    1.111   .     S
C201   H202    1.110   .     S
C201   H204    1.109   .     S
C205   H206    1.111   .     S
C205   H208    1.109   .     S
C205   H207    1.109   .     S
C209   H210    1.111   .     S
C209   H212    1.109   .     S
C209   H211    1.109   .     S
C213   H216    1.109   .     S
C213   H215    1.109   .     S
C213   H214    1.111   .     S
C217   H218    1.111   .     S
C217   H220    1.109   .     S
C217   H219    1.109   .     S
C221   H222    1.111   .     S
C221   H224    1.109   .     S
C221   H223    1.109   .     S
C225   H228    1.109   .     S
C225   H227    1.109   .     S
C225   H226    1.111   .     S
C229   H230    1.109   .     S
C229   H232    1.111   .     S
C229   H231    1.109   .     S
C233   H234    1.109   .     S
C233   H236    1.111   .     S
C233   H235    1.109   .     S
C237   H238    1.109   .     S
C237   H239    1.110   .     S
C237   H240    1.110   .     S
C241   H244    1.111   .     S
C241   H242    1.109   .     S
C241   H243    1.110   .     S
C245   H246    1.110   .     S
C245   H248    1.109   .     S
C245   H247    1.110   .     S
C249   H250    1.110   .     S
C249   H252    1.111   .     S
C249   H251    1.109   .     S
C253   H255    1.110   .     S
C253   H256    1.110   .     S
C253   H254    1.109   .     S
C257   H259    1.110   .     S
C257   H258    1.109   .     S
C257   H260    1.111   .     S
C261   H262    1.109   .     S
C261   H264    1.110   .     S
C261   H263    1.110   .     S
C265   H267    1.111   .     S
C265   H266    1.109   .     S
C265   H268    1.110   .     S
C269   H270    1.109   .     S
C269   H272    1.110   .     S
C269   H871    1.110   .     S
H271   C869    1.110   1_545 S
C273   H276    1.110   .     S
C273   H274    1.109   .     S
C273   C766    1.518   .     S
C273   H875    1.110   .     S
H275   C873    1.110   1_545 S
C277   H279    1.109   .     S
C277   H278    1.110   .     S
C277   C467    1.518   .     S
C277   H580    1.110   .     S
H280   C577    1.110   1_455 S
C281   H283    1.109   .     S
C281   H282    1.110   .     S
C281   H584    1.110   .     S
H284   C581    1.110   1_455 S
C285   H286    1.109   .     S
C285   H288    1.110   .     S
C285   H887    1.110   1_545 S
H287   C885    1.110   .     S
C289   H292    1.110   .     S
C289   H290    1.109   .     S
C289   C770    1.518   1_545 S
C289   H891    1.110   1_545 S
H291   C889    1.110   .     S
C293   H296    1.110   .     S
C293   H294    1.109   .     S
C293   C471    1.518   1_455 S
C293   H595    1.110   1_455 S
H295   C593    1.110   .     S
C297   H298    1.109   .     S
C297   H300    1.110   .     S
C297   H599    1.110   1_455 S
H299   C597    1.110   .     S
Zn301  O317    1.936   .     S
Zn301  O363    1.912   .     S
Zn301  O332    1.957   .     S
Zn301  O960    1.912   1_545 S
Zn302  O359    1.912   .     S
Zn302  O331    1.957   .     S
Zn302  O318    1.936   .     S
Zn302  O964    1.912   1_545 S
Zn303  O354    1.912   .     S
Zn303  O319    1.936   .     S
Zn303  O334    1.957   .     S
Zn304  O320    1.936   .     S
Zn304  O333    1.957   .     S
Zn304  O362    1.912   .     S
Zn305  O336    1.957   .     S
Zn305  O356    1.912   .     S
Zn305  O317    1.936   .     S
Zn305  O967    1.912   1_545 S
Zn306  O335    1.957   .     S
Zn306  O368    1.912   .     S
Zn306  O318    1.936   .     S
Zn306  O955    1.912   1_545 S
Zn307  O319    1.936   .     S
Zn307  O365    1.912   .     S
Zn307  O330    1.957   .     S
Zn308  O357    1.912   .     S
Zn308  O329    1.957   .     S
Zn308  O320    1.936   .     S
Zn309  O347    1.912   .     S
Zn309  O344    1.912   .     S
Zn309  O324    1.957   .     S
Zn309  O20     1.936   1_655 S
Zn310  O319    1.936   .     S
Zn310  O348    1.912   .     S
Zn310  O343    1.912   .     S
Zn310  O323    1.957   .     S
Zn311  O345    1.912   .     S
Zn311  O338    1.912   .     S
Zn311  O326    1.957   .     S
Zn311  O918    1.936   .     S
Zn312  O346    1.912   .     S
Zn312  O337    1.912   .     S
Zn312  O317    1.936   .     S
Zn312  O325    1.957   .     S
Zn313  O351    1.912   .     S
Zn313  O320    1.936   .     S
Zn313  O340    1.912   .     S
Zn313  O328    1.957   .     S
Zn314  O352    1.912   .     S
Zn314  O339    1.912   .     S
Zn314  O327    1.957   .     S
Zn314  O19     1.936   1_655 S
Zn315  O342    1.912   .     S
Zn315  O349    1.912   .     S
Zn315  O318    1.936   .     S
Zn315  O322    1.957   .     S
Zn316  O321    1.957   .     S
Zn316  O341    1.912   .     S
Zn316  O350    1.912   .     S
Zn316  O917    1.936   .     S
O317   Zn916   1.936   1_545 S
O318   Zn911   1.936   1_545 S
O321   C969    1.273   .     A
O322   C370    1.274   .     A
O323   C371    1.273   .     S
O324   C72     1.275   1_655 S
O325   C369    1.273   .     S
O326   C970    1.274   .     S
O327   C71     1.273   1_655 A
O328   C372    1.275   .     A
O329   C373    1.274   .     S
O330   C374    1.274   .     A
O331   C375    1.274   .     A
O332   C376    1.274   .     A
O333   C373    1.274   .     S
O334   C374    1.274   .     S
O335   C375    1.274   .     A
O336   C376    1.274   .     A
O337   C377    1.277   .     A
O338   C378    1.276   .     A
O339   C379    1.277   .     A
O340   C380    1.277   .     A
O341   C381    1.277   .     A
O342   C382    1.276   .     A
O343   C383    1.277   .     A
O344   C384    1.277   .     A
O345   C385    1.277   .     A
O346   C386    1.277   .     A
O347   C387    1.277   .     A
O348   C388    1.277   .     A
O349   C389    1.277   .     A
O350   C390    1.277   .     A
O351   C391    1.277   .     A
O352   C392    1.277   .     A
O353   C387    1.277   .     A
O353   Zn4     1.912   1_655 S
O354   C388    1.277   .     A
O355   C385    1.277   .     A
O355   Zn906   1.912   .     S
O356   C386    1.277   .     A
O357   C391    1.277   .     A
O358   C392    1.277   .     A
O358   Zn7     1.912   1_655 S
O359   C389    1.277   .     A
O360   C390    1.277   .     A
O360   Zn901   1.912   .     S
O361   C379    1.277   .     A
O361   Zn3     1.912   1_655 S
O362   C380    1.277   .     A
O363   C377    1.277   .     A
O364   C378    1.277   .     A
O364   Zn902   1.912   .     S
O365   C383    1.277   .     A
O366   C384    1.277   .     A
O366   Zn8     1.912   1_655 S
O367   C381    1.277   .     A
O367   Zn905   1.912   .     S
O368   C382    1.277   .     A
C369   O921    1.273   1_545 A
C369   C427    1.478   .     S
C370   C428    1.482   .     S
C370   O926    1.274   1_545 S
C371   C425    1.477   .     S
C372   C426    1.482   .     S
C373   C431    1.479   .     S
C374   C432    1.480   .     S
C375   C429    1.480   .     S
C376   C430    1.479   .     S
C377   C406    1.420   .     S
C378   C405    1.420   .     S
C379   C404    1.420   .     S
C380   C403    1.420   .     S
C381   C402    1.420   .     S
C382   C401    1.420   .     S
C383   C408    1.420   .     S
C384   C407    1.420   .     S
C385   C398    1.420   .     S
C386   C397    1.420   .     S
C387   C396    1.420   .     S
C388   C395    1.420   .     S
C389   C394    1.420   .     S
C390   C393    1.420   .     S
C391   C400    1.420   .     S
C392   C399    1.420   .     S
C393   C408    1.197   .     T
C394   C407    1.197   .     T
C395   C406    1.197   .     T
C396   C405    1.197   .     T
C397   C404    1.197   .     T
C398   C403    1.197   .     T
C399   C402    1.197   .     T
C400   C401    1.197   .     T
C409   C473    1.518   .     S
C409   C437    1.414   .     A
C409   C425    1.414   .     S
C410   C438    1.414   .     A
C410   C477    1.518   .     S
C410   C126    1.416   1_655 S
C411   C439    1.414   .     A
C411   C481    1.518   .     S
C411   C1027   1.414   .     A
C412   C440    1.414   .     A
C412   C485    1.518   .     S
C412   C428    1.416   .     A
C413   C433    1.414   .     A
C413   C489    1.518   .     S
C413   C125    1.414   1_655 A
C414   C434    1.414   .     A
C414   C493    1.518   .     S
C414   C426    1.416   .     A
C415   C435    1.414   .     A
C415   C497    1.518   .     S
C415   C427    1.414   .     S
C416   C501    1.518   .     S
C416   C436    1.414   .     A
C416   C1028   1.416   .     S
C417   C505    1.518   .     S
C417   C445    1.414   .     A
C417   C1029   1.415   .     S
C418   C509    1.518   .     S
C418   C446    1.414   .     A
C418   C1030   1.415   .     S
C419   C131    1.415   1_655 A
C419   C447    1.414   .     A
C419   C513    1.518   .     S
C420   C517    1.518   .     S
C420   C448    1.414   .     A
C420   C132    1.415   1_655 A
C421   C441    1.414   .     A
C421   C429    1.415   .     A
C421   C521    1.518   .     S
C422   C525    1.518   .     S
C422   C442    1.414   .     A
C422   C430    1.415   .     A
C423   C529    1.518   .     S
C423   C443    1.414   .     A
C423   C431    1.415   .     S
C424   C533    1.518   .     S
C424   C444    1.414   .     A
C424   C432    1.415   .     S
C427   C1011   1.414   1_545 A
C428   C1016   1.416   1_545 S
C429   C1017   1.415   1_545 S
C430   C1018   1.415   1_545 S
C433   C457    1.421   .     A
C433   C149    1.415   1_655 A
C434   C458    1.420   .     A
C434   C450    1.414   .     A
C435   C459    1.421   .     A
C435   C451    1.415   .     S
C436   C460    1.420   .     A
C436   C1052   1.414   .     S
C437   C461    1.421   .     A
C437   C449    1.415   .     S
C438   C462    1.420   .     A
C438   C150    1.414   1_655 S
C439   C1051   1.415   .     A
C439   C463    1.421   .     A
C440   C452    1.414   .     A
C440   C464    1.420   .     A
C441   C453    1.414   .     A
C441   C1065   1.420   1_545 S
C442   C466    1.420   .     A
C442   C454    1.414   .     A
C443   C467    1.420   .     A
C443   C455    1.414   .     S
C444   C456    1.414   .     S
C445   C1053   1.414   .     S
C445   C1069   1.420   .     S
C446   C470    1.420   .     A
C446   C1054   1.414   .     S
C447   C155    1.414   1_655 A
C447   C471    1.420   .     A
C448   C156    1.414   1_655 A
C448   C172    1.420   1_655 S
C449   C450    1.404   .     S
C451   C1039   1.415   1_545 A
C451   C452    1.404   .     S
C452   C1036   1.414   1_545 S
C453   C1045   1.414   1_545 S
C453   C454    1.404   1_556 S
C454   C1046   1.414   1_545 S
C454   C453    1.404   1_554 S
C455   C456    1.404   1_556 S
C456   C455    1.404   1_554 S
C457   C462    1.410   .     A
C457   C537    1.518   .     S
C458   C461    1.410   .     A
C458   C541    1.518   .     S
C459   C545    1.518   .     S
C459   C464    1.410   .     A
C460   C463    1.410   .     A
C460   C549    1.518   .     S
C461   C553    1.518   .     S
C462   C557    1.518   .     S
C463   C561    1.518   .     S
C464   C565    1.518   .     S
C465   C569    1.518   .     S
C465   C1041   1.420   .     S
C465   C470    1.410   1_556 S
C466   C469    1.410   1_554 S
C466   C1173   1.518   1_545 S
C467   C472    1.410   1_556 S
C468   C581    1.518   .     S
C468   C144    1.420   1_655 S
C468   C471    1.410   1_554 S
C469   C585    1.518   .     S
C469   C466    1.410   1_556 S
C469   C1045   1.420   1_545 S
C470   C465    1.410   1_554 S
C470   C1189   1.518   .     S
C471   C468    1.410   1_556 S
C471   C293    1.518   1_655 S
C472   C597    1.518   .     S
C472   C467    1.410   1_554 S
C473   H475    1.109   .     S
C473   H476    1.109   .     S
C473   H474    1.111   .     S
C477   H479    1.110   .     S
C477   H478    1.111   .     S
C477   H480    1.109   .     S
C481   H482    1.111   .     S
C481   H483    1.109   .     S
C481   H484    1.109   .     S
C485   H487    1.109   .     S
C485   H486    1.111   .     S
C485   H488    1.110   .     S
C489   H491    1.109   .     S
C489   H490    1.111   .     S
C489   H492    1.109   .     S
C493   H494    1.111   .     S
C493   H496    1.109   .     S
C493   H495    1.110   .     S
C497   H499    1.111   .     S
C497   H498    1.109   .     S
C497   H500    1.109   .     S
C501   H503    1.111   .     S
C501   H502    1.110   .     S
C501   H504    1.109   .     S
C505   H506    1.111   .     S
C505   H508    1.109   .     S
C505   H507    1.109   .     S
C509   H510    1.111   .     S
C509   H512    1.109   .     S
C509   H511    1.109   .     S
C513   H516    1.109   .     S
C513   H515    1.109   .     S
C513   H514    1.111   .     S
C517   H518    1.111   .     S
C517   H520    1.109   .     S
C517   H519    1.109   .     S
C521   H522    1.111   .     S
C521   H524    1.109   .     S
C521   H523    1.109   .     S
C525   H528    1.109   .     S
C525   H527    1.109   .     S
C525   H526    1.111   .     S
C529   H530    1.109   .     S
C529   H532    1.111   .     S
C529   H531    1.109   .     S
C533   H534    1.109   .     S
C533   H536    1.111   .     S
C533   H535    1.109   .     S
C537   H538    1.109   .     S
C537   H539    1.110   .     S
C537   H540    1.110   .     S
C541   H544    1.111   .     S
C541   H542    1.109   .     S
C541   H543    1.110   .     S
C545   H546    1.110   .     S
C545   H548    1.109   .     S
C545   H547    1.110   .     S
C549   H550    1.110   .     S
C549   H552    1.111   .     S
C549   H551    1.109   .     S
C553   H555    1.110   .     S
C553   H556    1.110   .     S
C553   H554    1.109   .     S
C557   H559    1.110   .     S
C557   H558    1.109   .     S
C557   H560    1.111   .     S
C561   H562    1.109   .     S
C561   H564    1.110   .     S
C561   H563    1.110   .     S
C565   H567    1.111   .     S
C565   H566    1.109   .     S
C565   H568    1.110   .     S
C569   H570    1.109   .     S
C569   H572    1.110   .     S
C569   H1171   1.110   .     S
H571   C1169   1.110   1_545 S
C573   H576    1.110   .     S
C573   H574    1.109   .     S
C573   C1066   1.518   .     S
C573   H1175   1.110   .     S
H575   C1173   1.110   1_545 S
C577   H579    1.109   .     S
C577   H578    1.110   .     S
C577   C167    1.518   1_655 S
C577   H280    1.110   1_655 S
C581   H583    1.109   .     S
C581   H582    1.110   .     S
C581   H284    1.110   1_655 S
C585   H586    1.109   .     S
C585   H588    1.110   .     S
C585   H1187   1.110   1_545 S
H587   C1185   1.110   .     S
C589   H592    1.110   .     S
C589   H590    1.109   .     S
C589   C1070   1.518   1_545 S
C589   H1191   1.110   1_545 S
H591   C1189   1.110   .     S
C593   H596    1.110   .     S
C593   H594    1.109   .     S
H595   C293    1.110   1_655 S
C597   H598    1.109   .     S
C597   H600    1.110   .     S
H599   C297    1.110   1_655 S
Zn601  O617    1.936   .     S
Zn601  O663    1.912   .     S
Zn601  O632    1.957   .     S
Zn602  O659    1.912   .     S
Zn602  O631    1.957   .     S
Zn602  O618    1.936   .     S
Zn603  O654    1.912   .     S
Zn603  O619    1.936   .     S
Zn603  O634    1.957   .     S
Zn603  O961    1.912   1_455 S
Zn604  O620    1.936   .     S
Zn604  O633    1.957   .     S
Zn604  O662    1.912   .     S
Zn604  O953    1.912   1_455 S
Zn605  O636    1.957   .     S
Zn605  O656    1.912   .     S
Zn605  O617    1.936   .     S
Zn606  O635    1.957   .     S
Zn606  O668    1.912   .     S
Zn606  O618    1.936   .     S
Zn607  O619    1.936   .     S
Zn607  O665    1.912   .     S
Zn607  O630    1.957   .     S
Zn607  O958    1.912   1_455 S
Zn608  O657    1.912   .     S
Zn608  O629    1.957   .     S
Zn608  O620    1.936   .     S
Zn608  O966    1.912   1_455 S
Zn609  O647    1.912   .     S
Zn609  O644    1.912   .     S
Zn609  O624    1.957   .     S
Zn609  O920    1.936   .     S
Zn610  O619    1.936   .     S
Zn610  O648    1.912   .     S
Zn610  O643    1.912   .     S
Zn610  O623    1.957   .     S
Zn611  O645    1.912   .     S
Zn611  O638    1.912   .     S
Zn611  O626    1.957   .     S
Zn611  O18     1.936   1_565 S
Zn612  O646    1.912   .     S
Zn612  O637    1.912   .     S
Zn612  O617    1.936   .     S
Zn612  O625    1.957   .     S
Zn613  O651    1.912   .     S
Zn613  O620    1.936   .     S
Zn613  O640    1.912   .     S
Zn613  O628    1.957   .     S
Zn614  O652    1.912   .     S
Zn614  O639    1.912   .     S
Zn614  O627    1.957   .     S
Zn614  O919    1.936   .     S
Zn615  O642    1.912   .     S
Zn615  O649    1.912   .     S
Zn615  O618    1.936   .     S
Zn615  O622    1.957   .     S
Zn616  O621    1.957   .     S
Zn616  O641    1.912   .     S
Zn616  O650    1.912   .     S
Zn616  O17     1.936   1_565 S
O619   Zn914   1.936   1_455 S
O620   Zn909   1.936   1_455 S
O621   C69     1.273   1_565 A
O622   C670    1.274   .     A
O623   C671    1.273   .     S
O624   C972    1.275   .     S
O625   C669    1.273   .     S
O626   C70     1.274   1_565 S
O627   C971    1.273   .     A
O628   C672    1.275   .     A
O629   C673    1.274   .     S
O630   C674    1.274   .     A
O631   C675    1.274   .     A
O632   C676    1.274   .     A
O633   C673    1.274   .     S
O634   C674    1.274   .     S
O635   C675    1.274   .     A
O636   C676    1.274   .     A
O637   C677    1.277   .     A
O638   C678    1.276   .     A
O639   C679    1.277   .     A
O640   C680    1.277   .     A
O641   C681    1.277   .     A
O642   C682    1.276   .     A
O643   C683    1.277   .     A
O644   C684    1.277   .     A
O645   C685    1.277   .     A
O646   C686    1.277   .     A
O647   C687    1.277   .     A
O648   C688    1.277   .     A
O649   C689    1.277   .     A
O650   C690    1.277   .     A
O651   C691    1.277   .     A
O652   C692    1.277   .     A
O653   C687    1.277   .     A
O653   Zn904   1.912   .     S
O654   C688    1.277   .     A
O655   C685    1.277   .     A
O655   Zn6     1.912   1_565 S
O656   C686    1.277   .     A
O657   C691    1.277   .     A
O658   C692    1.277   .     A
O658   Zn907   1.912   .     S
O659   C689    1.277   .     A
O660   C690    1.277   .     A
O660   Zn1     1.912   1_565 S
O661   C679    1.277   .     A
O661   Zn903   1.912   .     S
O662   C680    1.277   .     A
O663   C677    1.277   .     A
O664   C678    1.277   .     A
O664   Zn2     1.912   1_565 S
O665   C683    1.277   .     A
O666   C684    1.277   .     A
O666   Zn908   1.912   .     S
O667   C681    1.277   .     A
O667   Zn5     1.912   1_565 S
O668   C682    1.277   .     A
C669   C727    1.478   .     S
C670   C728    1.482   .     S
C671   O927    1.273   1_455 A
C671   C725    1.477   .     S
C672   C726    1.482   .     S
C672   O924    1.275   1_455 S
C673   C731    1.479   .     S
C674   C732    1.480   .     S
C675   C729    1.480   .     S
C676   C730    1.479   .     S
C677   C706    1.420   .     S
C678   C705    1.420   .     S
C679   C704    1.420   .     S
C680   C703    1.420   .     S
C681   C702    1.420   .     S
C682   C701    1.420   .     S
C683   C708    1.420   .     S
C684   C707    1.420   .     S
C685   C698    1.420   .     S
C686   C697    1.420   .     S
C687   C696    1.420   .     S
C688   C695    1.420   .     S
C689   C694    1.420   .     S
C690   C693    1.420   .     S
C691   C700    1.420   .     S
C692   C699    1.420   .     S
C693   C708    1.197   .     T
C694   C707    1.197   .     T
C695   C706    1.197   .     T
C696   C705    1.197   .     T
C697   C704    1.197   .     T
C698   C703    1.197   .     T
C699   C702    1.197   .     T
C700   C701    1.197   .     T
C709   C773    1.518   .     S
C709   C737    1.414   .     A
C709   C725    1.414   .     S
C710   C738    1.414   .     A
C710   C777    1.518   .     S
C710   C1026   1.416   .     S
C711   C739    1.414   .     A
C711   C781    1.518   .     S
C711   C127    1.414   1_565 A
C712   C740    1.414   .     A
C712   C785    1.518   .     S
C712   C728    1.416   .     A
C713   C733    1.414   .     A
C713   C789    1.518   .     S
C713   C1025   1.414   .     A
C714   C734    1.414   .     A
C714   C793    1.518   .     S
C714   C726    1.416   .     A
C715   C735    1.414   .     A
C715   C797    1.518   .     S
C715   C727    1.414   .     S
C716   C801    1.518   .     S
C716   C736    1.414   .     A
C716   C128    1.416   1_565 S
C717   C805    1.518   .     S
C717   C745    1.414   .     A
C717   C129    1.415   1_565 S
C718   C809    1.518   .     S
C718   C746    1.414   .     A
C718   C130    1.415   1_565 S
C719   C1031   1.415   .     A
C719   C747    1.414   .     A
C719   C813    1.518   .     S
C720   C817    1.518   .     S
C720   C748    1.414   .     A
C720   C1032   1.415   .     A
C721   C741    1.414   .     A
C721   C729    1.415   .     A
C721   C821    1.518   .     S
C722   C825    1.518   .     S
C722   C742    1.414   .     A
C722   C730    1.415   .     A
C723   C829    1.518   .     S
C723   C743    1.414   .     A
C723   C731    1.415   .     S
C724   C833    1.518   .     S
C724   C744    1.414   .     A
C724   C732    1.415   .     S
C725   C1013   1.414   1_455 A
C726   C1010   1.416   1_455 S
C731   C1019   1.415   1_455 A
C732   C1020   1.415   1_455 A
C733   C757    1.421   .     A
C733   C1049   1.415   .     A
C734   C758    1.420   .     A
C734   C750    1.414   .     A
C735   C759    1.421   .     A
C735   C751    1.415   .     S
C736   C760    1.420   .     A
C736   C152    1.414   1_565 S
C737   C761    1.421   .     A
C737   C749    1.415   .     S
C738   C762    1.420   .     A
C738   C1050   1.414   .     S
C739   C151    1.415   1_565 A
C739   C763    1.421   .     A
C740   C752    1.414   .     A
C740   C764    1.420   .     A
C741   C753    1.414   .     A
C742   C766    1.420   .     A
C742   C754    1.414   .     A
C743   C767    1.420   .     A
C743   C755    1.414   .     S
C744   C756    1.414   .     S
C744   C1068   1.420   1_455 S
C745   C153    1.414   1_565 S
C745   C169    1.420   1_565 S
C746   C770    1.420   .     A
C746   C154    1.414   1_565 S
C747   C1055   1.414   .     A
C747   C771    1.420   .     A
C748   C1056   1.414   .     A
C748   C1072   1.420   .     S
C749   C1033   1.415   1_455 A
C749   C750    1.404   .     S
C750   C1038   1.414   1_455 S
C751   C752    1.404   .     S
C753   C754    1.404   1_556 S
C754   C753    1.404   1_554 S
C755   C1047   1.414   1_455 A
C755   C756    1.404   1_556 S
C756   C1048   1.414   1_455 A
C756   C755    1.404   1_554 S
C757   C762    1.410   .     A
C757   C837    1.518   .     S
C758   C761    1.410   .     A
C758   C841    1.518   .     S
C759   C845    1.518   .     S
C759   C764    1.410   .     A
C760   C763    1.410   .     A
C760   C849    1.518   .     S
C761   C853    1.518   .     S
C762   C857    1.518   .     S
C763   C861    1.518   .     S
C764   C865    1.518   .     S
C765   C869    1.518   .     S
C765   C141    1.420   1_565 S
C765   C770    1.410   1_556 S
C766   C769    1.410   1_554 S
C767   C772    1.410   1_556 S
C767   C1177   1.518   1_455 S
C768   C881    1.518   .     S
C768   C1044   1.420   .     S
C768   C771    1.410   1_554 S
C769   C885    1.518   .     S
C769   C766    1.410   1_556 S
C770   C765    1.410   1_554 S
C770   C289    1.518   1_565 S
C771   C768    1.410   1_556 S
C771   C1193   1.518   .     S
C772   C897    1.518   .     S
C772   C1048   1.420   1_455 S
C772   C767    1.410   1_554 S
C773   H775    1.109   .     S
C773   H776    1.109   .     S
C773   H774    1.111   .     S
C777   H779    1.110   .     S
C777   H778    1.111   .     S
C777   H780    1.109   .     S
C781   H782    1.111   .     S
C781   H783    1.109   .     S
C781   H784    1.109   .     S
C785   H787    1.109   .     S
C785   H786    1.111   .     S
C785   H788    1.110   .     S
C789   H791    1.109   .     S
C789   H790    1.111   .     S
C789   H792    1.109   .     S
C793   H794    1.111   .     S
C793   H796    1.109   .     S
C793   H795    1.110   .     S
C797   H799    1.111   .     S
C797   H798    1.109   .     S
C797   H800    1.109   .     S
C801   H803    1.111   .     S
C801   H802    1.110   .     S
C801   H804    1.109   .     S
C805   H806    1.111   .     S
C805   H808    1.109   .     S
C805   H807    1.109   .     S
C809   H810    1.111   .     S
C809   H812    1.109   .     S
C809   H811    1.109   .     S
C813   H816    1.109   .     S
C813   H815    1.109   .     S
C813   H814    1.111   .     S
C817   H818    1.111   .     S
C817   H820    1.109   .     S
C817   H819    1.109   .     S
C821   H822    1.111   .     S
C821   H824    1.109   .     S
C821   H823    1.109   .     S
C825   H828    1.109   .     S
C825   H827    1.109   .     S
C825   H826    1.111   .     S
C829   H830    1.109   .     S
C829   H832    1.111   .     S
C829   H831    1.109   .     S
C833   H834    1.109   .     S
C833   H836    1.111   .     S
C833   H835    1.109   .     S
C837   H838    1.109   .     S
C837   H839    1.110   .     S
C837   H840    1.110   .     S
C841   H844    1.111   .     S
C841   H842    1.109   .     S
C841   H843    1.110   .     S
C845   H846    1.110   .     S
C845   H848    1.109   .     S
C845   H847    1.110   .     S
C849   H850    1.110   .     S
C849   H852    1.111   .     S
C849   H851    1.109   .     S
C853   H855    1.110   .     S
C853   H856    1.110   .     S
C853   H854    1.109   .     S
C857   H859    1.110   .     S
C857   H858    1.109   .     S
C857   H860    1.111   .     S
C861   H862    1.109   .     S
C861   H864    1.110   .     S
C861   H863    1.110   .     S
C865   H867    1.111   .     S
C865   H866    1.109   .     S
C865   H868    1.110   .     S
C869   H870    1.109   .     S
C869   H872    1.110   .     S
C869   H271    1.110   1_565 S
C873   H876    1.110   .     S
C873   H874    1.109   .     S
C873   C166    1.518   1_565 S
C873   H275    1.110   1_565 S
C877   H879    1.109   .     S
C877   H878    1.110   .     S
C877   C1067   1.518   .     S
C877   H1180   1.110   .     S
H880   C1177   1.110   1_455 S
C881   H883    1.109   .     S
C881   H882    1.110   .     S
C881   H1184   1.110   .     S
H884   C1181   1.110   1_455 S
C885   H886    1.109   .     S
C885   H888    1.110   .     S
H887   C285    1.110   1_565 S
C889   H892    1.110   .     S
C889   H890    1.109   .     S
H891   C289    1.110   1_565 S
C893   H896    1.110   .     S
C893   H894    1.109   .     S
C893   C1071   1.518   1_455 S
C893   H1195   1.110   1_455 S
H895   C1193   1.110   .     S
C897   H898    1.109   .     S
C897   H900    1.110   .     S
C897   H1199   1.110   1_455 S
H899   C1197   1.110   .     S
Zn901  O917    1.936   .     S
Zn901  O963    1.912   .     S
Zn901  O932    1.957   .     S
Zn902  O959    1.912   .     S
Zn902  O931    1.957   .     S
Zn902  O918    1.936   .     S
Zn903  O954    1.912   .     S
Zn903  O919    1.936   .     S
Zn903  O934    1.957   .     S
Zn904  O920    1.936   .     S
Zn904  O933    1.957   .     S
Zn904  O962    1.912   .     S
Zn905  O936    1.957   .     S
Zn905  O956    1.912   .     S
Zn905  O917    1.936   .     S
Zn906  O935    1.957   .     S
Zn906  O968    1.912   .     S
Zn906  O918    1.936   .     S
Zn907  O919    1.936   .     S
Zn907  O965    1.912   .     S
Zn907  O930    1.957   .     S
Zn908  O957    1.912   .     S
Zn908  O929    1.957   .     S
Zn908  O920    1.936   .     S
Zn909  O947    1.912   .     S
Zn909  O944    1.912   .     S
Zn909  O924    1.957   .     S
Zn909  O620    1.936   1_655 S
Zn910  O919    1.936   .     S
Zn910  O948    1.912   .     S
Zn910  O943    1.912   .     S
Zn910  O923    1.957   .     S
Zn911  O945    1.912   .     S
Zn911  O938    1.912   .     S
Zn911  O926    1.957   .     S
Zn911  O318    1.936   1_565 S
Zn912  O946    1.912   .     S
Zn912  O937    1.912   .     S
Zn912  O917    1.936   .     S
Zn912  O925    1.957   .     S
Zn913  O951    1.912   .     S
Zn913  O920    1.936   .     S
Zn913  O940    1.912   .     S
Zn913  O928    1.957   .     S
Zn914  O952    1.912   .     S
Zn914  O939    1.912   .     S
Zn914  O927    1.957   .     S
Zn914  O619    1.936   1_655 S
Zn915  O942    1.912   .     S
Zn915  O949    1.912   .     S
Zn915  O918    1.936   .     S
Zn915  O922    1.957   .     S
Zn916  O921    1.957   .     S
Zn916  O941    1.912   .     S
Zn916  O950    1.912   .     S
Zn916  O317    1.936   1_565 S
O921   C369    1.273   1_565 A
O922   C970    1.274   .     A
O923   C971    1.273   .     S
O924   C672    1.275   1_655 S
O925   C969    1.273   .     S
O926   C370    1.274   1_565 S
O927   C671    1.273   1_655 A
O928   C972    1.275   .     A
O929   C973    1.274   .     S
O930   C974    1.274   .     A
O931   C975    1.274   .     A
O932   C976    1.274   .     A
O933   C973    1.274   .     S
O934   C974    1.274   .     S
O935   C975    1.274   .     A
O936   C976    1.274   .     A
O937   C977    1.277   .     A
O938   C978    1.276   .     A
O939   C979    1.277   .     A
O940   C980    1.277   .     A
O941   C981    1.277   .     A
O942   C982    1.276   .     A
O943   C983    1.277   .     A
O944   C984    1.277   .     A
O945   C985    1.277   .     A
O946   C986    1.277   .     A
O947   C987    1.277   .     A
O948   C988    1.277   .     A
O949   C989    1.277   .     A
O950   C990    1.277   .     A
O951   C991    1.277   .     A
O952   C992    1.277   .     A
O953   C987    1.277   .     A
O953   Zn604   1.912   1_655 S
O954   C988    1.277   .     A
O955   C985    1.277   .     A
O955   Zn306   1.912   1_565 S
O956   C986    1.277   .     A
O957   C991    1.277   .     A
O958   C992    1.277   .     A
O958   Zn607   1.912   1_655 S
O959   C989    1.277   .     A
O960   C990    1.277   .     A
O960   Zn301   1.912   1_565 S
O961   C979    1.277   .     A
O961   Zn603   1.912   1_655 S
O962   C980    1.277   .     A
O963   C977    1.277   .     A
O964   C978    1.277   .     A
O964   Zn302   1.912   1_565 S
O965   C983    1.277   .     A
O966   C984    1.277   .     A
O966   Zn608   1.912   1_655 S
O967   C981    1.277   .     A
O967   Zn305   1.912   1_565 S
O968   C982    1.277   .     A
C969   C1027   1.478   .     S
C970   C1028   1.482   .     S
C971   C1025   1.477   .     S
C972   C1026   1.482   .     S
C973   C1031   1.479   .     S
C974   C1032   1.480   .     S
C975   C1029   1.480   .     S
C976   C1030   1.479   .     S
C977   C1006   1.420   .     S
C978   C1005   1.420   .     S
C979   C1004   1.420   .     S
C980   C1003   1.420   .     S
C981   C1002   1.420   .     S
C982   C1001   1.420   .     S
C983   C1008   1.420   .     S
C984   C1007   1.420   .     S
C985   C998    1.420   .     S
C986   C997    1.420   .     S
C987   C996    1.420   .     S
C988   C995    1.420   .     S
C989   C994    1.420   .     S
C990   C993    1.420   .     S
C991   C1000   1.420   .     S
C992   C999    1.420   .     S
C993   C1008   1.197   .     T
C994   C1007   1.197   .     T
C995   C1006   1.197   .     T
C996   C1005   1.197   .     T
C997   C1004   1.197   .     T
C998   C1003   1.197   .     T
C999   C1002   1.197   .     T
C1000  C1001   1.197   .     T
C1009  C1073   1.518   .     S
C1009  C1037   1.414   .     A
C1009  C1025   1.414   .     S
C1010  C1038   1.414   .     A
C1010  C1077   1.518   .     S
C1010  C726    1.416   1_655 S
C1011  C1039   1.414   .     A
C1011  C1081   1.518   .     S
C1011  C427    1.414   1_565 A
C1012  C1040   1.414   .     A
C1012  C1085   1.518   .     S
C1012  C1028   1.416   .     A
C1013  C1033   1.414   .     A
C1013  C1089   1.518   .     S
C1013  C725    1.414   1_655 A
C1014  C1034   1.414   .     A
C1014  C1093   1.518   .     S
C1014  C1026   1.416   .     A
C1015  C1035   1.414   .     A
C1015  C1097   1.518   .     S
C1015  C1027   1.414   .     S
C1016  C1101   1.518   .     S
C1016  C1036   1.414   .     A
C1016  C428    1.416   1_565 S
C1017  C1105   1.518   .     S
C1017  C1045   1.414   .     A
C1017  C429    1.415   1_565 S
C1018  C1109   1.518   .     S
C1018  C1046   1.414   .     A
C1018  C430    1.415   1_565 S
C1019  C731    1.415   1_655 A
C1019  C1047   1.414   .     A
C1019  C1113   1.518   .     S
C1020  C1117   1.518   .     S
C1020  C1048   1.414   .     A
C1020  C732    1.415   1_655 A
C1021  C1041   1.414   .     A
C1021  C1029   1.415   .     A
C1021  C1121   1.518   .     S
C1022  C1125   1.518   .     S
C1022  C1042   1.414   .     A
C1022  C1030   1.415   .     A
C1023  C1129   1.518   .     S
C1023  C1043   1.414   .     A
C1023  C1031   1.415   .     S
C1024  C1133   1.518   .     S
C1024  C1044   1.414   .     A
C1024  C1032   1.415   .     S
C1033  C1057   1.421   .     A
C1033  C749    1.415   1_655 A
C1034  C1058   1.420   .     A
C1034  C1050   1.414   .     A
C1035  C1059   1.421   .     A
C1035  C1051   1.415   .     S
C1036  C1060   1.420   .     A
C1036  C452    1.414   1_565 S
C1037  C1061   1.421   .     A
C1037  C1049   1.415   .     S
C1038  C1062   1.420   .     A
C1038  C750    1.414   1_655 S
C1039  C451    1.415   1_565 A
C1039  C1063   1.421   .     A
C1040  C1052   1.414   .     A
C1040  C1064   1.420   .     A
C1041  C1053   1.414   .     A
C1042  C1066   1.420   .     A
C1042  C1054   1.414   .     A
C1043  C1067   1.420   .     A
C1043  C1055   1.414   .     S
C1044  C1056   1.414   .     S
C1045  C453    1.414   1_565 S
C1045  C469    1.420   1_565 S
C1046  C1070   1.420   .     A
C1046  C454    1.414   1_565 S
C1047  C755    1.414   1_655 A
C1047  C1071   1.420   .     A
C1048  C756    1.414   1_655 A
C1048  C772    1.420   1_655 S
C1049  C1050   1.404   .     S
C1051  C1052   1.404   .     S
C1053  C1054   1.404   1_556 S
C1054  C1053   1.404   1_554 S
C1055  C1056   1.404   1_556 S
C1056  C1055   1.404   1_554 S
C1057  C1062   1.410   .     A
C1057  C1137   1.518   .     S
C1058  C1061   1.410   .     A
C1058  C1141   1.518   .     S
C1059  C1145   1.518   .     S
C1059  C1064   1.410   .     A
C1060  C1063   1.410   .     A
C1060  C1149   1.518   .     S
C1061  C1153   1.518   .     S
C1062  C1157   1.518   .     S
C1063  C1161   1.518   .     S
C1064  C1165   1.518   .     S
C1065  C1169   1.518   .     S
C1065  C441    1.420   1_565 S
C1065  C1070   1.410   1_556 S
C1066  C1069   1.410   1_554 S
C1067  C1072   1.410   1_556 S
C1068  C1181   1.518   .     S
C1068  C744    1.420   1_655 S
C1068  C1071   1.410   1_554 S
C1069  C1185   1.518   .     S
C1069  C1066   1.410   1_556 S
C1070  C1065   1.410   1_554 S
C1070  C589    1.518   1_565 S
C1071  C1068   1.410   1_556 S
C1071  C893    1.518   1_655 S
C1072  C1197   1.518   .     S
C1072  C1067   1.410   1_554 S
C1073  H1075   1.109   .     S
C1073  H1076   1.109   .     S
C1073  H1074   1.111   .     S
C1077  H1079   1.110   .     S
C1077  H1078   1.111   .     S
C1077  H1080   1.109   .     S
C1081  H1082   1.111   .     S
C1081  H1083   1.109   .     S
C1081  H1084   1.109   .     S
C1085  H1087   1.109   .     S
C1085  H1086   1.111   .     S
C1085  H1088   1.110   .     S
C1089  H1091   1.109   .     S
C1089  H1090   1.111   .     S
C1089  H1092   1.109   .     S
C1093  H1094   1.111   .     S
C1093  H1096   1.109   .     S
C1093  H1095   1.110   .     S
C1097  H1099   1.111   .     S
C1097  H1098   1.109   .     S
C1097  H1100   1.109   .     S
C1101  H1103   1.111   .     S
C1101  H1102   1.110   .     S
C1101  H1104   1.109   .     S
C1105  H1106   1.111   .     S
C1105  H1108   1.109   .     S
C1105  H1107   1.109   .     S
C1109  H1110   1.111   .     S
C1109  H1112   1.109   .     S
C1109  H1111   1.109   .     S
C1113  H1116   1.109   .     S
C1113  H1115   1.109   .     S
C1113  H1114   1.111   .     S
C1117  H1118   1.111   .     S
C1117  H1120   1.109   .     S
C1117  H1119   1.109   .     S
C1121  H1122   1.111   .     S
C1121  H1124   1.109   .     S
C1121  H1123   1.109   .     S
C1125  H1128   1.109   .     S
C1125  H1127   1.109   .     S
C1125  H1126   1.111   .     S
C1129  H1130   1.109   .     S
C1129  H1132   1.111   .     S
C1129  H1131   1.109   .     S
C1133  H1134   1.109   .     S
C1133  H1136   1.111   .     S
C1133  H1135   1.109   .     S
C1137  H1138   1.109   .     S
C1137  H1139   1.110   .     S
C1137  H1140   1.110   .     S
C1141  H1144   1.111   .     S
C1141  H1142   1.109   .     S
C1141  H1143   1.110   .     S
C1145  H1146   1.110   .     S
C1145  H1148   1.109   .     S
C1145  H1147   1.110   .     S
C1149  H1150   1.110   .     S
C1149  H1152   1.111   .     S
C1149  H1151   1.109   .     S
C1153  H1155   1.110   .     S
C1153  H1156   1.110   .     S
C1153  H1154   1.109   .     S
C1157  H1159   1.110   .     S
C1157  H1158   1.109   .     S
C1157  H1160   1.111   .     S
C1161  H1162   1.109   .     S
C1161  H1164   1.110   .     S
C1161  H1163   1.110   .     S
C1165  H1167   1.111   .     S
C1165  H1166   1.109   .     S
C1165  H1168   1.110   .     S
C1169  H1170   1.109   .     S
C1169  H1172   1.110   .     S
C1169  H571    1.110   1_565 S
C1173  H1176   1.110   .     S
C1173  H1174   1.109   .     S
C1173  C466    1.518   1_565 S
C1173  H575    1.110   1_565 S
C1177  H1179   1.109   .     S
C1177  H1178   1.110   .     S
C1177  C767    1.518   1_655 S
C1177  H880    1.110   1_655 S
C1181  H1183   1.109   .     S
C1181  H1182   1.110   .     S
C1181  H884    1.110   1_655 S
C1185  H1186   1.109   .     S
C1185  H1188   1.110   .     S
H1187  C585    1.110   1_565 S
C1189  H1192   1.110   .     S
C1189  H1190   1.109   .     S
H1191  C589    1.110   1_565 S
C1193  H1196   1.110   .     S
C1193  H1194   1.109   .     S
H1195  C893    1.110   1_655 S
C1197  H1198   1.109   .     S
C1197  H1200   1.110   .     S
H1199  C897    1.110   1_655 S
