data_str_m2_o1_o10_pcu_sym.8
_audit_creation_date              2020-01-03
_audit_creation_method            'Materials Studio'
_symmetry_space_group_name_H-M    'P1'
_symmetry_Int_Tables_number       1
_symmetry_cell_setting            triclinic
loop_
_symmetry_equiv_pos_as_xyz
  x,y,z
_cell_length_a                    26.4746
_cell_length_b                    32.4851
_cell_length_c                    28.8514
_cell_angle_alpha                 90.0642
_cell_angle_beta                  98.1519
_cell_angle_gamma                 92.7770
loop_
_atom_site_label
_atom_site_type_symbol
_atom_site_fract_x
_atom_site_fract_y
_atom_site_fract_z
_atom_site_U_iso_or_equiv
_atom_site_adp_type
_atom_site_occupancy
Br1    Br    0.08836   0.10146   0.04582   0.00000  Uiso   1.00
Br2    Br    0.24498   0.23188   0.28752   0.00000  Uiso   1.00
Br3    Br    0.08748   0.10201   0.26683   0.00000  Uiso   1.00
Br4    Br    0.24586   0.23132   0.06650   0.00000  Uiso   1.00
C5     C     0.16670   0.08746   0.16664   0.00000  Uiso   1.00
C6     C     0.16654   0.02134   0.20874   0.00000  Uiso   1.00
C7     C     0.16656   0.29054   0.16668   0.00000  Uiso   1.00
C8     C     0.16677   0.04279   0.16666   0.00000  Uiso   1.00
C9     C     0.13440   0.14012   0.02043   0.00000  Uiso   1.00
C10    C     0.19893   0.19322   0.31291   0.00000  Uiso   1.00
C11    C     0.13432   0.14018   0.30441   0.00000  Uiso   1.00
C12    C     0.19901   0.19316   0.02893   0.00000  Uiso   1.00
C13    C     0.16664   0.24588   0.16669   0.00000  Uiso   1.00
C14    C     0.06807   0.16604   0.15461   0.00000  Uiso   1.00
C15    C     0.26527   0.16730   0.17872   0.00000  Uiso   1.00
C16    C     0.01251   0.16270   0.14828   0.00000  Uiso   1.00
C17    C     0.32082   0.17064   0.18505   0.00000  Uiso   1.00
C18    C     0.16700   0.02125   0.12460   0.00000  Uiso   1.00
C19    C     0.16633   0.31208   0.20873   0.00000  Uiso   1.00
C20    C     0.16679   0.31200   0.12460   0.00000  Uiso   1.00
Cu21   Cu    0.16667   0.16667   0.21355   0.00000  Uiso   1.00
Cu22   Cu    0.16667   0.16666   0.11978   0.00000  Uiso   1.00
H23    H     0.16738   0.03719   0.09170   0.00000  Uiso   1.00
H24    H     0.16596   0.29615   0.24163   0.00000  Uiso   1.00
H25    H     0.16679   0.29600   0.09166   0.00000  Uiso   1.00
H26    H     0.16654   0.03734   0.24168   0.00000  Uiso   1.00
H27    H     0.00949   0.14544   0.08261   0.00000  Uiso   1.00
H28    H     0.32384   0.18790   0.25072   0.00000  Uiso   1.00
N29    N     0.16668   0.16668   0.28403   0.00000  Uiso   1.00
N30    N     0.16665   0.16666   0.04931   0.00000  Uiso   1.00
O31    O     0.16666   0.10655   0.20625   0.00000  Uiso   1.00
O32    O     0.01423   0.18397   0.22774   0.00000  Uiso   1.00
O33    O     0.16667   0.22678   0.12709   0.00000  Uiso   1.00
O34    O     0.16666   0.10654   0.12706   0.00000  Uiso   1.00
O35    O     0.16667   0.22679   0.20628   0.00000  Uiso   1.00
O36    O     0.09161   0.16667   0.19712   0.00000  Uiso   1.00
O37    O     0.24172   0.16666   0.13621   0.00000  Uiso   1.00
O38    O     0.09161   0.16666   0.11793   0.00000  Uiso   1.00
O39    O     0.24172   0.16667   0.21540   0.00000  Uiso   1.00
O40    O     0.31910   0.14937   0.10559   0.00000  Uiso   1.00
Br41   Br    0.42169   0.10146   0.04582   0.00000  Uiso   1.00
Br42   Br    0.57831   0.23188   0.28752   0.00000  Uiso   1.00
Br43   Br    0.42081   0.10201   0.26683   0.00000  Uiso   1.00
Br44   Br    0.57919   0.23132   0.06650   0.00000  Uiso   1.00
C45    C     0.50003   0.08746   0.16664   0.00000  Uiso   1.00
C46    C     0.49988   0.02134   0.20874   0.00000  Uiso   1.00
C47    C     0.49989   0.29054   0.16668   0.00000  Uiso   1.00
C48    C     0.50011   0.04279   0.16666   0.00000  Uiso   1.00
C49    C     0.46773   0.14012   0.02043   0.00000  Uiso   1.00
C50    C     0.53227   0.19322   0.31291   0.00000  Uiso   1.00
C51    C     0.46765   0.14018   0.30441   0.00000  Uiso   1.00
C52    C     0.53235   0.19316   0.02893   0.00000  Uiso   1.00
C53    C     0.49997   0.24588   0.16669   0.00000  Uiso   1.00
C54    C     0.40140   0.16604   0.15461   0.00000  Uiso   1.00
C55    C     0.59860   0.16730   0.17872   0.00000  Uiso   1.00
C56    C     0.34585   0.16270   0.14828   0.00000  Uiso   1.00
C57    C     0.65415   0.17064   0.18505   0.00000  Uiso   1.00
C58    C     0.50034   0.02125   0.12460   0.00000  Uiso   1.00
C59    C     0.49966   0.31208   0.20873   0.00000  Uiso   1.00
C60    C     0.50012   0.31200   0.12460   0.00000  Uiso   1.00
Cu61   Cu    0.50000   0.16667   0.21355   0.00000  Uiso   1.00
Cu62   Cu    0.50000   0.16666   0.11978   0.00000  Uiso   1.00
H63    H     0.50071   0.03719   0.09170   0.00000  Uiso   1.00
H64    H     0.49929   0.29615   0.24163   0.00000  Uiso   1.00
H65    H     0.50013   0.29600   0.09166   0.00000  Uiso   1.00
H66    H     0.49987   0.03734   0.24168   0.00000  Uiso   1.00
H67    H     0.34282   0.14544   0.08261   0.00000  Uiso   1.00
H68    H     0.65717   0.18790   0.25072   0.00000  Uiso   1.00
N69    N     0.50001   0.16668   0.28403   0.00000  Uiso   1.00
N70    N     0.49999   0.16666   0.04931   0.00000  Uiso   1.00
O71    O     0.50000   0.10655   0.20625   0.00000  Uiso   1.00
O72    O     0.34757   0.18397   0.22774   0.00000  Uiso   1.00
O73    O     0.50000   0.22678   0.12709   0.00000  Uiso   1.00
O74    O     0.50000   0.10654   0.12706   0.00000  Uiso   1.00
O75    O     0.50000   0.22679   0.20628   0.00000  Uiso   1.00
O76    O     0.42495   0.16667   0.19712   0.00000  Uiso   1.00
O77    O     0.57505   0.16666   0.13621   0.00000  Uiso   1.00
O78    O     0.42494   0.16666   0.11793   0.00000  Uiso   1.00
O79    O     0.57506   0.16667   0.21540   0.00000  Uiso   1.00
O80    O     0.65243   0.14937   0.10559   0.00000  Uiso   1.00
Br81   Br    0.75502   0.10146   0.04582   0.00000  Uiso   1.00
Br82   Br    0.91164   0.23188   0.28752   0.00000  Uiso   1.00
Br83   Br    0.75414   0.10201   0.26683   0.00000  Uiso   1.00
Br84   Br    0.91252   0.23132   0.06650   0.00000  Uiso   1.00
C85    C     0.83336   0.08746   0.16664   0.00000  Uiso   1.00
C86    C     0.83321   0.02134   0.20874   0.00000  Uiso   1.00
C87    C     0.83323   0.29054   0.16668   0.00000  Uiso   1.00
C88    C     0.83344   0.04279   0.16666   0.00000  Uiso   1.00
C89    C     0.80107   0.14012   0.02043   0.00000  Uiso   1.00
C90    C     0.86560   0.19322   0.31291   0.00000  Uiso   1.00
C91    C     0.80099   0.14018   0.30441   0.00000  Uiso   1.00
C92    C     0.86568   0.19316   0.02893   0.00000  Uiso   1.00
C93    C     0.83330   0.24588   0.16669   0.00000  Uiso   1.00
C94    C     0.73473   0.16604   0.15461   0.00000  Uiso   1.00
C95    C     0.93193   0.16730   0.17872   0.00000  Uiso   1.00
C96    C     0.67918   0.16270   0.14828   0.00000  Uiso   1.00
C97    C     0.98749   0.17064   0.18505   0.00000  Uiso   1.00
C98    C     0.83367   0.02125   0.12460   0.00000  Uiso   1.00
C99    C     0.83300   0.31208   0.20873   0.00000  Uiso   1.00
C100   C     0.83345   0.31200   0.12460   0.00000  Uiso   1.00
Cu101  Cu    0.83333   0.16667   0.21355   0.00000  Uiso   1.00
Cu102  Cu    0.83333   0.16666   0.11978   0.00000  Uiso   1.00
H103   H     0.83404   0.03719   0.09170   0.00000  Uiso   1.00
H104   H     0.83262   0.29615   0.24163   0.00000  Uiso   1.00
H105   H     0.83346   0.29600   0.09166   0.00000  Uiso   1.00
H106   H     0.83321   0.03734   0.24168   0.00000  Uiso   1.00
H107   H     0.67616   0.14544   0.08261   0.00000  Uiso   1.00
H108   H     0.99051   0.18790   0.25072   0.00000  Uiso   1.00
N109   N     0.83335   0.16668   0.28403   0.00000  Uiso   1.00
N110   N     0.83332   0.16666   0.04931   0.00000  Uiso   1.00
O111   O     0.83333   0.10655   0.20625   0.00000  Uiso   1.00
O112   O     0.68090   0.18397   0.22774   0.00000  Uiso   1.00
O113   O     0.83334   0.22678   0.12709   0.00000  Uiso   1.00
O114   O     0.83333   0.10654   0.12706   0.00000  Uiso   1.00
O115   O     0.83334   0.22679   0.20628   0.00000  Uiso   1.00
O116   O     0.75828   0.16667   0.19712   0.00000  Uiso   1.00
O117   O     0.90839   0.16666   0.13621   0.00000  Uiso   1.00
O118   O     0.75828   0.16666   0.11793   0.00000  Uiso   1.00
O119   O     0.90839   0.16667   0.21540   0.00000  Uiso   1.00
O120   O     0.98577   0.14937   0.10559   0.00000  Uiso   1.00
Br121  Br    0.08836   0.43479   0.04582   0.00000  Uiso   1.00
Br122  Br    0.24498   0.56521   0.28752   0.00000  Uiso   1.00
Br123  Br    0.08748   0.43534   0.26683   0.00000  Uiso   1.00
Br124  Br    0.24586   0.56466   0.06650   0.00000  Uiso   1.00
C125   C     0.16670   0.42079   0.16664   0.00000  Uiso   1.00
C126   C     0.16654   0.35467   0.20874   0.00000  Uiso   1.00
C127   C     0.16656   0.62388   0.16668   0.00000  Uiso   1.00
C128   C     0.16677   0.37612   0.16666   0.00000  Uiso   1.00
C129   C     0.13440   0.47345   0.02043   0.00000  Uiso   1.00
C130   C     0.19893   0.52655   0.31291   0.00000  Uiso   1.00
C131   C     0.13432   0.47351   0.30441   0.00000  Uiso   1.00
C132   C     0.19901   0.52649   0.02893   0.00000  Uiso   1.00
C133   C     0.16664   0.57921   0.16669   0.00000  Uiso   1.00
C134   C     0.06807   0.49937   0.15461   0.00000  Uiso   1.00
C135   C     0.26527   0.50063   0.17872   0.00000  Uiso   1.00
C136   C     0.01251   0.49603   0.14828   0.00000  Uiso   1.00
C137   C     0.32082   0.50397   0.18505   0.00000  Uiso   1.00
C138   C     0.16700   0.35459   0.12460   0.00000  Uiso   1.00
C139   C     0.16633   0.64541   0.20873   0.00000  Uiso   1.00
C140   C     0.16679   0.64533   0.12460   0.00000  Uiso   1.00
Cu141  Cu    0.16667   0.50001   0.21355   0.00000  Uiso   1.00
Cu142  Cu    0.16667   0.49999   0.11978   0.00000  Uiso   1.00
H143   H     0.16738   0.37052   0.09170   0.00000  Uiso   1.00
H144   H     0.16596   0.62948   0.24163   0.00000  Uiso   1.00
H145   H     0.16679   0.62933   0.09166   0.00000  Uiso   1.00
H146   H     0.16654   0.37067   0.24168   0.00000  Uiso   1.00
H147   H     0.00949   0.47877   0.08261   0.00000  Uiso   1.00
H148   H     0.32384   0.52123   0.25072   0.00000  Uiso   1.00
N149   N     0.16668   0.50001   0.28403   0.00000  Uiso   1.00
N150   N     0.16665   0.49999   0.04931   0.00000  Uiso   1.00
O151   O     0.16666   0.43989   0.20625   0.00000  Uiso   1.00
O152   O     0.01423   0.51730   0.22774   0.00000  Uiso   1.00
O153   O     0.16667   0.56011   0.12709   0.00000  Uiso   1.00
O154   O     0.16666   0.43988   0.12706   0.00000  Uiso   1.00
O155   O     0.16667   0.56012   0.20628   0.00000  Uiso   1.00
O156   O     0.09161   0.50000   0.19712   0.00000  Uiso   1.00
O157   O     0.24172   0.50000   0.13621   0.00000  Uiso   1.00
O158   O     0.09161   0.49999   0.11793   0.00000  Uiso   1.00
O159   O     0.24172   0.50001   0.21540   0.00000  Uiso   1.00
O160   O     0.31910   0.48270   0.10559   0.00000  Uiso   1.00
Br161  Br    0.42169   0.43479   0.04582   0.00000  Uiso   1.00
Br162  Br    0.57831   0.56521   0.28752   0.00000  Uiso   1.00
Br163  Br    0.42081   0.43534   0.26683   0.00000  Uiso   1.00
Br164  Br    0.57919   0.56466   0.06650   0.00000  Uiso   1.00
C165   C     0.50003   0.42079   0.16664   0.00000  Uiso   1.00
C166   C     0.49988   0.35467   0.20874   0.00000  Uiso   1.00
C167   C     0.49989   0.62388   0.16668   0.00000  Uiso   1.00
C168   C     0.50011   0.37612   0.16666   0.00000  Uiso   1.00
C169   C     0.46773   0.47345   0.02043   0.00000  Uiso   1.00
C170   C     0.53227   0.52655   0.31291   0.00000  Uiso   1.00
C171   C     0.46765   0.47351   0.30441   0.00000  Uiso   1.00
C172   C     0.53235   0.52649   0.02893   0.00000  Uiso   1.00
C173   C     0.49997   0.57921   0.16669   0.00000  Uiso   1.00
C174   C     0.40140   0.49937   0.15461   0.00000  Uiso   1.00
C175   C     0.59860   0.50063   0.17872   0.00000  Uiso   1.00
C176   C     0.34585   0.49603   0.14828   0.00000  Uiso   1.00
C177   C     0.65415   0.50397   0.18505   0.00000  Uiso   1.00
C178   C     0.50034   0.35459   0.12460   0.00000  Uiso   1.00
C179   C     0.49966   0.64541   0.20873   0.00000  Uiso   1.00
C180   C     0.50012   0.64533   0.12460   0.00000  Uiso   1.00
Cu181  Cu    0.50000   0.50001   0.21355   0.00000  Uiso   1.00
Cu182  Cu    0.50000   0.49999   0.11978   0.00000  Uiso   1.00
H183   H     0.50071   0.37052   0.09170   0.00000  Uiso   1.00
H184   H     0.49929   0.62948   0.24163   0.00000  Uiso   1.00
H185   H     0.50013   0.62933   0.09166   0.00000  Uiso   1.00
H186   H     0.49987   0.37067   0.24168   0.00000  Uiso   1.00
H187   H     0.34282   0.47877   0.08261   0.00000  Uiso   1.00
H188   H     0.65717   0.52123   0.25072   0.00000  Uiso   1.00
N189   N     0.50001   0.50001   0.28403   0.00000  Uiso   1.00
N190   N     0.49999   0.49999   0.04931   0.00000  Uiso   1.00
O191   O     0.50000   0.43989   0.20625   0.00000  Uiso   1.00
O192   O     0.34757   0.51730   0.22774   0.00000  Uiso   1.00
O193   O     0.50000   0.56011   0.12709   0.00000  Uiso   1.00
O194   O     0.50000   0.43988   0.12706   0.00000  Uiso   1.00
O195   O     0.50000   0.56012   0.20628   0.00000  Uiso   1.00
O196   O     0.42495   0.50000   0.19712   0.00000  Uiso   1.00
O197   O     0.57505   0.50000   0.13621   0.00000  Uiso   1.00
O198   O     0.42494   0.49999   0.11793   0.00000  Uiso   1.00
O199   O     0.57506   0.50001   0.21540   0.00000  Uiso   1.00
O200   O     0.65243   0.48270   0.10559   0.00000  Uiso   1.00
Br201  Br    0.75502   0.43479   0.04582   0.00000  Uiso   1.00
Br202  Br    0.91164   0.56521   0.28752   0.00000  Uiso   1.00
Br203  Br    0.75414   0.43534   0.26683   0.00000  Uiso   1.00
Br204  Br    0.91252   0.56466   0.06650   0.00000  Uiso   1.00
C205   C     0.83336   0.42079   0.16664   0.00000  Uiso   1.00
C206   C     0.83321   0.35467   0.20874   0.00000  Uiso   1.00
C207   C     0.83323   0.62388   0.16668   0.00000  Uiso   1.00
C208   C     0.83344   0.37612   0.16666   0.00000  Uiso   1.00
C209   C     0.80107   0.47345   0.02043   0.00000  Uiso   1.00
C210   C     0.86560   0.52655   0.31291   0.00000  Uiso   1.00
C211   C     0.80099   0.47351   0.30441   0.00000  Uiso   1.00
C212   C     0.86568   0.52649   0.02893   0.00000  Uiso   1.00
C213   C     0.83330   0.57921   0.16669   0.00000  Uiso   1.00
C214   C     0.73473   0.49937   0.15461   0.00000  Uiso   1.00
C215   C     0.93193   0.50063   0.17872   0.00000  Uiso   1.00
C216   C     0.67918   0.49603   0.14828   0.00000  Uiso   1.00
C217   C     0.98749   0.50397   0.18505   0.00000  Uiso   1.00
C218   C     0.83367   0.35459   0.12460   0.00000  Uiso   1.00
C219   C     0.83300   0.64541   0.20873   0.00000  Uiso   1.00
C220   C     0.83345   0.64533   0.12460   0.00000  Uiso   1.00
Cu221  Cu    0.83333   0.50001   0.21355   0.00000  Uiso   1.00
Cu222  Cu    0.83333   0.49999   0.11978   0.00000  Uiso   1.00
H223   H     0.83404   0.37052   0.09170   0.00000  Uiso   1.00
H224   H     0.83262   0.62948   0.24163   0.00000  Uiso   1.00
H225   H     0.83346   0.62933   0.09166   0.00000  Uiso   1.00
H226   H     0.83321   0.37067   0.24168   0.00000  Uiso   1.00
H227   H     0.67616   0.47877   0.08261   0.00000  Uiso   1.00
H228   H     0.99051   0.52123   0.25072   0.00000  Uiso   1.00
N229   N     0.83335   0.50001   0.28403   0.00000  Uiso   1.00
N230   N     0.83332   0.49999   0.04931   0.00000  Uiso   1.00
O231   O     0.83333   0.43989   0.20625   0.00000  Uiso   1.00
O232   O     0.68090   0.51730   0.22774   0.00000  Uiso   1.00
O233   O     0.83334   0.56011   0.12709   0.00000  Uiso   1.00
O234   O     0.83333   0.43988   0.12706   0.00000  Uiso   1.00
O235   O     0.83334   0.56012   0.20628   0.00000  Uiso   1.00
O236   O     0.75828   0.50000   0.19712   0.00000  Uiso   1.00
O237   O     0.90839   0.50000   0.13621   0.00000  Uiso   1.00
O238   O     0.75828   0.49999   0.11793   0.00000  Uiso   1.00
O239   O     0.90839   0.50001   0.21540   0.00000  Uiso   1.00
O240   O     0.98577   0.48270   0.10559   0.00000  Uiso   1.00
Br241  Br    0.08836   0.76812   0.04582   0.00000  Uiso   1.00
Br242  Br    0.24498   0.89855   0.28752   0.00000  Uiso   1.00
Br243  Br    0.08748   0.76868   0.26683   0.00000  Uiso   1.00
Br244  Br    0.24586   0.89799   0.06650   0.00000  Uiso   1.00
C245   C     0.16670   0.75413   0.16664   0.00000  Uiso   1.00
C246   C     0.16654   0.68800   0.20874   0.00000  Uiso   1.00
C247   C     0.16656   0.95721   0.16668   0.00000  Uiso   1.00
C248   C     0.16677   0.70946   0.16666   0.00000  Uiso   1.00
C249   C     0.13440   0.80678   0.02043   0.00000  Uiso   1.00
C250   C     0.19893   0.85988   0.31291   0.00000  Uiso   1.00
C251   C     0.13432   0.80684   0.30441   0.00000  Uiso   1.00
C252   C     0.19901   0.85982   0.02893   0.00000  Uiso   1.00
C253   C     0.16664   0.91254   0.16669   0.00000  Uiso   1.00
C254   C     0.06807   0.83270   0.15461   0.00000  Uiso   1.00
C255   C     0.26527   0.83396   0.17872   0.00000  Uiso   1.00
C256   C     0.01251   0.82936   0.14828   0.00000  Uiso   1.00
C257   C     0.32082   0.83730   0.18505   0.00000  Uiso   1.00
C258   C     0.16700   0.68792   0.12460   0.00000  Uiso   1.00
C259   C     0.16633   0.97875   0.20873   0.00000  Uiso   1.00
C260   C     0.16679   0.97866   0.12460   0.00000  Uiso   1.00
Cu261  Cu    0.16667   0.83334   0.21355   0.00000  Uiso   1.00
Cu262  Cu    0.16667   0.83333   0.11978   0.00000  Uiso   1.00
H263   H     0.16738   0.70385   0.09170   0.00000  Uiso   1.00
H264   H     0.16596   0.96281   0.24163   0.00000  Uiso   1.00
H265   H     0.16679   0.96266   0.09166   0.00000  Uiso   1.00
H266   H     0.16654   0.70400   0.24168   0.00000  Uiso   1.00
H267   H     0.00949   0.81211   0.08261   0.00000  Uiso   1.00
H268   H     0.32384   0.85456   0.25072   0.00000  Uiso   1.00
N269   N     0.16668   0.83334   0.28403   0.00000  Uiso   1.00
N270   N     0.16665   0.83332   0.04931   0.00000  Uiso   1.00
O271   O     0.16666   0.77322   0.20625   0.00000  Uiso   1.00
O272   O     0.01423   0.85063   0.22774   0.00000  Uiso   1.00
O273   O     0.16667   0.89345   0.12709   0.00000  Uiso   1.00
O274   O     0.16666   0.77321   0.12706   0.00000  Uiso   1.00
O275   O     0.16667   0.89346   0.20628   0.00000  Uiso   1.00
O276   O     0.09161   0.83334   0.19712   0.00000  Uiso   1.00
O277   O     0.24172   0.83333   0.13621   0.00000  Uiso   1.00
O278   O     0.09161   0.83333   0.11793   0.00000  Uiso   1.00
O279   O     0.24172   0.83334   0.21540   0.00000  Uiso   1.00
O280   O     0.31910   0.81603   0.10559   0.00000  Uiso   1.00
Br281  Br    0.42169   0.76812   0.04582   0.00000  Uiso   1.00
Br282  Br    0.57831   0.89855   0.28752   0.00000  Uiso   1.00
Br283  Br    0.42081   0.76868   0.26683   0.00000  Uiso   1.00
Br284  Br    0.57919   0.89799   0.06650   0.00000  Uiso   1.00
C285   C     0.50003   0.75413   0.16664   0.00000  Uiso   1.00
C286   C     0.49988   0.68800   0.20874   0.00000  Uiso   1.00
C287   C     0.49989   0.95721   0.16668   0.00000  Uiso   1.00
C288   C     0.50011   0.70946   0.16666   0.00000  Uiso   1.00
C289   C     0.46773   0.80678   0.02043   0.00000  Uiso   1.00
C290   C     0.53227   0.85988   0.31291   0.00000  Uiso   1.00
C291   C     0.46765   0.80684   0.30441   0.00000  Uiso   1.00
C292   C     0.53235   0.85982   0.02893   0.00000  Uiso   1.00
C293   C     0.49997   0.91254   0.16669   0.00000  Uiso   1.00
C294   C     0.40140   0.83270   0.15461   0.00000  Uiso   1.00
C295   C     0.59860   0.83396   0.17872   0.00000  Uiso   1.00
C296   C     0.34585   0.82936   0.14828   0.00000  Uiso   1.00
C297   C     0.65415   0.83730   0.18505   0.00000  Uiso   1.00
C298   C     0.50034   0.68792   0.12460   0.00000  Uiso   1.00
C299   C     0.49966   0.97875   0.20873   0.00000  Uiso   1.00
C300   C     0.50012   0.97866   0.12460   0.00000  Uiso   1.00
Cu301  Cu    0.50000   0.83334   0.21355   0.00000  Uiso   1.00
Cu302  Cu    0.50000   0.83333   0.11978   0.00000  Uiso   1.00
H303   H     0.50071   0.70385   0.09170   0.00000  Uiso   1.00
H304   H     0.49929   0.96281   0.24163   0.00000  Uiso   1.00
H305   H     0.50013   0.96266   0.09166   0.00000  Uiso   1.00
H306   H     0.49987   0.70400   0.24168   0.00000  Uiso   1.00
H307   H     0.34282   0.81211   0.08261   0.00000  Uiso   1.00
H308   H     0.65717   0.85456   0.25072   0.00000  Uiso   1.00
N309   N     0.50001   0.83334   0.28403   0.00000  Uiso   1.00
N310   N     0.49999   0.83332   0.04931   0.00000  Uiso   1.00
O311   O     0.50000   0.77322   0.20625   0.00000  Uiso   1.00
O312   O     0.34757   0.85063   0.22774   0.00000  Uiso   1.00
O313   O     0.50000   0.89345   0.12709   0.00000  Uiso   1.00
O314   O     0.50000   0.77321   0.12706   0.00000  Uiso   1.00
O315   O     0.50000   0.89346   0.20628   0.00000  Uiso   1.00
O316   O     0.42495   0.83334   0.19712   0.00000  Uiso   1.00
O317   O     0.57505   0.83333   0.13621   0.00000  Uiso   1.00
O318   O     0.42494   0.83333   0.11793   0.00000  Uiso   1.00
O319   O     0.57506   0.83334   0.21540   0.00000  Uiso   1.00
O320   O     0.65243   0.81603   0.10559   0.00000  Uiso   1.00
Br321  Br    0.75502   0.76812   0.04582   0.00000  Uiso   1.00
Br322  Br    0.91164   0.89855   0.28752   0.00000  Uiso   1.00
Br323  Br    0.75414   0.76868   0.26683   0.00000  Uiso   1.00
Br324  Br    0.91252   0.89799   0.06650   0.00000  Uiso   1.00
C325   C     0.83336   0.75413   0.16664   0.00000  Uiso   1.00
C326   C     0.83321   0.68800   0.20874   0.00000  Uiso   1.00
C327   C     0.83323   0.95721   0.16668   0.00000  Uiso   1.00
C328   C     0.83344   0.70946   0.16666   0.00000  Uiso   1.00
C329   C     0.80107   0.80678   0.02043   0.00000  Uiso   1.00
C330   C     0.86560   0.85988   0.31291   0.00000  Uiso   1.00
C331   C     0.80099   0.80684   0.30441   0.00000  Uiso   1.00
C332   C     0.86568   0.85982   0.02893   0.00000  Uiso   1.00
C333   C     0.83330   0.91254   0.16669   0.00000  Uiso   1.00
C334   C     0.73473   0.83270   0.15461   0.00000  Uiso   1.00
C335   C     0.93193   0.83396   0.17872   0.00000  Uiso   1.00
C336   C     0.67918   0.82936   0.14828   0.00000  Uiso   1.00
C337   C     0.98749   0.83730   0.18505   0.00000  Uiso   1.00
C338   C     0.83367   0.68792   0.12460   0.00000  Uiso   1.00
C339   C     0.83300   0.97875   0.20873   0.00000  Uiso   1.00
C340   C     0.83345   0.97866   0.12460   0.00000  Uiso   1.00
Cu341  Cu    0.83333   0.83334   0.21355   0.00000  Uiso   1.00
Cu342  Cu    0.83333   0.83333   0.11978   0.00000  Uiso   1.00
H343   H     0.83404   0.70385   0.09170   0.00000  Uiso   1.00
H344   H     0.83262   0.96281   0.24163   0.00000  Uiso   1.00
H345   H     0.83346   0.96266   0.09166   0.00000  Uiso   1.00
H346   H     0.83321   0.70400   0.24168   0.00000  Uiso   1.00
H347   H     0.67616   0.81211   0.08261   0.00000  Uiso   1.00
H348   H     0.99051   0.85456   0.25072   0.00000  Uiso   1.00
N349   N     0.83335   0.83334   0.28403   0.00000  Uiso   1.00
N350   N     0.83332   0.83332   0.04931   0.00000  Uiso   1.00
O351   O     0.83333   0.77322   0.20625   0.00000  Uiso   1.00
O352   O     0.68090   0.85063   0.22774   0.00000  Uiso   1.00
O353   O     0.83334   0.89345   0.12709   0.00000  Uiso   1.00
O354   O     0.83333   0.77321   0.12706   0.00000  Uiso   1.00
O355   O     0.83334   0.89346   0.20628   0.00000  Uiso   1.00
O356   O     0.75828   0.83334   0.19712   0.00000  Uiso   1.00
O357   O     0.90839   0.83333   0.13621   0.00000  Uiso   1.00
O358   O     0.75828   0.83333   0.11793   0.00000  Uiso   1.00
O359   O     0.90839   0.83334   0.21540   0.00000  Uiso   1.00
O360   O     0.98577   0.81603   0.10559   0.00000  Uiso   1.00
Br361  Br    0.08836   0.10146   0.37915   0.00000  Uiso   1.00
Br362  Br    0.24498   0.23188   0.62085   0.00000  Uiso   1.00
Br363  Br    0.08748   0.10201   0.60017   0.00000  Uiso   1.00
Br364  Br    0.24586   0.23132   0.39983   0.00000  Uiso   1.00
C365   C     0.16670   0.08746   0.49998   0.00000  Uiso   1.00
C366   C     0.16654   0.02134   0.54207   0.00000  Uiso   1.00
C367   C     0.16656   0.29054   0.50001   0.00000  Uiso   1.00
C368   C     0.16677   0.04279   0.49999   0.00000  Uiso   1.00
C369   C     0.13440   0.14012   0.35376   0.00000  Uiso   1.00
C370   C     0.19893   0.19322   0.64624   0.00000  Uiso   1.00
C371   C     0.13432   0.14018   0.63774   0.00000  Uiso   1.00
C372   C     0.19901   0.19316   0.36226   0.00000  Uiso   1.00
C373   C     0.16664   0.24588   0.50002   0.00000  Uiso   1.00
C374   C     0.06807   0.16604   0.48795   0.00000  Uiso   1.00
C375   C     0.26527   0.16730   0.51205   0.00000  Uiso   1.00
C376   C     0.01251   0.16270   0.48162   0.00000  Uiso   1.00
C377   C     0.32082   0.17064   0.51838   0.00000  Uiso   1.00
C378   C     0.16700   0.02125   0.45794   0.00000  Uiso   1.00
C379   C     0.16633   0.31208   0.54206   0.00000  Uiso   1.00
C380   C     0.16679   0.31200   0.45793   0.00000  Uiso   1.00
Cu381  Cu    0.16667   0.16667   0.54689   0.00000  Uiso   1.00
Cu382  Cu    0.16667   0.16666   0.45311   0.00000  Uiso   1.00
H383   H     0.16738   0.03719   0.42504   0.00000  Uiso   1.00
H384   H     0.16596   0.29615   0.57496   0.00000  Uiso   1.00
H385   H     0.16679   0.29600   0.42499   0.00000  Uiso   1.00
H386   H     0.16654   0.03734   0.57501   0.00000  Uiso   1.00
H387   H     0.00949   0.14544   0.41594   0.00000  Uiso   1.00
H388   H     0.32384   0.18790   0.58406   0.00000  Uiso   1.00
N389   N     0.16668   0.16668   0.61736   0.00000  Uiso   1.00
N390   N     0.16665   0.16666   0.38264   0.00000  Uiso   1.00
O391   O     0.16666   0.10655   0.53958   0.00000  Uiso   1.00
O392   O     0.01423   0.18397   0.56108   0.00000  Uiso   1.00
O393   O     0.16667   0.22678   0.46042   0.00000  Uiso   1.00
O394   O     0.16666   0.10654   0.46039   0.00000  Uiso   1.00
O395   O     0.16667   0.22679   0.53961   0.00000  Uiso   1.00
O396   O     0.09161   0.16667   0.53046   0.00000  Uiso   1.00
O397   O     0.24172   0.16666   0.46954   0.00000  Uiso   1.00
O398   O     0.09161   0.16666   0.45127   0.00000  Uiso   1.00
O399   O     0.24172   0.16667   0.54873   0.00000  Uiso   1.00
O400   O     0.31910   0.14937   0.43892   0.00000  Uiso   1.00
Br401  Br    0.42169   0.10146   0.37915   0.00000  Uiso   1.00
Br402  Br    0.57831   0.23188   0.62085   0.00000  Uiso   1.00
Br403  Br    0.42081   0.10201   0.60017   0.00000  Uiso   1.00
Br404  Br    0.57919   0.23132   0.39983   0.00000  Uiso   1.00
C405   C     0.50003   0.08746   0.49998   0.00000  Uiso   1.00
C406   C     0.49988   0.02134   0.54207   0.00000  Uiso   1.00
C407   C     0.49989   0.29054   0.50001   0.00000  Uiso   1.00
C408   C     0.50011   0.04279   0.49999   0.00000  Uiso   1.00
C409   C     0.46773   0.14012   0.35376   0.00000  Uiso   1.00
C410   C     0.53227   0.19322   0.64624   0.00000  Uiso   1.00
C411   C     0.46765   0.14018   0.63774   0.00000  Uiso   1.00
C412   C     0.53235   0.19316   0.36226   0.00000  Uiso   1.00
C413   C     0.49997   0.24588   0.50002   0.00000  Uiso   1.00
C414   C     0.40140   0.16604   0.48795   0.00000  Uiso   1.00
C415   C     0.59860   0.16730   0.51205   0.00000  Uiso   1.00
C416   C     0.34585   0.16270   0.48162   0.00000  Uiso   1.00
C417   C     0.65415   0.17064   0.51838   0.00000  Uiso   1.00
C418   C     0.50034   0.02125   0.45794   0.00000  Uiso   1.00
C419   C     0.49966   0.31208   0.54206   0.00000  Uiso   1.00
C420   C     0.50012   0.31200   0.45793   0.00000  Uiso   1.00
Cu421  Cu    0.50000   0.16667   0.54689   0.00000  Uiso   1.00
Cu422  Cu    0.50000   0.16666   0.45311   0.00000  Uiso   1.00
H423   H     0.50071   0.03719   0.42504   0.00000  Uiso   1.00
H424   H     0.49929   0.29615   0.57496   0.00000  Uiso   1.00
H425   H     0.50013   0.29600   0.42499   0.00000  Uiso   1.00
H426   H     0.49987   0.03734   0.57501   0.00000  Uiso   1.00
H427   H     0.34282   0.14544   0.41594   0.00000  Uiso   1.00
H428   H     0.65717   0.18790   0.58406   0.00000  Uiso   1.00
N429   N     0.50001   0.16668   0.61736   0.00000  Uiso   1.00
N430   N     0.49999   0.16666   0.38264   0.00000  Uiso   1.00
O431   O     0.50000   0.10655   0.53958   0.00000  Uiso   1.00
O432   O     0.34757   0.18397   0.56108   0.00000  Uiso   1.00
O433   O     0.50000   0.22678   0.46042   0.00000  Uiso   1.00
O434   O     0.50000   0.10654   0.46039   0.00000  Uiso   1.00
O435   O     0.50000   0.22679   0.53961   0.00000  Uiso   1.00
O436   O     0.42495   0.16667   0.53046   0.00000  Uiso   1.00
O437   O     0.57505   0.16666   0.46954   0.00000  Uiso   1.00
O438   O     0.42494   0.16666   0.45127   0.00000  Uiso   1.00
O439   O     0.57506   0.16667   0.54873   0.00000  Uiso   1.00
O440   O     0.65243   0.14937   0.43892   0.00000  Uiso   1.00
Br441  Br    0.75502   0.10146   0.37915   0.00000  Uiso   1.00
Br442  Br    0.91164   0.23188   0.62085   0.00000  Uiso   1.00
Br443  Br    0.75414   0.10201   0.60017   0.00000  Uiso   1.00
Br444  Br    0.91252   0.23132   0.39983   0.00000  Uiso   1.00
C445   C     0.83336   0.08746   0.49998   0.00000  Uiso   1.00
C446   C     0.83321   0.02134   0.54207   0.00000  Uiso   1.00
C447   C     0.83323   0.29054   0.50001   0.00000  Uiso   1.00
C448   C     0.83344   0.04279   0.49999   0.00000  Uiso   1.00
C449   C     0.80107   0.14012   0.35376   0.00000  Uiso   1.00
C450   C     0.86560   0.19322   0.64624   0.00000  Uiso   1.00
C451   C     0.80099   0.14018   0.63774   0.00000  Uiso   1.00
C452   C     0.86568   0.19316   0.36226   0.00000  Uiso   1.00
C453   C     0.83330   0.24588   0.50002   0.00000  Uiso   1.00
C454   C     0.73473   0.16604   0.48795   0.00000  Uiso   1.00
C455   C     0.93193   0.16730   0.51205   0.00000  Uiso   1.00
C456   C     0.67918   0.16270   0.48162   0.00000  Uiso   1.00
C457   C     0.98749   0.17064   0.51838   0.00000  Uiso   1.00
C458   C     0.83367   0.02125   0.45794   0.00000  Uiso   1.00
C459   C     0.83300   0.31208   0.54206   0.00000  Uiso   1.00
C460   C     0.83345   0.31200   0.45793   0.00000  Uiso   1.00
Cu461  Cu    0.83333   0.16667   0.54689   0.00000  Uiso   1.00
Cu462  Cu    0.83333   0.16666   0.45311   0.00000  Uiso   1.00
H463   H     0.83404   0.03719   0.42504   0.00000  Uiso   1.00
H464   H     0.83262   0.29615   0.57496   0.00000  Uiso   1.00
H465   H     0.83346   0.29600   0.42499   0.00000  Uiso   1.00
H466   H     0.83321   0.03734   0.57501   0.00000  Uiso   1.00
H467   H     0.67616   0.14544   0.41594   0.00000  Uiso   1.00
H468   H     0.99051   0.18790   0.58406   0.00000  Uiso   1.00
N469   N     0.83335   0.16668   0.61736   0.00000  Uiso   1.00
N470   N     0.83332   0.16666   0.38264   0.00000  Uiso   1.00
O471   O     0.83333   0.10655   0.53958   0.00000  Uiso   1.00
O472   O     0.68090   0.18397   0.56108   0.00000  Uiso   1.00
O473   O     0.83334   0.22678   0.46042   0.00000  Uiso   1.00
O474   O     0.83333   0.10654   0.46039   0.00000  Uiso   1.00
O475   O     0.83334   0.22679   0.53961   0.00000  Uiso   1.00
O476   O     0.75828   0.16667   0.53046   0.00000  Uiso   1.00
O477   O     0.90839   0.16666   0.46954   0.00000  Uiso   1.00
O478   O     0.75828   0.16666   0.45127   0.00000  Uiso   1.00
O479   O     0.90839   0.16667   0.54873   0.00000  Uiso   1.00
O480   O     0.98577   0.14937   0.43892   0.00000  Uiso   1.00
Br481  Br    0.08836   0.43479   0.37915   0.00000  Uiso   1.00
Br482  Br    0.24498   0.56521   0.62085   0.00000  Uiso   1.00
Br483  Br    0.08748   0.43534   0.60017   0.00000  Uiso   1.00
Br484  Br    0.24586   0.56466   0.39983   0.00000  Uiso   1.00
C485   C     0.16670   0.42079   0.49998   0.00000  Uiso   1.00
C486   C     0.16654   0.35467   0.54207   0.00000  Uiso   1.00
C487   C     0.16656   0.62388   0.50001   0.00000  Uiso   1.00
C488   C     0.16677   0.37612   0.49999   0.00000  Uiso   1.00
C489   C     0.13440   0.47345   0.35376   0.00000  Uiso   1.00
C490   C     0.19893   0.52655   0.64624   0.00000  Uiso   1.00
C491   C     0.13432   0.47351   0.63774   0.00000  Uiso   1.00
C492   C     0.19901   0.52649   0.36226   0.00000  Uiso   1.00
C493   C     0.16664   0.57921   0.50002   0.00000  Uiso   1.00
C494   C     0.06807   0.49937   0.48795   0.00000  Uiso   1.00
C495   C     0.26527   0.50063   0.51205   0.00000  Uiso   1.00
C496   C     0.01251   0.49603   0.48162   0.00000  Uiso   1.00
C497   C     0.32082   0.50397   0.51838   0.00000  Uiso   1.00
C498   C     0.16700   0.35459   0.45794   0.00000  Uiso   1.00
C499   C     0.16633   0.64541   0.54206   0.00000  Uiso   1.00
C500   C     0.16679   0.64533   0.45793   0.00000  Uiso   1.00
Cu501  Cu    0.16667   0.50001   0.54689   0.00000  Uiso   1.00
Cu502  Cu    0.16667   0.49999   0.45311   0.00000  Uiso   1.00
H503   H     0.16738   0.37052   0.42504   0.00000  Uiso   1.00
H504   H     0.16596   0.62948   0.57496   0.00000  Uiso   1.00
H505   H     0.16679   0.62933   0.42499   0.00000  Uiso   1.00
H506   H     0.16654   0.37067   0.57501   0.00000  Uiso   1.00
H507   H     0.00949   0.47877   0.41594   0.00000  Uiso   1.00
H508   H     0.32384   0.52123   0.58406   0.00000  Uiso   1.00
N509   N     0.16668   0.50001   0.61736   0.00000  Uiso   1.00
N510   N     0.16665   0.49999   0.38264   0.00000  Uiso   1.00
O511   O     0.16666   0.43989   0.53958   0.00000  Uiso   1.00
O512   O     0.01423   0.51730   0.56108   0.00000  Uiso   1.00
O513   O     0.16667   0.56011   0.46042   0.00000  Uiso   1.00
O514   O     0.16666   0.43988   0.46039   0.00000  Uiso   1.00
O515   O     0.16667   0.56012   0.53961   0.00000  Uiso   1.00
O516   O     0.09161   0.50000   0.53046   0.00000  Uiso   1.00
O517   O     0.24172   0.50000   0.46954   0.00000  Uiso   1.00
O518   O     0.09161   0.49999   0.45127   0.00000  Uiso   1.00
O519   O     0.24172   0.50001   0.54873   0.00000  Uiso   1.00
O520   O     0.31910   0.48270   0.43892   0.00000  Uiso   1.00
Br521  Br    0.42169   0.43479   0.37915   0.00000  Uiso   1.00
Br522  Br    0.57831   0.56521   0.62085   0.00000  Uiso   1.00
Br523  Br    0.42081   0.43534   0.60017   0.00000  Uiso   1.00
Br524  Br    0.57919   0.56466   0.39983   0.00000  Uiso   1.00
C525   C     0.50003   0.42079   0.49998   0.00000  Uiso   1.00
C526   C     0.49988   0.35467   0.54207   0.00000  Uiso   1.00
C527   C     0.49989   0.62388   0.50001   0.00000  Uiso   1.00
C528   C     0.50011   0.37612   0.49999   0.00000  Uiso   1.00
C529   C     0.46773   0.47345   0.35376   0.00000  Uiso   1.00
C530   C     0.53227   0.52655   0.64624   0.00000  Uiso   1.00
C531   C     0.46765   0.47351   0.63774   0.00000  Uiso   1.00
C532   C     0.53235   0.52649   0.36226   0.00000  Uiso   1.00
C533   C     0.49997   0.57921   0.50002   0.00000  Uiso   1.00
C534   C     0.40140   0.49937   0.48795   0.00000  Uiso   1.00
C535   C     0.59860   0.50063   0.51205   0.00000  Uiso   1.00
C536   C     0.34585   0.49603   0.48162   0.00000  Uiso   1.00
C537   C     0.65415   0.50397   0.51838   0.00000  Uiso   1.00
C538   C     0.50034   0.35459   0.45794   0.00000  Uiso   1.00
C539   C     0.49966   0.64541   0.54206   0.00000  Uiso   1.00
C540   C     0.50012   0.64533   0.45793   0.00000  Uiso   1.00
Cu541  Cu    0.50000   0.50001   0.54689   0.00000  Uiso   1.00
Cu542  Cu    0.50000   0.49999   0.45311   0.00000  Uiso   1.00
H543   H     0.50071   0.37052   0.42504   0.00000  Uiso   1.00
H544   H     0.49929   0.62948   0.57496   0.00000  Uiso   1.00
H545   H     0.50013   0.62933   0.42499   0.00000  Uiso   1.00
H546   H     0.49987   0.37067   0.57501   0.00000  Uiso   1.00
H547   H     0.34282   0.47877   0.41594   0.00000  Uiso   1.00
H548   H     0.65717   0.52123   0.58406   0.00000  Uiso   1.00
N549   N     0.50001   0.50001   0.61736   0.00000  Uiso   1.00
N550   N     0.49999   0.49999   0.38264   0.00000  Uiso   1.00
O551   O     0.50000   0.43989   0.53958   0.00000  Uiso   1.00
O552   O     0.34757   0.51730   0.56108   0.00000  Uiso   1.00
O553   O     0.50000   0.56011   0.46042   0.00000  Uiso   1.00
O554   O     0.50000   0.43988   0.46039   0.00000  Uiso   1.00
O555   O     0.50000   0.56012   0.53961   0.00000  Uiso   1.00
O556   O     0.42495   0.50000   0.53046   0.00000  Uiso   1.00
O557   O     0.57505   0.50000   0.46954   0.00000  Uiso   1.00
O558   O     0.42494   0.49999   0.45127   0.00000  Uiso   1.00
O559   O     0.57506   0.50001   0.54873   0.00000  Uiso   1.00
O560   O     0.65243   0.48270   0.43892   0.00000  Uiso   1.00
Br561  Br    0.75502   0.43479   0.37915   0.00000  Uiso   1.00
Br562  Br    0.91164   0.56521   0.62085   0.00000  Uiso   1.00
Br563  Br    0.75414   0.43534   0.60017   0.00000  Uiso   1.00
Br564  Br    0.91252   0.56466   0.39983   0.00000  Uiso   1.00
C565   C     0.83336   0.42079   0.49998   0.00000  Uiso   1.00
C566   C     0.83321   0.35467   0.54207   0.00000  Uiso   1.00
C567   C     0.83323   0.62388   0.50001   0.00000  Uiso   1.00
C568   C     0.83344   0.37612   0.49999   0.00000  Uiso   1.00
C569   C     0.80107   0.47345   0.35376   0.00000  Uiso   1.00
C570   C     0.86560   0.52655   0.64624   0.00000  Uiso   1.00
C571   C     0.80099   0.47351   0.63774   0.00000  Uiso   1.00
C572   C     0.86568   0.52649   0.36226   0.00000  Uiso   1.00
C573   C     0.83330   0.57921   0.50002   0.00000  Uiso   1.00
C574   C     0.73473   0.49937   0.48795   0.00000  Uiso   1.00
C575   C     0.93193   0.50063   0.51205   0.00000  Uiso   1.00
C576   C     0.67918   0.49603   0.48162   0.00000  Uiso   1.00
C577   C     0.98749   0.50397   0.51838   0.00000  Uiso   1.00
C578   C     0.83367   0.35459   0.45794   0.00000  Uiso   1.00
C579   C     0.83300   0.64541   0.54206   0.00000  Uiso   1.00
C580   C     0.83345   0.64533   0.45793   0.00000  Uiso   1.00
Cu581  Cu    0.83333   0.50001   0.54689   0.00000  Uiso   1.00
Cu582  Cu    0.83333   0.49999   0.45311   0.00000  Uiso   1.00
H583   H     0.83404   0.37052   0.42504   0.00000  Uiso   1.00
H584   H     0.83262   0.62948   0.57496   0.00000  Uiso   1.00
H585   H     0.83346   0.62933   0.42499   0.00000  Uiso   1.00
H586   H     0.83321   0.37067   0.57501   0.00000  Uiso   1.00
H587   H     0.67616   0.47877   0.41594   0.00000  Uiso   1.00
H588   H     0.99051   0.52123   0.58406   0.00000  Uiso   1.00
N589   N     0.83335   0.50001   0.61736   0.00000  Uiso   1.00
N590   N     0.83332   0.49999   0.38264   0.00000  Uiso   1.00
O591   O     0.83333   0.43989   0.53958   0.00000  Uiso   1.00
O592   O     0.68090   0.51730   0.56108   0.00000  Uiso   1.00
O593   O     0.83334   0.56011   0.46042   0.00000  Uiso   1.00
O594   O     0.83333   0.43988   0.46039   0.00000  Uiso   1.00
O595   O     0.83334   0.56012   0.53961   0.00000  Uiso   1.00
O596   O     0.75828   0.50000   0.53046   0.00000  Uiso   1.00
O597   O     0.90839   0.50000   0.46954   0.00000  Uiso   1.00
O598   O     0.75828   0.49999   0.45127   0.00000  Uiso   1.00
O599   O     0.90839   0.50001   0.54873   0.00000  Uiso   1.00
O600   O     0.98577   0.48270   0.43892   0.00000  Uiso   1.00
Br601  Br    0.08836   0.76812   0.37915   0.00000  Uiso   1.00
Br602  Br    0.24498   0.89855   0.62085   0.00000  Uiso   1.00
Br603  Br    0.08748   0.76868   0.60017   0.00000  Uiso   1.00
Br604  Br    0.24586   0.89799   0.39983   0.00000  Uiso   1.00
C605   C     0.16670   0.75413   0.49998   0.00000  Uiso   1.00
C606   C     0.16654   0.68800   0.54207   0.00000  Uiso   1.00
C607   C     0.16656   0.95721   0.50001   0.00000  Uiso   1.00
C608   C     0.16677   0.70946   0.49999   0.00000  Uiso   1.00
C609   C     0.13440   0.80678   0.35376   0.00000  Uiso   1.00
C610   C     0.19893   0.85988   0.64624   0.00000  Uiso   1.00
C611   C     0.13432   0.80684   0.63774   0.00000  Uiso   1.00
C612   C     0.19901   0.85982   0.36226   0.00000  Uiso   1.00
C613   C     0.16664   0.91254   0.50002   0.00000  Uiso   1.00
C614   C     0.06807   0.83270   0.48795   0.00000  Uiso   1.00
C615   C     0.26527   0.83396   0.51205   0.00000  Uiso   1.00
C616   C     0.01251   0.82936   0.48162   0.00000  Uiso   1.00
C617   C     0.32082   0.83730   0.51838   0.00000  Uiso   1.00
C618   C     0.16700   0.68792   0.45794   0.00000  Uiso   1.00
C619   C     0.16633   0.97875   0.54206   0.00000  Uiso   1.00
C620   C     0.16679   0.97866   0.45793   0.00000  Uiso   1.00
Cu621  Cu    0.16667   0.83334   0.54689   0.00000  Uiso   1.00
Cu622  Cu    0.16667   0.83333   0.45311   0.00000  Uiso   1.00
H623   H     0.16738   0.70385   0.42504   0.00000  Uiso   1.00
H624   H     0.16596   0.96281   0.57496   0.00000  Uiso   1.00
H625   H     0.16679   0.96266   0.42499   0.00000  Uiso   1.00
H626   H     0.16654   0.70400   0.57501   0.00000  Uiso   1.00
H627   H     0.00949   0.81211   0.41594   0.00000  Uiso   1.00
H628   H     0.32384   0.85456   0.58406   0.00000  Uiso   1.00
N629   N     0.16668   0.83334   0.61736   0.00000  Uiso   1.00
N630   N     0.16665   0.83332   0.38264   0.00000  Uiso   1.00
O631   O     0.16666   0.77322   0.53958   0.00000  Uiso   1.00
O632   O     0.01423   0.85063   0.56108   0.00000  Uiso   1.00
O633   O     0.16667   0.89345   0.46042   0.00000  Uiso   1.00
O634   O     0.16666   0.77321   0.46039   0.00000  Uiso   1.00
O635   O     0.16667   0.89346   0.53961   0.00000  Uiso   1.00
O636   O     0.09161   0.83334   0.53046   0.00000  Uiso   1.00
O637   O     0.24172   0.83333   0.46954   0.00000  Uiso   1.00
O638   O     0.09161   0.83333   0.45127   0.00000  Uiso   1.00
O639   O     0.24172   0.83334   0.54873   0.00000  Uiso   1.00
O640   O     0.31910   0.81603   0.43892   0.00000  Uiso   1.00
Br641  Br    0.42169   0.76812   0.37915   0.00000  Uiso   1.00
Br642  Br    0.57831   0.89855   0.62085   0.00000  Uiso   1.00
Br643  Br    0.42081   0.76868   0.60017   0.00000  Uiso   1.00
Br644  Br    0.57919   0.89799   0.39983   0.00000  Uiso   1.00
C645   C     0.50003   0.75413   0.49998   0.00000  Uiso   1.00
C646   C     0.49988   0.68800   0.54207   0.00000  Uiso   1.00
C647   C     0.49989   0.95721   0.50001   0.00000  Uiso   1.00
C648   C     0.50011   0.70946   0.49999   0.00000  Uiso   1.00
C649   C     0.46773   0.80678   0.35376   0.00000  Uiso   1.00
C650   C     0.53227   0.85988   0.64624   0.00000  Uiso   1.00
C651   C     0.46765   0.80684   0.63774   0.00000  Uiso   1.00
C652   C     0.53235   0.85982   0.36226   0.00000  Uiso   1.00
C653   C     0.49997   0.91254   0.50002   0.00000  Uiso   1.00
C654   C     0.40140   0.83270   0.48795   0.00000  Uiso   1.00
C655   C     0.59860   0.83396   0.51205   0.00000  Uiso   1.00
C656   C     0.34585   0.82936   0.48162   0.00000  Uiso   1.00
C657   C     0.65415   0.83730   0.51838   0.00000  Uiso   1.00
C658   C     0.50034   0.68792   0.45794   0.00000  Uiso   1.00
C659   C     0.49966   0.97875   0.54206   0.00000  Uiso   1.00
C660   C     0.50012   0.97866   0.45793   0.00000  Uiso   1.00
Cu661  Cu    0.50000   0.83334   0.54689   0.00000  Uiso   1.00
Cu662  Cu    0.50000   0.83333   0.45311   0.00000  Uiso   1.00
H663   H     0.50071   0.70385   0.42504   0.00000  Uiso   1.00
H664   H     0.49929   0.96281   0.57496   0.00000  Uiso   1.00
H665   H     0.50013   0.96266   0.42499   0.00000  Uiso   1.00
H666   H     0.49987   0.70400   0.57501   0.00000  Uiso   1.00
H667   H     0.34282   0.81211   0.41594   0.00000  Uiso   1.00
H668   H     0.65717   0.85456   0.58406   0.00000  Uiso   1.00
N669   N     0.50001   0.83334   0.61736   0.00000  Uiso   1.00
N670   N     0.49999   0.83332   0.38264   0.00000  Uiso   1.00
O671   O     0.50000   0.77322   0.53958   0.00000  Uiso   1.00
O672   O     0.34757   0.85063   0.56108   0.00000  Uiso   1.00
O673   O     0.50000   0.89345   0.46042   0.00000  Uiso   1.00
O674   O     0.50000   0.77321   0.46039   0.00000  Uiso   1.00
O675   O     0.50000   0.89346   0.53961   0.00000  Uiso   1.00
O676   O     0.42495   0.83334   0.53046   0.00000  Uiso   1.00
O677   O     0.57505   0.83333   0.46954   0.00000  Uiso   1.00
O678   O     0.42494   0.83333   0.45127   0.00000  Uiso   1.00
O679   O     0.57506   0.83334   0.54873   0.00000  Uiso   1.00
O680   O     0.65243   0.81603   0.43892   0.00000  Uiso   1.00
Br681  Br    0.75502   0.76812   0.37915   0.00000  Uiso   1.00
Br682  Br    0.91164   0.89855   0.62085   0.00000  Uiso   1.00
Br683  Br    0.75414   0.76868   0.60017   0.00000  Uiso   1.00
Br684  Br    0.91252   0.89799   0.39983   0.00000  Uiso   1.00
C685   C     0.83336   0.75413   0.49998   0.00000  Uiso   1.00
C686   C     0.83321   0.68800   0.54207   0.00000  Uiso   1.00
C687   C     0.83323   0.95721   0.50001   0.00000  Uiso   1.00
C688   C     0.83344   0.70946   0.49999   0.00000  Uiso   1.00
C689   C     0.80107   0.80678   0.35376   0.00000  Uiso   1.00
C690   C     0.86560   0.85988   0.64624   0.00000  Uiso   1.00
C691   C     0.80099   0.80684   0.63774   0.00000  Uiso   1.00
C692   C     0.86568   0.85982   0.36226   0.00000  Uiso   1.00
C693   C     0.83330   0.91254   0.50002   0.00000  Uiso   1.00
C694   C     0.73473   0.83270   0.48795   0.00000  Uiso   1.00
C695   C     0.93193   0.83396   0.51205   0.00000  Uiso   1.00
C696   C     0.67918   0.82936   0.48162   0.00000  Uiso   1.00
C697   C     0.98749   0.83730   0.51838   0.00000  Uiso   1.00
C698   C     0.83367   0.68792   0.45794   0.00000  Uiso   1.00
C699   C     0.83300   0.97875   0.54206   0.00000  Uiso   1.00
C700   C     0.83345   0.97866   0.45793   0.00000  Uiso   1.00
Cu701  Cu    0.83333   0.83334   0.54689   0.00000  Uiso   1.00
Cu702  Cu    0.83333   0.83333   0.45311   0.00000  Uiso   1.00
H703   H     0.83404   0.70385   0.42504   0.00000  Uiso   1.00
H704   H     0.83262   0.96281   0.57496   0.00000  Uiso   1.00
H705   H     0.83346   0.96266   0.42499   0.00000  Uiso   1.00
H706   H     0.83321   0.70400   0.57501   0.00000  Uiso   1.00
H707   H     0.67616   0.81211   0.41594   0.00000  Uiso   1.00
H708   H     0.99051   0.85456   0.58406   0.00000  Uiso   1.00
N709   N     0.83335   0.83334   0.61736   0.00000  Uiso   1.00
N710   N     0.83332   0.83332   0.38264   0.00000  Uiso   1.00
O711   O     0.83333   0.77322   0.53958   0.00000  Uiso   1.00
O712   O     0.68090   0.85063   0.56108   0.00000  Uiso   1.00
O713   O     0.83334   0.89345   0.46042   0.00000  Uiso   1.00
O714   O     0.83333   0.77321   0.46039   0.00000  Uiso   1.00
O715   O     0.83334   0.89346   0.53961   0.00000  Uiso   1.00
O716   O     0.75828   0.83334   0.53046   0.00000  Uiso   1.00
O717   O     0.90839   0.83333   0.46954   0.00000  Uiso   1.00
O718   O     0.75828   0.83333   0.45127   0.00000  Uiso   1.00
O719   O     0.90839   0.83334   0.54873   0.00000  Uiso   1.00
O720   O     0.98577   0.81603   0.43892   0.00000  Uiso   1.00
Br721  Br    0.08836   0.10146   0.71248   0.00000  Uiso   1.00
Br722  Br    0.24498   0.23188   0.95418   0.00000  Uiso   1.00
Br723  Br    0.08748   0.10201   0.93350   0.00000  Uiso   1.00
Br724  Br    0.24586   0.23132   0.73317   0.00000  Uiso   1.00
C725   C     0.16670   0.08746   0.83331   0.00000  Uiso   1.00
C726   C     0.16654   0.02134   0.87540   0.00000  Uiso   1.00
C727   C     0.16656   0.29054   0.83334   0.00000  Uiso   1.00
C728   C     0.16677   0.04279   0.83332   0.00000  Uiso   1.00
C729   C     0.13440   0.14012   0.68709   0.00000  Uiso   1.00
C730   C     0.19893   0.19322   0.97957   0.00000  Uiso   1.00
C731   C     0.13432   0.14018   0.97107   0.00000  Uiso   1.00
C732   C     0.19901   0.19316   0.69559   0.00000  Uiso   1.00
C733   C     0.16664   0.24588   0.83336   0.00000  Uiso   1.00
C734   C     0.06807   0.16604   0.82128   0.00000  Uiso   1.00
C735   C     0.26527   0.16730   0.84539   0.00000  Uiso   1.00
C736   C     0.01251   0.16270   0.81495   0.00000  Uiso   1.00
C737   C     0.32082   0.17064   0.85172   0.00000  Uiso   1.00
C738   C     0.16700   0.02125   0.79127   0.00000  Uiso   1.00
C739   C     0.16633   0.31208   0.87540   0.00000  Uiso   1.00
C740   C     0.16679   0.31200   0.79126   0.00000  Uiso   1.00
Cu741  Cu    0.16667   0.16667   0.88022   0.00000  Uiso   1.00
Cu742  Cu    0.16667   0.16666   0.78645   0.00000  Uiso   1.00
H743   H     0.16738   0.03719   0.75837   0.00000  Uiso   1.00
H744   H     0.16596   0.29615   0.90830   0.00000  Uiso   1.00
H745   H     0.16679   0.29600   0.75832   0.00000  Uiso   1.00
H746   H     0.16654   0.03734   0.90834   0.00000  Uiso   1.00
H747   H     0.00949   0.14544   0.74928   0.00000  Uiso   1.00
H748   H     0.32384   0.18790   0.91739   0.00000  Uiso   1.00
N749   N     0.16668   0.16668   0.95069   0.00000  Uiso   1.00
N750   N     0.16665   0.16666   0.71597   0.00000  Uiso   1.00
O751   O     0.16666   0.10655   0.87291   0.00000  Uiso   1.00
O752   O     0.01423   0.18397   0.89441   0.00000  Uiso   1.00
O753   O     0.16667   0.22678   0.79375   0.00000  Uiso   1.00
O754   O     0.16666   0.10654   0.79372   0.00000  Uiso   1.00
O755   O     0.16667   0.22679   0.87294   0.00000  Uiso   1.00
O756   O     0.09161   0.16667   0.86379   0.00000  Uiso   1.00
O757   O     0.24172   0.16666   0.80288   0.00000  Uiso   1.00
O758   O     0.09161   0.16666   0.78460   0.00000  Uiso   1.00
O759   O     0.24172   0.16667   0.88207   0.00000  Uiso   1.00
O760   O     0.31910   0.14937   0.77226   0.00000  Uiso   1.00
Br761  Br    0.42169   0.10146   0.71248   0.00000  Uiso   1.00
Br762  Br    0.57831   0.23188   0.95418   0.00000  Uiso   1.00
Br763  Br    0.42081   0.10201   0.93350   0.00000  Uiso   1.00
Br764  Br    0.57919   0.23132   0.73317   0.00000  Uiso   1.00
C765   C     0.50003   0.08746   0.83331   0.00000  Uiso   1.00
C766   C     0.49988   0.02134   0.87540   0.00000  Uiso   1.00
C767   C     0.49989   0.29054   0.83334   0.00000  Uiso   1.00
C768   C     0.50011   0.04279   0.83332   0.00000  Uiso   1.00
C769   C     0.46773   0.14012   0.68709   0.00000  Uiso   1.00
C770   C     0.53227   0.19322   0.97957   0.00000  Uiso   1.00
C771   C     0.46765   0.14018   0.97107   0.00000  Uiso   1.00
C772   C     0.53235   0.19316   0.69559   0.00000  Uiso   1.00
C773   C     0.49997   0.24588   0.83336   0.00000  Uiso   1.00
C774   C     0.40140   0.16604   0.82128   0.00000  Uiso   1.00
C775   C     0.59860   0.16730   0.84539   0.00000  Uiso   1.00
C776   C     0.34585   0.16270   0.81495   0.00000  Uiso   1.00
C777   C     0.65415   0.17064   0.85172   0.00000  Uiso   1.00
C778   C     0.50034   0.02125   0.79127   0.00000  Uiso   1.00
C779   C     0.49966   0.31208   0.87540   0.00000  Uiso   1.00
C780   C     0.50012   0.31200   0.79126   0.00000  Uiso   1.00
Cu781  Cu    0.50000   0.16667   0.88022   0.00000  Uiso   1.00
Cu782  Cu    0.50000   0.16666   0.78645   0.00000  Uiso   1.00
H783   H     0.50071   0.03719   0.75837   0.00000  Uiso   1.00
H784   H     0.49929   0.29615   0.90830   0.00000  Uiso   1.00
H785   H     0.50013   0.29600   0.75832   0.00000  Uiso   1.00
H786   H     0.49987   0.03734   0.90834   0.00000  Uiso   1.00
H787   H     0.34282   0.14544   0.74928   0.00000  Uiso   1.00
H788   H     0.65717   0.18790   0.91739   0.00000  Uiso   1.00
N789   N     0.50001   0.16668   0.95069   0.00000  Uiso   1.00
N790   N     0.49999   0.16666   0.71597   0.00000  Uiso   1.00
O791   O     0.50000   0.10655   0.87291   0.00000  Uiso   1.00
O792   O     0.34757   0.18397   0.89441   0.00000  Uiso   1.00
O793   O     0.50000   0.22678   0.79375   0.00000  Uiso   1.00
O794   O     0.50000   0.10654   0.79372   0.00000  Uiso   1.00
O795   O     0.50000   0.22679   0.87294   0.00000  Uiso   1.00
O796   O     0.42495   0.16667   0.86379   0.00000  Uiso   1.00
O797   O     0.57505   0.16666   0.80288   0.00000  Uiso   1.00
O798   O     0.42494   0.16666   0.78460   0.00000  Uiso   1.00
O799   O     0.57506   0.16667   0.88207   0.00000  Uiso   1.00
O800   O     0.65243   0.14937   0.77226   0.00000  Uiso   1.00
Br801  Br    0.75502   0.10146   0.71248   0.00000  Uiso   1.00
Br802  Br    0.91164   0.23188   0.95418   0.00000  Uiso   1.00
Br803  Br    0.75414   0.10201   0.93350   0.00000  Uiso   1.00
Br804  Br    0.91252   0.23132   0.73317   0.00000  Uiso   1.00
C805   C     0.83336   0.08746   0.83331   0.00000  Uiso   1.00
C806   C     0.83321   0.02134   0.87540   0.00000  Uiso   1.00
C807   C     0.83323   0.29054   0.83334   0.00000  Uiso   1.00
C808   C     0.83344   0.04279   0.83332   0.00000  Uiso   1.00
C809   C     0.80107   0.14012   0.68709   0.00000  Uiso   1.00
C810   C     0.86560   0.19322   0.97957   0.00000  Uiso   1.00
C811   C     0.80099   0.14018   0.97107   0.00000  Uiso   1.00
C812   C     0.86568   0.19316   0.69559   0.00000  Uiso   1.00
C813   C     0.83330   0.24588   0.83336   0.00000  Uiso   1.00
C814   C     0.73473   0.16604   0.82128   0.00000  Uiso   1.00
C815   C     0.93193   0.16730   0.84539   0.00000  Uiso   1.00
C816   C     0.67918   0.16270   0.81495   0.00000  Uiso   1.00
C817   C     0.98749   0.17064   0.85172   0.00000  Uiso   1.00
C818   C     0.83367   0.02125   0.79127   0.00000  Uiso   1.00
C819   C     0.83300   0.31208   0.87540   0.00000  Uiso   1.00
C820   C     0.83345   0.31200   0.79126   0.00000  Uiso   1.00
Cu821  Cu    0.83333   0.16667   0.88022   0.00000  Uiso   1.00
Cu822  Cu    0.83333   0.16666   0.78645   0.00000  Uiso   1.00
H823   H     0.83404   0.03719   0.75837   0.00000  Uiso   1.00
H824   H     0.83262   0.29615   0.90830   0.00000  Uiso   1.00
H825   H     0.83346   0.29600   0.75832   0.00000  Uiso   1.00
H826   H     0.83321   0.03734   0.90834   0.00000  Uiso   1.00
H827   H     0.67616   0.14544   0.74928   0.00000  Uiso   1.00
H828   H     0.99051   0.18790   0.91739   0.00000  Uiso   1.00
N829   N     0.83335   0.16668   0.95069   0.00000  Uiso   1.00
N830   N     0.83332   0.16666   0.71597   0.00000  Uiso   1.00
O831   O     0.83333   0.10655   0.87291   0.00000  Uiso   1.00
O832   O     0.68090   0.18397   0.89441   0.00000  Uiso   1.00
O833   O     0.83334   0.22678   0.79375   0.00000  Uiso   1.00
O834   O     0.83333   0.10654   0.79372   0.00000  Uiso   1.00
O835   O     0.83334   0.22679   0.87294   0.00000  Uiso   1.00
O836   O     0.75828   0.16667   0.86379   0.00000  Uiso   1.00
O837   O     0.90839   0.16666   0.80288   0.00000  Uiso   1.00
O838   O     0.75828   0.16666   0.78460   0.00000  Uiso   1.00
O839   O     0.90839   0.16667   0.88207   0.00000  Uiso   1.00
O840   O     0.98577   0.14937   0.77226   0.00000  Uiso   1.00
Br841  Br    0.08836   0.43479   0.71248   0.00000  Uiso   1.00
Br842  Br    0.24498   0.56521   0.95418   0.00000  Uiso   1.00
Br843  Br    0.08748   0.43534   0.93350   0.00000  Uiso   1.00
Br844  Br    0.24586   0.56466   0.73317   0.00000  Uiso   1.00
C845   C     0.16670   0.42079   0.83331   0.00000  Uiso   1.00
C846   C     0.16654   0.35467   0.87540   0.00000  Uiso   1.00
C847   C     0.16656   0.62388   0.83334   0.00000  Uiso   1.00
C848   C     0.16677   0.37612   0.83332   0.00000  Uiso   1.00
C849   C     0.13440   0.47345   0.68709   0.00000  Uiso   1.00
C850   C     0.19893   0.52655   0.97957   0.00000  Uiso   1.00
C851   C     0.13432   0.47351   0.97107   0.00000  Uiso   1.00
C852   C     0.19901   0.52649   0.69559   0.00000  Uiso   1.00
C853   C     0.16664   0.57921   0.83336   0.00000  Uiso   1.00
C854   C     0.06807   0.49937   0.82128   0.00000  Uiso   1.00
C855   C     0.26527   0.50063   0.84539   0.00000  Uiso   1.00
C856   C     0.01251   0.49603   0.81495   0.00000  Uiso   1.00
C857   C     0.32082   0.50397   0.85172   0.00000  Uiso   1.00
C858   C     0.16700   0.35459   0.79127   0.00000  Uiso   1.00
C859   C     0.16633   0.64541   0.87540   0.00000  Uiso   1.00
C860   C     0.16679   0.64533   0.79126   0.00000  Uiso   1.00
Cu861  Cu    0.16667   0.50001   0.88022   0.00000  Uiso   1.00
Cu862  Cu    0.16667   0.49999   0.78645   0.00000  Uiso   1.00
H863   H     0.16738   0.37052   0.75837   0.00000  Uiso   1.00
H864   H     0.16596   0.62948   0.90830   0.00000  Uiso   1.00
H865   H     0.16679   0.62933   0.75832   0.00000  Uiso   1.00
H866   H     0.16654   0.37067   0.90834   0.00000  Uiso   1.00
H867   H     0.00949   0.47877   0.74928   0.00000  Uiso   1.00
H868   H     0.32384   0.52123   0.91739   0.00000  Uiso   1.00
N869   N     0.16668   0.50001   0.95069   0.00000  Uiso   1.00
N870   N     0.16665   0.49999   0.71597   0.00000  Uiso   1.00
O871   O     0.16666   0.43989   0.87291   0.00000  Uiso   1.00
O872   O     0.01423   0.51730   0.89441   0.00000  Uiso   1.00
O873   O     0.16667   0.56011   0.79375   0.00000  Uiso   1.00
O874   O     0.16666   0.43988   0.79372   0.00000  Uiso   1.00
O875   O     0.16667   0.56012   0.87294   0.00000  Uiso   1.00
O876   O     0.09161   0.50000   0.86379   0.00000  Uiso   1.00
O877   O     0.24172   0.50000   0.80288   0.00000  Uiso   1.00
O878   O     0.09161   0.49999   0.78460   0.00000  Uiso   1.00
O879   O     0.24172   0.50001   0.88207   0.00000  Uiso   1.00
O880   O     0.31910   0.48270   0.77226   0.00000  Uiso   1.00
Br881  Br    0.42169   0.43479   0.71248   0.00000  Uiso   1.00
Br882  Br    0.57831   0.56521   0.95418   0.00000  Uiso   1.00
Br883  Br    0.42081   0.43534   0.93350   0.00000  Uiso   1.00
Br884  Br    0.57919   0.56466   0.73317   0.00000  Uiso   1.00
C885   C     0.50003   0.42079   0.83331   0.00000  Uiso   1.00
C886   C     0.49988   0.35467   0.87540   0.00000  Uiso   1.00
C887   C     0.49989   0.62388   0.83334   0.00000  Uiso   1.00
C888   C     0.50011   0.37612   0.83332   0.00000  Uiso   1.00
C889   C     0.46773   0.47345   0.68709   0.00000  Uiso   1.00
C890   C     0.53227   0.52655   0.97957   0.00000  Uiso   1.00
C891   C     0.46765   0.47351   0.97107   0.00000  Uiso   1.00
C892   C     0.53235   0.52649   0.69559   0.00000  Uiso   1.00
C893   C     0.49997   0.57921   0.83336   0.00000  Uiso   1.00
C894   C     0.40140   0.49937   0.82128   0.00000  Uiso   1.00
C895   C     0.59860   0.50063   0.84539   0.00000  Uiso   1.00
C896   C     0.34585   0.49603   0.81495   0.00000  Uiso   1.00
C897   C     0.65415   0.50397   0.85172   0.00000  Uiso   1.00
C898   C     0.50034   0.35459   0.79127   0.00000  Uiso   1.00
C899   C     0.49966   0.64541   0.87540   0.00000  Uiso   1.00
C900   C     0.50012   0.64533   0.79126   0.00000  Uiso   1.00
Cu901  Cu    0.50000   0.50001   0.88022   0.00000  Uiso   1.00
Cu902  Cu    0.50000   0.49999   0.78645   0.00000  Uiso   1.00
H903   H     0.50071   0.37052   0.75837   0.00000  Uiso   1.00
H904   H     0.49929   0.62948   0.90830   0.00000  Uiso   1.00
H905   H     0.50013   0.62933   0.75832   0.00000  Uiso   1.00
H906   H     0.49987   0.37067   0.90834   0.00000  Uiso   1.00
H907   H     0.34282   0.47877   0.74928   0.00000  Uiso   1.00
H908   H     0.65717   0.52123   0.91739   0.00000  Uiso   1.00
N909   N     0.50001   0.50001   0.95069   0.00000  Uiso   1.00
N910   N     0.49999   0.49999   0.71597   0.00000  Uiso   1.00
O911   O     0.50000   0.43989   0.87291   0.00000  Uiso   1.00
O912   O     0.34757   0.51730   0.89441   0.00000  Uiso   1.00
O913   O     0.50000   0.56011   0.79375   0.00000  Uiso   1.00
O914   O     0.50000   0.43988   0.79372   0.00000  Uiso   1.00
O915   O     0.50000   0.56012   0.87294   0.00000  Uiso   1.00
O916   O     0.42495   0.50000   0.86379   0.00000  Uiso   1.00
O917   O     0.57505   0.50000   0.80288   0.00000  Uiso   1.00
O918   O     0.42494   0.49999   0.78460   0.00000  Uiso   1.00
O919   O     0.57506   0.50001   0.88207   0.00000  Uiso   1.00
O920   O     0.65243   0.48270   0.77226   0.00000  Uiso   1.00
Br921  Br    0.75502   0.43479   0.71248   0.00000  Uiso   1.00
Br922  Br    0.91164   0.56521   0.95418   0.00000  Uiso   1.00
Br923  Br    0.75414   0.43534   0.93350   0.00000  Uiso   1.00
Br924  Br    0.91252   0.56466   0.73317   0.00000  Uiso   1.00
C925   C     0.83336   0.42079   0.83331   0.00000  Uiso   1.00
C926   C     0.83321   0.35467   0.87540   0.00000  Uiso   1.00
C927   C     0.83323   0.62388   0.83334   0.00000  Uiso   1.00
C928   C     0.83344   0.37612   0.83332   0.00000  Uiso   1.00
C929   C     0.80107   0.47345   0.68709   0.00000  Uiso   1.00
C930   C     0.86560   0.52655   0.97957   0.00000  Uiso   1.00
C931   C     0.80099   0.47351   0.97107   0.00000  Uiso   1.00
C932   C     0.86568   0.52649   0.69559   0.00000  Uiso   1.00
C933   C     0.83330   0.57921   0.83336   0.00000  Uiso   1.00
C934   C     0.73473   0.49937   0.82128   0.00000  Uiso   1.00
C935   C     0.93193   0.50063   0.84539   0.00000  Uiso   1.00
C936   C     0.67918   0.49603   0.81495   0.00000  Uiso   1.00
C937   C     0.98749   0.50397   0.85172   0.00000  Uiso   1.00
C938   C     0.83367   0.35459   0.79127   0.00000  Uiso   1.00
C939   C     0.83300   0.64541   0.87540   0.00000  Uiso   1.00
C940   C     0.83345   0.64533   0.79126   0.00000  Uiso   1.00
Cu941  Cu    0.83333   0.50001   0.88022   0.00000  Uiso   1.00
Cu942  Cu    0.83333   0.49999   0.78645   0.00000  Uiso   1.00
H943   H     0.83404   0.37052   0.75837   0.00000  Uiso   1.00
H944   H     0.83262   0.62948   0.90830   0.00000  Uiso   1.00
H945   H     0.83346   0.62933   0.75832   0.00000  Uiso   1.00
H946   H     0.83321   0.37067   0.90834   0.00000  Uiso   1.00
H947   H     0.67616   0.47877   0.74928   0.00000  Uiso   1.00
H948   H     0.99051   0.52123   0.91739   0.00000  Uiso   1.00
N949   N     0.83335   0.50001   0.95069   0.00000  Uiso   1.00
N950   N     0.83332   0.49999   0.71597   0.00000  Uiso   1.00
O951   O     0.83333   0.43989   0.87291   0.00000  Uiso   1.00
O952   O     0.68090   0.51730   0.89441   0.00000  Uiso   1.00
O953   O     0.83334   0.56011   0.79375   0.00000  Uiso   1.00
O954   O     0.83333   0.43988   0.79372   0.00000  Uiso   1.00
O955   O     0.83334   0.56012   0.87294   0.00000  Uiso   1.00
O956   O     0.75828   0.50000   0.86379   0.00000  Uiso   1.00
O957   O     0.90839   0.50000   0.80288   0.00000  Uiso   1.00
O958   O     0.75828   0.49999   0.78460   0.00000  Uiso   1.00
O959   O     0.90839   0.50001   0.88207   0.00000  Uiso   1.00
O960   O     0.98577   0.48270   0.77226   0.00000  Uiso   1.00
Br961  Br    0.08836   0.76812   0.71248   0.00000  Uiso   1.00
Br962  Br    0.24498   0.89855   0.95418   0.00000  Uiso   1.00
Br963  Br    0.08748   0.76868   0.93350   0.00000  Uiso   1.00
Br964  Br    0.24586   0.89799   0.73317   0.00000  Uiso   1.00
C965   C     0.16670   0.75413   0.83331   0.00000  Uiso   1.00
C966   C     0.16654   0.68800   0.87540   0.00000  Uiso   1.00
C967   C     0.16656   0.95721   0.83334   0.00000  Uiso   1.00
C968   C     0.16677   0.70946   0.83332   0.00000  Uiso   1.00
C969   C     0.13440   0.80678   0.68709   0.00000  Uiso   1.00
C970   C     0.19893   0.85988   0.97957   0.00000  Uiso   1.00
C971   C     0.13432   0.80684   0.97107   0.00000  Uiso   1.00
C972   C     0.19901   0.85982   0.69559   0.00000  Uiso   1.00
C973   C     0.16664   0.91254   0.83336   0.00000  Uiso   1.00
C974   C     0.06807   0.83270   0.82128   0.00000  Uiso   1.00
C975   C     0.26527   0.83396   0.84539   0.00000  Uiso   1.00
C976   C     0.01251   0.82936   0.81495   0.00000  Uiso   1.00
C977   C     0.32082   0.83730   0.85172   0.00000  Uiso   1.00
C978   C     0.16700   0.68792   0.79127   0.00000  Uiso   1.00
C979   C     0.16633   0.97875   0.87540   0.00000  Uiso   1.00
C980   C     0.16679   0.97866   0.79126   0.00000  Uiso   1.00
Cu981  Cu    0.16667   0.83334   0.88022   0.00000  Uiso   1.00
Cu982  Cu    0.16667   0.83333   0.78645   0.00000  Uiso   1.00
H983   H     0.16738   0.70385   0.75837   0.00000  Uiso   1.00
H984   H     0.16596   0.96281   0.90830   0.00000  Uiso   1.00
H985   H     0.16679   0.96266   0.75832   0.00000  Uiso   1.00
H986   H     0.16654   0.70400   0.90834   0.00000  Uiso   1.00
H987   H     0.00949   0.81211   0.74928   0.00000  Uiso   1.00
H988   H     0.32384   0.85456   0.91739   0.00000  Uiso   1.00
N989   N     0.16668   0.83334   0.95069   0.00000  Uiso   1.00
N990   N     0.16665   0.83332   0.71597   0.00000  Uiso   1.00
O991   O     0.16666   0.77322   0.87291   0.00000  Uiso   1.00
O992   O     0.01423   0.85063   0.89441   0.00000  Uiso   1.00
O993   O     0.16667   0.89345   0.79375   0.00000  Uiso   1.00
O994   O     0.16666   0.77321   0.79372   0.00000  Uiso   1.00
O995   O     0.16667   0.89346   0.87294   0.00000  Uiso   1.00
O996   O     0.09161   0.83334   0.86379   0.00000  Uiso   1.00
O997   O     0.24172   0.83333   0.80288   0.00000  Uiso   1.00
O998   O     0.09161   0.83333   0.78460   0.00000  Uiso   1.00
O999   O     0.24172   0.83334   0.88207   0.00000  Uiso   1.00
O1000  O     0.31910   0.81603   0.77226   0.00000  Uiso   1.00
Br1001 Br    0.42169   0.76812   0.71248   0.00000  Uiso   1.00
Br1002 Br    0.57831   0.89855   0.95418   0.00000  Uiso   1.00
Br1003 Br    0.42081   0.76868   0.93350   0.00000  Uiso   1.00
Br1004 Br    0.57919   0.89799   0.73317   0.00000  Uiso   1.00
C1005  C     0.50003   0.75413   0.83331   0.00000  Uiso   1.00
C1006  C     0.49988   0.68800   0.87540   0.00000  Uiso   1.00
C1007  C     0.49989   0.95721   0.83334   0.00000  Uiso   1.00
C1008  C     0.50011   0.70946   0.83332   0.00000  Uiso   1.00
C1009  C     0.46773   0.80678   0.68709   0.00000  Uiso   1.00
C1010  C     0.53227   0.85988   0.97957   0.00000  Uiso   1.00
C1011  C     0.46765   0.80684   0.97107   0.00000  Uiso   1.00
C1012  C     0.53235   0.85982   0.69559   0.00000  Uiso   1.00
C1013  C     0.49997   0.91254   0.83336   0.00000  Uiso   1.00
C1014  C     0.40140   0.83270   0.82128   0.00000  Uiso   1.00
C1015  C     0.59860   0.83396   0.84539   0.00000  Uiso   1.00
C1016  C     0.34585   0.82936   0.81495   0.00000  Uiso   1.00
C1017  C     0.65415   0.83730   0.85172   0.00000  Uiso   1.00
C1018  C     0.50034   0.68792   0.79127   0.00000  Uiso   1.00
C1019  C     0.49966   0.97875   0.87540   0.00000  Uiso   1.00
C1020  C     0.50012   0.97866   0.79126   0.00000  Uiso   1.00
Cu1021 Cu    0.50000   0.83334   0.88022   0.00000  Uiso   1.00
Cu1022 Cu    0.50000   0.83333   0.78645   0.00000  Uiso   1.00
H1023  H     0.50071   0.70385   0.75837   0.00000  Uiso   1.00
H1024  H     0.49929   0.96281   0.90830   0.00000  Uiso   1.00
H1025  H     0.50013   0.96266   0.75832   0.00000  Uiso   1.00
H1026  H     0.49987   0.70400   0.90834   0.00000  Uiso   1.00
H1027  H     0.34282   0.81211   0.74928   0.00000  Uiso   1.00
H1028  H     0.65717   0.85456   0.91739   0.00000  Uiso   1.00
N1029  N     0.50001   0.83334   0.95069   0.00000  Uiso   1.00
N1030  N     0.49999   0.83332   0.71597   0.00000  Uiso   1.00
O1031  O     0.50000   0.77322   0.87291   0.00000  Uiso   1.00
O1032  O     0.34757   0.85063   0.89441   0.00000  Uiso   1.00
O1033  O     0.50000   0.89345   0.79375   0.00000  Uiso   1.00
O1034  O     0.50000   0.77321   0.79372   0.00000  Uiso   1.00
O1035  O     0.50000   0.89346   0.87294   0.00000  Uiso   1.00
O1036  O     0.42495   0.83334   0.86379   0.00000  Uiso   1.00
O1037  O     0.57505   0.83333   0.80288   0.00000  Uiso   1.00
O1038  O     0.42494   0.83333   0.78460   0.00000  Uiso   1.00
O1039  O     0.57506   0.83334   0.88207   0.00000  Uiso   1.00
O1040  O     0.65243   0.81603   0.77226   0.00000  Uiso   1.00
Br1041 Br    0.75502   0.76812   0.71248   0.00000  Uiso   1.00
Br1042 Br    0.91164   0.89855   0.95418   0.00000  Uiso   1.00
Br1043 Br    0.75414   0.76868   0.93350   0.00000  Uiso   1.00
Br1044 Br    0.91252   0.89799   0.73317   0.00000  Uiso   1.00
C1045  C     0.83336   0.75413   0.83331   0.00000  Uiso   1.00
C1046  C     0.83321   0.68800   0.87540   0.00000  Uiso   1.00
C1047  C     0.83323   0.95721   0.83334   0.00000  Uiso   1.00
C1048  C     0.83344   0.70946   0.83332   0.00000  Uiso   1.00
C1049  C     0.80107   0.80678   0.68709   0.00000  Uiso   1.00
C1050  C     0.86560   0.85988   0.97957   0.00000  Uiso   1.00
C1051  C     0.80099   0.80684   0.97107   0.00000  Uiso   1.00
C1052  C     0.86568   0.85982   0.69559   0.00000  Uiso   1.00
C1053  C     0.83330   0.91254   0.83336   0.00000  Uiso   1.00
C1054  C     0.73473   0.83270   0.82128   0.00000  Uiso   1.00
C1055  C     0.93193   0.83396   0.84539   0.00000  Uiso   1.00
C1056  C     0.67918   0.82936   0.81495   0.00000  Uiso   1.00
C1057  C     0.98749   0.83730   0.85172   0.00000  Uiso   1.00
C1058  C     0.83367   0.68792   0.79127   0.00000  Uiso   1.00
C1059  C     0.83300   0.97875   0.87540   0.00000  Uiso   1.00
C1060  C     0.83345   0.97866   0.79126   0.00000  Uiso   1.00
Cu1061 Cu    0.83333   0.83334   0.88022   0.00000  Uiso   1.00
Cu1062 Cu    0.83333   0.83333   0.78645   0.00000  Uiso   1.00
H1063  H     0.83404   0.70385   0.75837   0.00000  Uiso   1.00
H1064  H     0.83262   0.96281   0.90830   0.00000  Uiso   1.00
H1065  H     0.83346   0.96266   0.75832   0.00000  Uiso   1.00
H1066  H     0.83321   0.70400   0.90834   0.00000  Uiso   1.00
H1067  H     0.67616   0.81211   0.74928   0.00000  Uiso   1.00
H1068  H     0.99051   0.85456   0.91739   0.00000  Uiso   1.00
N1069  N     0.83335   0.83334   0.95069   0.00000  Uiso   1.00
N1070  N     0.83332   0.83332   0.71597   0.00000  Uiso   1.00
O1071  O     0.83333   0.77322   0.87291   0.00000  Uiso   1.00
O1072  O     0.68090   0.85063   0.89441   0.00000  Uiso   1.00
O1073  O     0.83334   0.89345   0.79375   0.00000  Uiso   1.00
O1074  O     0.83333   0.77321   0.79372   0.00000  Uiso   1.00
O1075  O     0.83334   0.89346   0.87294   0.00000  Uiso   1.00
O1076  O     0.75828   0.83334   0.86379   0.00000  Uiso   1.00
O1077  O     0.90839   0.83333   0.80288   0.00000  Uiso   1.00
O1078  O     0.75828   0.83333   0.78460   0.00000  Uiso   1.00
O1079  O     0.90839   0.83334   0.88207   0.00000  Uiso   1.00
O1080  O     0.98577   0.81603   0.77226   0.00000  Uiso   1.00
loop_
_geom_bond_atom_site_label_1
_geom_bond_atom_site_label_2
_geom_bond_distance
_geom_bond_site_symmetry_2
_ccdc_geom_bond_type
Br1    C9      1.925   .     S
Br2    C10     1.925   .     S
Br3    C11     1.928   .     S
Br4    C12     1.928   .     S
C5     C8      1.451   .     S
C5     O34     1.300   .     A
C5     O31     1.300   .     A
C6     H26     1.083   .     S
C6     C8      1.401   .     A
C6     C259    1.383   1_545 S
C7     C19     1.401   .     A
C7     C13     1.451   .     S
C7     C20     1.401   .     A
C8     C18     1.401   .     A
C9     N30     1.376   .     A
C9     C731    1.424   1_554 S
C10    N29     1.376   .     A
C10    C372    1.424   .     S
C11    N29     1.376   .     A
C11    C369    1.424   .     S
C12    N30     1.376   .     A
C12    C730    1.424   1_554 S
C13    O33     1.300   .     A
C13    O35     1.300   .     A
C14    O36     1.294   .     A
C14    C16     1.455   .     S
C14    O38     1.302   .     A
C15    O39     1.302   .     A
C15    C17     1.455   .     S
C15    O37     1.294   .     A
C16    C97     1.359   1_455 S
C16    O120    1.389   1_455 S
C17    C56     1.359   .     S
C17    O72     1.389   .     S
C18    H23     1.083   .     S
C18    C260    1.383   1_545 S
C19    H24     1.083   .     S
C19    C126    1.383   .     S
C20    H25     1.083   .     S
C20    C138    1.383   .     S
Cu21   O35     1.964   .     S
Cu21   O31     1.964   .     S
Cu21   O39     1.980   .     S
Cu21   O36     1.976   .     S
Cu21   Cu22    2.705   .     S
Cu21   N29     2.033   .     S
Cu22   O34     1.964   .     S
Cu22   O38     1.980   .     S
Cu22   O33     1.964   .     S
Cu22   N30     2.033   .     S
Cu22   O37     1.976   .     S
H27    O120    0.988   1_455 S
H28    O72     0.988   .     S
O32    H108    0.988   1_455 S
O32    C97     1.389   1_455 S
O40    H67     0.988   .     S
O40    C56     1.389   .     S
Br41   C49     1.925   .     S
Br42   C50     1.925   .     S
Br43   C51     1.928   .     S
Br44   C52     1.928   .     S
C45    C48     1.451   .     S
C45    O74     1.300   .     A
C45    O71     1.300   .     A
C46    H66     1.083   .     S
C46    C48     1.401   .     A
C46    C299    1.383   1_545 S
C47    C59     1.401   .     A
C47    C53     1.451   .     S
C47    C60     1.401   .     A
C48    C58     1.401   .     A
C49    N70     1.376   .     A
C49    C771    1.424   1_554 S
C50    N69     1.376   .     A
C50    C412    1.424   .     S
C51    N69     1.376   .     A
C51    C409    1.424   .     S
C52    N70     1.376   .     A
C52    C770    1.424   1_554 S
C53    O73     1.300   .     A
C53    O75     1.300   .     A
C54    O76     1.294   .     A
C54    C56     1.455   .     S
C54    O78     1.302   .     A
C55    O79     1.302   .     A
C55    C57     1.455   .     S
C55    O77     1.294   .     A
C57    C96     1.359   .     S
C57    O112    1.389   .     S
C58    H63     1.083   .     S
C58    C300    1.383   1_545 S
C59    H64     1.083   .     S
C59    C166    1.383   .     S
C60    H65     1.083   .     S
C60    C178    1.383   .     S
Cu61   O75     1.964   .     S
Cu61   O71     1.964   .     S
Cu61   O79     1.980   .     S
Cu61   O76     1.976   .     S
Cu61   Cu62    2.705   .     S
Cu61   N69     2.033   .     S
Cu62   O74     1.964   .     S
Cu62   O78     1.980   .     S
Cu62   O73     1.964   .     S
Cu62   N70     2.033   .     S
Cu62   O77     1.976   .     S
H68    O112    0.988   .     S
O80    H107    0.988   .     S
O80    C96     1.389   .     S
Br81   C89     1.925   .     S
Br82   C90     1.925   .     S
Br83   C91     1.928   .     S
Br84   C92     1.928   .     S
C85    C88     1.451   .     S
C85    O114    1.300   .     A
C85    O111    1.300   .     A
C86    H106    1.083   .     S
C86    C88     1.401   .     A
C86    C339    1.383   1_545 S
C87    C99     1.401   .     A
C87    C93     1.451   .     S
C87    C100    1.401   .     A
C88    C98     1.401   .     A
C89    N110    1.376   .     A
C89    C811    1.424   1_554 S
C90    N109    1.376   .     A
C90    C452    1.424   .     S
C91    N109    1.376   .     A
C91    C449    1.424   .     S
C92    N110    1.376   .     A
C92    C810    1.424   1_554 S
C93    O113    1.300   .     A
C93    O115    1.300   .     A
C94    O116    1.294   .     A
C94    C96     1.455   .     S
C94    O118    1.302   .     A
C95    O119    1.302   .     A
C95    C97     1.455   .     S
C95    O117    1.294   .     A
C97    C16     1.359   1_655 S
C97    O32     1.389   1_655 S
C98    H103    1.083   .     S
C98    C340    1.383   1_545 S
C99    H104    1.083   .     S
C99    C206    1.383   .     S
C100   H105    1.083   .     S
C100   C218    1.383   .     S
Cu101  O115    1.964   .     S
Cu101  O111    1.964   .     S
Cu101  O119    1.980   .     S
Cu101  O116    1.976   .     S
Cu101  Cu102   2.705   .     S
Cu101  N109    2.033   .     S
Cu102  O114    1.964   .     S
Cu102  O118    1.980   .     S
Cu102  O113    1.964   .     S
Cu102  N110    2.033   .     S
Cu102  O117    1.976   .     S
H108   O32     0.988   1_655 S
O120   H27     0.988   1_655 S
O120   C16     1.389   1_655 S
Br121  C129    1.925   .     S
Br122  C130    1.925   .     S
Br123  C131    1.928   .     S
Br124  C132    1.928   .     S
C125   C128    1.451   .     S
C125   O154    1.300   .     A
C125   O151    1.300   .     A
C126   H146    1.083   .     S
C126   C128    1.401   .     A
C127   C139    1.401   .     A
C127   C133    1.451   .     S
C127   C140    1.401   .     A
C128   C138    1.401   .     A
C129   N150    1.376   .     A
C129   C851    1.424   1_554 S
C130   N149    1.376   .     A
C130   C492    1.424   .     S
C131   N149    1.376   .     A
C131   C489    1.424   .     S
C132   N150    1.376   .     A
C132   C850    1.424   1_554 S
C133   O153    1.300   .     A
C133   O155    1.300   .     A
C134   O156    1.294   .     A
C134   C136    1.455   .     S
C134   O158    1.302   .     A
C135   O159    1.302   .     A
C135   C137    1.455   .     S
C135   O157    1.294   .     A
C136   C217    1.359   1_455 S
C136   O240    1.389   1_455 S
C137   C176    1.359   .     S
C137   O192    1.389   .     S
C138   H143    1.083   .     S
C139   H144    1.083   .     S
C139   C246    1.383   .     S
C140   H145    1.083   .     S
C140   C258    1.383   .     S
Cu141  O155    1.964   .     S
Cu141  O151    1.964   .     S
Cu141  O159    1.980   .     S
Cu141  O156    1.976   .     S
Cu141  Cu142   2.705   .     S
Cu141  N149    2.033   .     S
Cu142  O154    1.964   .     S
Cu142  O158    1.980   .     S
Cu142  O153    1.964   .     S
Cu142  N150    2.033   .     S
Cu142  O157    1.976   .     S
H147   O240    0.988   1_455 S
H148   O192    0.988   .     S
O152   H228    0.988   1_455 S
O152   C217    1.389   1_455 S
O160   H187    0.988   .     S
O160   C176    1.389   .     S
Br161  C169    1.925   .     S
Br162  C170    1.925   .     S
Br163  C171    1.928   .     S
Br164  C172    1.928   .     S
C165   C168    1.451   .     S
C165   O194    1.300   .     A
C165   O191    1.300   .     A
C166   H186    1.083   .     S
C166   C168    1.401   .     A
C167   C179    1.401   .     A
C167   C173    1.451   .     S
C167   C180    1.401   .     A
C168   C178    1.401   .     A
C169   N190    1.376   .     A
C169   C891    1.424   1_554 S
C170   N189    1.376   .     A
C170   C532    1.424   .     S
C171   N189    1.376   .     A
C171   C529    1.424   .     S
C172   N190    1.376   .     A
C172   C890    1.424   1_554 S
C173   O193    1.300   .     A
C173   O195    1.300   .     A
C174   O196    1.294   .     A
C174   C176    1.455   .     S
C174   O198    1.302   .     A
C175   O199    1.302   .     A
C175   C177    1.455   .     S
C175   O197    1.294   .     A
C177   C216    1.359   .     S
C177   O232    1.389   .     S
C178   H183    1.083   .     S
C179   H184    1.083   .     S
C179   C286    1.383   .     S
C180   H185    1.083   .     S
C180   C298    1.383   .     S
Cu181  O195    1.964   .     S
Cu181  O191    1.964   .     S
Cu181  O199    1.980   .     S
Cu181  O196    1.976   .     S
Cu181  Cu182   2.705   .     S
Cu181  N189    2.033   .     S
Cu182  O194    1.964   .     S
Cu182  O198    1.980   .     S
Cu182  O193    1.964   .     S
Cu182  N190    2.033   .     S
Cu182  O197    1.976   .     S
H188   O232    0.988   .     S
O200   H227    0.988   .     S
O200   C216    1.389   .     S
Br201  C209    1.925   .     S
Br202  C210    1.925   .     S
Br203  C211    1.928   .     S
Br204  C212    1.928   .     S
C205   C208    1.451   .     S
C205   O234    1.300   .     A
C205   O231    1.300   .     A
C206   H226    1.083   .     S
C206   C208    1.401   .     A
C207   C219    1.401   .     A
C207   C213    1.451   .     S
C207   C220    1.401   .     A
C208   C218    1.401   .     A
C209   N230    1.376   .     A
C209   C931    1.424   1_554 S
C210   N229    1.376   .     A
C210   C572    1.424   .     S
C211   N229    1.376   .     A
C211   C569    1.424   .     S
C212   N230    1.376   .     A
C212   C930    1.424   1_554 S
C213   O233    1.300   .     A
C213   O235    1.300   .     A
C214   O236    1.294   .     A
C214   C216    1.455   .     S
C214   O238    1.302   .     A
C215   O239    1.302   .     A
C215   C217    1.455   .     S
C215   O237    1.294   .     A
C217   C136    1.359   1_655 S
C217   O152    1.389   1_655 S
C218   H223    1.083   .     S
C219   H224    1.083   .     S
C219   C326    1.383   .     S
C220   H225    1.083   .     S
C220   C338    1.383   .     S
Cu221  O235    1.964   .     S
Cu221  O231    1.964   .     S
Cu221  O239    1.980   .     S
Cu221  O236    1.976   .     S
Cu221  Cu222   2.705   .     S
Cu221  N229    2.033   .     S
Cu222  O234    1.964   .     S
Cu222  O238    1.980   .     S
Cu222  O233    1.964   .     S
Cu222  N230    2.033   .     S
Cu222  O237    1.976   .     S
H228   O152    0.988   1_655 S
O240   H147    0.988   1_655 S
O240   C136    1.389   1_655 S
Br241  C249    1.925   .     S
Br242  C250    1.925   .     S
Br243  C251    1.928   .     S
Br244  C252    1.928   .     S
C245   C248    1.451   .     S
C245   O274    1.300   .     A
C245   O271    1.300   .     A
C246   H266    1.083   .     S
C246   C248    1.401   .     A
C247   C259    1.401   .     A
C247   C253    1.451   .     S
C247   C260    1.401   .     A
C248   C258    1.401   .     A
C249   N270    1.376   .     A
C249   C971    1.424   1_554 S
C250   N269    1.376   .     A
C250   C612    1.424   .     S
C251   N269    1.376   .     A
C251   C609    1.424   .     S
C252   N270    1.376   .     A
C252   C970    1.424   1_554 S
C253   O273    1.300   .     A
C253   O275    1.300   .     A
C254   O276    1.294   .     A
C254   C256    1.455   .     S
C254   O278    1.302   .     A
C255   O279    1.302   .     A
C255   C257    1.455   .     S
C255   O277    1.294   .     A
C256   C337    1.359   1_455 S
C256   O360    1.389   1_455 S
C257   C296    1.359   .     S
C257   O312    1.389   .     S
C258   H263    1.083   .     S
C259   H264    1.083   .     S
C259   C6      1.383   1_565 S
C260   H265    1.083   .     S
C260   C18     1.383   1_565 S
Cu261  O275    1.964   .     S
Cu261  O271    1.964   .     S
Cu261  O279    1.980   .     S
Cu261  O276    1.976   .     S
Cu261  Cu262   2.705   .     S
Cu261  N269    2.033   .     S
Cu262  O274    1.964   .     S
Cu262  O278    1.980   .     S
Cu262  O273    1.964   .     S
Cu262  N270    2.033   .     S
Cu262  O277    1.976   .     S
H267   O360    0.988   1_455 S
H268   O312    0.988   .     S
O272   H348    0.988   1_455 S
O272   C337    1.389   1_455 S
O280   H307    0.988   .     S
O280   C296    1.389   .     S
Br281  C289    1.925   .     S
Br282  C290    1.925   .     S
Br283  C291    1.928   .     S
Br284  C292    1.928   .     S
C285   C288    1.451   .     S
C285   O314    1.300   .     A
C285   O311    1.300   .     A
C286   H306    1.083   .     S
C286   C288    1.401   .     A
C287   C299    1.401   .     A
C287   C293    1.451   .     S
C287   C300    1.401   .     A
C288   C298    1.401   .     A
C289   N310    1.376   .     A
C289   C1011   1.424   1_554 S
C290   N309    1.376   .     A
C290   C652    1.424   .     S
C291   N309    1.376   .     A
C291   C649    1.424   .     S
C292   N310    1.376   .     A
C292   C1010   1.424   1_554 S
C293   O313    1.300   .     A
C293   O315    1.300   .     A
C294   O316    1.294   .     A
C294   C296    1.455   .     S
C294   O318    1.302   .     A
C295   O319    1.302   .     A
C295   C297    1.455   .     S
C295   O317    1.294   .     A
C297   C336    1.359   .     S
C297   O352    1.389   .     S
C298   H303    1.083   .     S
C299   H304    1.083   .     S
C299   C46     1.383   1_565 S
C300   H305    1.083   .     S
C300   C58     1.383   1_565 S
Cu301  O315    1.964   .     S
Cu301  O311    1.964   .     S
Cu301  O319    1.980   .     S
Cu301  O316    1.976   .     S
Cu301  Cu302   2.705   .     S
Cu301  N309    2.033   .     S
Cu302  O314    1.964   .     S
Cu302  O318    1.980   .     S
Cu302  O313    1.964   .     S
Cu302  N310    2.033   .     S
Cu302  O317    1.976   .     S
H308   O352    0.988   .     S
O320   H347    0.988   .     S
O320   C336    1.389   .     S
Br321  C329    1.925   .     S
Br322  C330    1.925   .     S
Br323  C331    1.928   .     S
Br324  C332    1.928   .     S
C325   C328    1.451   .     S
C325   O354    1.300   .     A
C325   O351    1.300   .     A
C326   H346    1.083   .     S
C326   C328    1.401   .     A
C327   C339    1.401   .     A
C327   C333    1.451   .     S
C327   C340    1.401   .     A
C328   C338    1.401   .     A
C329   N350    1.376   .     A
C329   C1051   1.424   1_554 S
C330   N349    1.376   .     A
C330   C692    1.424   .     S
C331   N349    1.376   .     A
C331   C689    1.424   .     S
C332   N350    1.376   .     A
C332   C1050   1.424   1_554 S
C333   O353    1.300   .     A
C333   O355    1.300   .     A
C334   O356    1.294   .     A
C334   C336    1.455   .     S
C334   O358    1.302   .     A
C335   O359    1.302   .     A
C335   C337    1.455   .     S
C335   O357    1.294   .     A
C337   C256    1.359   1_655 S
C337   O272    1.389   1_655 S
C338   H343    1.083   .     S
C339   H344    1.083   .     S
C339   C86     1.383   1_565 S
C340   H345    1.083   .     S
C340   C98     1.383   1_565 S
Cu341  O355    1.964   .     S
Cu341  O351    1.964   .     S
Cu341  O359    1.980   .     S
Cu341  O356    1.976   .     S
Cu341  Cu342   2.705   .     S
Cu341  N349    2.033   .     S
Cu342  O354    1.964   .     S
Cu342  O358    1.980   .     S
Cu342  O353    1.964   .     S
Cu342  N350    2.033   .     S
Cu342  O357    1.976   .     S
H348   O272    0.988   1_655 S
O360   H267    0.988   1_655 S
O360   C256    1.389   1_655 S
Br361  C369    1.925   .     S
Br362  C370    1.925   .     S
Br363  C371    1.928   .     S
Br364  C372    1.928   .     S
C365   C368    1.451   .     S
C365   O394    1.300   .     A
C365   O391    1.300   .     A
C366   H386    1.083   .     S
C366   C368    1.401   .     A
C366   C619    1.383   1_545 S
C367   C379    1.401   .     A
C367   C373    1.451   .     S
C367   C380    1.401   .     A
C368   C378    1.401   .     A
C369   N390    1.376   .     A
C370   N389    1.376   .     A
C370   C732    1.424   .     S
C371   N389    1.376   .     A
C371   C729    1.424   .     S
C372   N390    1.376   .     A
C373   O393    1.300   .     A
C373   O395    1.300   .     A
C374   O396    1.294   .     A
C374   C376    1.455   .     S
C374   O398    1.302   .     A
C375   O399    1.302   .     A
C375   C377    1.455   .     S
C375   O397    1.294   .     A
C376   C457    1.359   1_455 S
C376   O480    1.389   1_455 S
C377   C416    1.359   .     S
C377   O432    1.389   .     S
C378   H383    1.083   .     S
C378   C620    1.383   1_545 S
C379   H384    1.083   .     S
C379   C486    1.383   .     S
C380   H385    1.083   .     S
C380   C498    1.383   .     S
Cu381  O395    1.964   .     S
Cu381  O391    1.964   .     S
Cu381  O399    1.980   .     S
Cu381  O396    1.976   .     S
Cu381  Cu382   2.705   .     S
Cu381  N389    2.033   .     S
Cu382  O394    1.964   .     S
Cu382  O398    1.980   .     S
Cu382  O393    1.964   .     S
Cu382  N390    2.033   .     S
Cu382  O397    1.976   .     S
H387   O480    0.988   1_455 S
H388   O432    0.988   .     S
O392   H468    0.988   1_455 S
O392   C457    1.389   1_455 S
O400   H427    0.988   .     S
O400   C416    1.389   .     S
Br401  C409    1.925   .     S
Br402  C410    1.925   .     S
Br403  C411    1.928   .     S
Br404  C412    1.928   .     S
C405   C408    1.451   .     S
C405   O434    1.300   .     A
C405   O431    1.300   .     A
C406   H426    1.083   .     S
C406   C408    1.401   .     A
C406   C659    1.383   1_545 S
C407   C419    1.401   .     A
C407   C413    1.451   .     S
C407   C420    1.401   .     A
C408   C418    1.401   .     A
C409   N430    1.376   .     A
C410   N429    1.376   .     A
C410   C772    1.424   .     S
C411   N429    1.376   .     A
C411   C769    1.424   .     S
C412   N430    1.376   .     A
C413   O433    1.300   .     A
C413   O435    1.300   .     A
C414   O436    1.294   .     A
C414   C416    1.455   .     S
C414   O438    1.302   .     A
C415   O439    1.302   .     A
C415   C417    1.455   .     S
C415   O437    1.294   .     A
C417   C456    1.359   .     S
C417   O472    1.389   .     S
C418   H423    1.083   .     S
C418   C660    1.383   1_545 S
C419   H424    1.083   .     S
C419   C526    1.383   .     S
C420   H425    1.083   .     S
C420   C538    1.383   .     S
Cu421  O435    1.964   .     S
Cu421  O431    1.964   .     S
Cu421  O439    1.980   .     S
Cu421  O436    1.976   .     S
Cu421  Cu422   2.705   .     S
Cu421  N429    2.033   .     S
Cu422  O434    1.964   .     S
Cu422  O438    1.980   .     S
Cu422  O433    1.964   .     S
Cu422  N430    2.033   .     S
Cu422  O437    1.976   .     S
H428   O472    0.988   .     S
O440   H467    0.988   .     S
O440   C456    1.389   .     S
Br441  C449    1.925   .     S
Br442  C450    1.925   .     S
Br443  C451    1.928   .     S
Br444  C452    1.928   .     S
C445   C448    1.451   .     S
C445   O474    1.300   .     A
C445   O471    1.300   .     A
C446   H466    1.083   .     S
C446   C448    1.401   .     A
C446   C699    1.383   1_545 S
C447   C459    1.401   .     A
C447   C453    1.451   .     S
C447   C460    1.401   .     A
C448   C458    1.401   .     A
C449   N470    1.376   .     A
C450   N469    1.376   .     A
C450   C812    1.424   .     S
C451   N469    1.376   .     A
C451   C809    1.424   .     S
C452   N470    1.376   .     A
C453   O473    1.300   .     A
C453   O475    1.300   .     A
C454   O476    1.294   .     A
C454   C456    1.455   .     S
C454   O478    1.302   .     A
C455   O479    1.302   .     A
C455   C457    1.455   .     S
C455   O477    1.294   .     A
C457   C376    1.359   1_655 S
C457   O392    1.389   1_655 S
C458   H463    1.083   .     S
C458   C700    1.383   1_545 S
C459   H464    1.083   .     S
C459   C566    1.383   .     S
C460   H465    1.083   .     S
C460   C578    1.383   .     S
Cu461  O475    1.964   .     S
Cu461  O471    1.964   .     S
Cu461  O479    1.980   .     S
Cu461  O476    1.976   .     S
Cu461  Cu462   2.705   .     S
Cu461  N469    2.033   .     S
Cu462  O474    1.964   .     S
Cu462  O478    1.980   .     S
Cu462  O473    1.964   .     S
Cu462  N470    2.033   .     S
Cu462  O477    1.976   .     S
H468   O392    0.988   1_655 S
O480   H387    0.988   1_655 S
O480   C376    1.389   1_655 S
Br481  C489    1.925   .     S
Br482  C490    1.925   .     S
Br483  C491    1.928   .     S
Br484  C492    1.928   .     S
C485   C488    1.451   .     S
C485   O514    1.300   .     A
C485   O511    1.300   .     A
C486   H506    1.083   .     S
C486   C488    1.401   .     A
C487   C499    1.401   .     A
C487   C493    1.451   .     S
C487   C500    1.401   .     A
C488   C498    1.401   .     A
C489   N510    1.376   .     A
C490   N509    1.376   .     A
C490   C852    1.424   .     S
C491   N509    1.376   .     A
C491   C849    1.424   .     S
C492   N510    1.376   .     A
C493   O513    1.300   .     A
C493   O515    1.300   .     A
C494   O516    1.294   .     A
C494   C496    1.455   .     S
C494   O518    1.302   .     A
C495   O519    1.302   .     A
C495   C497    1.455   .     S
C495   O517    1.294   .     A
C496   C577    1.359   1_455 S
C496   O600    1.389   1_455 S
C497   C536    1.359   .     S
C497   O552    1.389   .     S
C498   H503    1.083   .     S
C499   H504    1.083   .     S
C499   C606    1.383   .     S
C500   H505    1.083   .     S
C500   C618    1.383   .     S
Cu501  O515    1.964   .     S
Cu501  O511    1.964   .     S
Cu501  O519    1.980   .     S
Cu501  O516    1.976   .     S
Cu501  Cu502   2.705   .     S
Cu501  N509    2.033   .     S
Cu502  O514    1.964   .     S
Cu502  O518    1.980   .     S
Cu502  O513    1.964   .     S
Cu502  N510    2.033   .     S
Cu502  O517    1.976   .     S
H507   O600    0.988   1_455 S
H508   O552    0.988   .     S
O512   H588    0.988   1_455 S
O512   C577    1.389   1_455 S
O520   H547    0.988   .     S
O520   C536    1.389   .     S
Br521  C529    1.925   .     S
Br522  C530    1.925   .     S
Br523  C531    1.928   .     S
Br524  C532    1.928   .     S
C525   C528    1.451   .     S
C525   O554    1.300   .     A
C525   O551    1.300   .     A
C526   H546    1.083   .     S
C526   C528    1.401   .     A
C527   C539    1.401   .     A
C527   C533    1.451   .     S
C527   C540    1.401   .     A
C528   C538    1.401   .     A
C529   N550    1.376   .     A
C530   N549    1.376   .     A
C530   C892    1.424   .     S
C531   N549    1.376   .     A
C531   C889    1.424   .     S
C532   N550    1.376   .     A
C533   O553    1.300   .     A
C533   O555    1.300   .     A
C534   O556    1.294   .     A
C534   C536    1.455   .     S
C534   O558    1.302   .     A
C535   O559    1.302   .     A
C535   C537    1.455   .     S
C535   O557    1.294   .     A
C537   C576    1.359   .     S
C537   O592    1.389   .     S
C538   H543    1.083   .     S
C539   H544    1.083   .     S
C539   C646    1.383   .     S
C540   H545    1.083   .     S
C540   C658    1.383   .     S
Cu541  O555    1.964   .     S
Cu541  O551    1.964   .     S
Cu541  O559    1.980   .     S
Cu541  O556    1.976   .     S
Cu541  Cu542   2.705   .     S
Cu541  N549    2.033   .     S
Cu542  O554    1.964   .     S
Cu542  O558    1.980   .     S
Cu542  O553    1.964   .     S
Cu542  N550    2.033   .     S
Cu542  O557    1.976   .     S
H548   O592    0.988   .     S
O560   H587    0.988   .     S
O560   C576    1.389   .     S
Br561  C569    1.925   .     S
Br562  C570    1.925   .     S
Br563  C571    1.928   .     S
Br564  C572    1.928   .     S
C565   C568    1.451   .     S
C565   O594    1.300   .     A
C565   O591    1.300   .     A
C566   H586    1.083   .     S
C566   C568    1.401   .     A
C567   C579    1.401   .     A
C567   C573    1.451   .     S
C567   C580    1.401   .     A
C568   C578    1.401   .     A
C569   N590    1.376   .     A
C570   N589    1.376   .     A
C570   C932    1.424   .     S
C571   N589    1.376   .     A
C571   C929    1.424   .     S
C572   N590    1.376   .     A
C573   O593    1.300   .     A
C573   O595    1.300   .     A
C574   O596    1.294   .     A
C574   C576    1.455   .     S
C574   O598    1.302   .     A
C575   O599    1.302   .     A
C575   C577    1.455   .     S
C575   O597    1.294   .     A
C577   C496    1.359   1_655 S
C577   O512    1.389   1_655 S
C578   H583    1.083   .     S
C579   H584    1.083   .     S
C579   C686    1.383   .     S
C580   H585    1.083   .     S
C580   C698    1.383   .     S
Cu581  O595    1.964   .     S
Cu581  O591    1.964   .     S
Cu581  O599    1.980   .     S
Cu581  O596    1.976   .     S
Cu581  Cu582   2.705   .     S
Cu581  N589    2.033   .     S
Cu582  O594    1.964   .     S
Cu582  O598    1.980   .     S
Cu582  O593    1.964   .     S
Cu582  N590    2.033   .     S
Cu582  O597    1.976   .     S
H588   O512    0.988   1_655 S
O600   H507    0.988   1_655 S
O600   C496    1.389   1_655 S
Br601  C609    1.925   .     S
Br602  C610    1.925   .     S
Br603  C611    1.928   .     S
Br604  C612    1.928   .     S
C605   C608    1.451   .     S
C605   O634    1.300   .     A
C605   O631    1.300   .     A
C606   H626    1.083   .     S
C606   C608    1.401   .     A
C607   C619    1.401   .     A
C607   C613    1.451   .     S
C607   C620    1.401   .     A
C608   C618    1.401   .     A
C609   N630    1.376   .     A
C610   N629    1.376   .     A
C610   C972    1.424   .     S
C611   N629    1.376   .     A
C611   C969    1.424   .     S
C612   N630    1.376   .     A
C613   O633    1.300   .     A
C613   O635    1.300   .     A
C614   O636    1.294   .     A
C614   C616    1.455   .     S
C614   O638    1.302   .     A
C615   O639    1.302   .     A
C615   C617    1.455   .     S
C615   O637    1.294   .     A
C616   C697    1.359   1_455 S
C616   O720    1.389   1_455 S
C617   C656    1.359   .     S
C617   O672    1.389   .     S
C618   H623    1.083   .     S
C619   H624    1.083   .     S
C619   C366    1.383   1_565 S
C620   H625    1.083   .     S
C620   C378    1.383   1_565 S
Cu621  O635    1.964   .     S
Cu621  O631    1.964   .     S
Cu621  O639    1.980   .     S
Cu621  O636    1.976   .     S
Cu621  Cu622   2.705   .     S
Cu621  N629    2.033   .     S
Cu622  O634    1.964   .     S
Cu622  O638    1.980   .     S
Cu622  O633    1.964   .     S
Cu622  N630    2.033   .     S
Cu622  O637    1.976   .     S
H627   O720    0.988   1_455 S
H628   O672    0.988   .     S
O632   H708    0.988   1_455 S
O632   C697    1.389   1_455 S
O640   H667    0.988   .     S
O640   C656    1.389   .     S
Br641  C649    1.925   .     S
Br642  C650    1.925   .     S
Br643  C651    1.928   .     S
Br644  C652    1.928   .     S
C645   C648    1.451   .     S
C645   O674    1.300   .     A
C645   O671    1.300   .     A
C646   H666    1.083   .     S
C646   C648    1.401   .     A
C647   C659    1.401   .     A
C647   C653    1.451   .     S
C647   C660    1.401   .     A
C648   C658    1.401   .     A
C649   N670    1.376   .     A
C650   N669    1.376   .     A
C650   C1012   1.424   .     S
C651   N669    1.376   .     A
C651   C1009   1.424   .     S
C652   N670    1.376   .     A
C653   O673    1.300   .     A
C653   O675    1.300   .     A
C654   O676    1.294   .     A
C654   C656    1.455   .     S
C654   O678    1.302   .     A
C655   O679    1.302   .     A
C655   C657    1.455   .     S
C655   O677    1.294   .     A
C657   C696    1.359   .     S
C657   O712    1.389   .     S
C658   H663    1.083   .     S
C659   H664    1.083   .     S
C659   C406    1.383   1_565 S
C660   H665    1.083   .     S
C660   C418    1.383   1_565 S
Cu661  O675    1.964   .     S
Cu661  O671    1.964   .     S
Cu661  O679    1.980   .     S
Cu661  O676    1.976   .     S
Cu661  Cu662   2.705   .     S
Cu661  N669    2.033   .     S
Cu662  O674    1.964   .     S
Cu662  O678    1.980   .     S
Cu662  O673    1.964   .     S
Cu662  N670    2.033   .     S
Cu662  O677    1.976   .     S
H668   O712    0.988   .     S
O680   H707    0.988   .     S
O680   C696    1.389   .     S
Br681  C689    1.925   .     S
Br682  C690    1.925   .     S
Br683  C691    1.928   .     S
Br684  C692    1.928   .     S
C685   C688    1.451   .     S
C685   O714    1.300   .     A
C685   O711    1.300   .     A
C686   H706    1.083   .     S
C686   C688    1.401   .     A
C687   C699    1.401   .     A
C687   C693    1.451   .     S
C687   C700    1.401   .     A
C688   C698    1.401   .     A
C689   N710    1.376   .     A
C690   N709    1.376   .     A
C690   C1052   1.424   .     S
C691   N709    1.376   .     A
C691   C1049   1.424   .     S
C692   N710    1.376   .     A
C693   O713    1.300   .     A
C693   O715    1.300   .     A
C694   O716    1.294   .     A
C694   C696    1.455   .     S
C694   O718    1.302   .     A
C695   O719    1.302   .     A
C695   C697    1.455   .     S
C695   O717    1.294   .     A
C697   C616    1.359   1_655 S
C697   O632    1.389   1_655 S
C698   H703    1.083   .     S
C699   H704    1.083   .     S
C699   C446    1.383   1_565 S
C700   H705    1.083   .     S
C700   C458    1.383   1_565 S
Cu701  O715    1.964   .     S
Cu701  O711    1.964   .     S
Cu701  O719    1.980   .     S
Cu701  O716    1.976   .     S
Cu701  Cu702   2.705   .     S
Cu701  N709    2.033   .     S
Cu702  O714    1.964   .     S
Cu702  O718    1.980   .     S
Cu702  O713    1.964   .     S
Cu702  N710    2.033   .     S
Cu702  O717    1.976   .     S
H708   O632    0.988   1_655 S
O720   H627    0.988   1_655 S
O720   C616    1.389   1_655 S
Br721  C729    1.925   .     S
Br722  C730    1.925   .     S
Br723  C731    1.928   .     S
Br724  C732    1.928   .     S
C725   C728    1.451   .     S
C725   O754    1.300   .     A
C725   O751    1.300   .     A
C726   H746    1.083   .     S
C726   C728    1.401   .     A
C726   C979    1.383   1_545 S
C727   C739    1.401   .     A
C727   C733    1.451   .     S
C727   C740    1.401   .     A
C728   C738    1.401   .     A
C729   N750    1.376   .     A
C730   N749    1.376   .     A
C730   C12     1.424   1_556 S
C731   N749    1.376   .     A
C731   C9      1.424   1_556 S
C732   N750    1.376   .     A
C733   O753    1.300   .     A
C733   O755    1.300   .     A
C734   O756    1.294   .     A
C734   C736    1.455   .     S
C734   O758    1.302   .     A
C735   O759    1.302   .     A
C735   C737    1.455   .     S
C735   O757    1.294   .     A
C736   C817    1.359   1_455 S
C736   O840    1.389   1_455 S
C737   C776    1.359   .     S
C737   O792    1.389   .     S
C738   H743    1.083   .     S
C738   C980    1.383   1_545 S
C739   H744    1.083   .     S
C739   C846    1.383   .     S
C740   H745    1.083   .     S
C740   C858    1.383   .     S
Cu741  O755    1.964   .     S
Cu741  O751    1.964   .     S
Cu741  O759    1.980   .     S
Cu741  O756    1.976   .     S
Cu741  Cu742   2.705   .     S
Cu741  N749    2.033   .     S
Cu742  O754    1.964   .     S
Cu742  O758    1.980   .     S
Cu742  O753    1.964   .     S
Cu742  N750    2.033   .     S
Cu742  O757    1.976   .     S
H747   O840    0.988   1_455 S
H748   O792    0.988   .     S
O752   H828    0.988   1_455 S
O752   C817    1.389   1_455 S
O760   H787    0.988   .     S
O760   C776    1.389   .     S
Br761  C769    1.925   .     S
Br762  C770    1.925   .     S
Br763  C771    1.928   .     S
Br764  C772    1.928   .     S
C765   C768    1.451   .     S
C765   O794    1.300   .     A
C765   O791    1.300   .     A
C766   H786    1.083   .     S
C766   C768    1.401   .     A
C766   C1019   1.383   1_545 S
C767   C779    1.401   .     A
C767   C773    1.451   .     S
C767   C780    1.401   .     A
C768   C778    1.401   .     A
C769   N790    1.376   .     A
C770   N789    1.376   .     A
C770   C52     1.424   1_556 S
C771   N789    1.376   .     A
C771   C49     1.424   1_556 S
C772   N790    1.376   .     A
C773   O793    1.300   .     A
C773   O795    1.300   .     A
C774   O796    1.294   .     A
C774   C776    1.455   .     S
C774   O798    1.302   .     A
C775   O799    1.302   .     A
C775   C777    1.455   .     S
C775   O797    1.294   .     A
C777   C816    1.359   .     S
C777   O832    1.389   .     S
C778   H783    1.083   .     S
C778   C1020   1.383   1_545 S
C779   H784    1.083   .     S
C779   C886    1.383   .     S
C780   H785    1.083   .     S
C780   C898    1.383   .     S
Cu781  O795    1.964   .     S
Cu781  O791    1.964   .     S
Cu781  O799    1.980   .     S
Cu781  O796    1.976   .     S
Cu781  Cu782   2.705   .     S
Cu781  N789    2.033   .     S
Cu782  O794    1.964   .     S
Cu782  O798    1.980   .     S
Cu782  O793    1.964   .     S
Cu782  N790    2.033   .     S
Cu782  O797    1.976   .     S
H788   O832    0.988   .     S
O800   H827    0.988   .     S
O800   C816    1.389   .     S
Br801  C809    1.925   .     S
Br802  C810    1.925   .     S
Br803  C811    1.928   .     S
Br804  C812    1.928   .     S
C805   C808    1.451   .     S
C805   O834    1.300   .     A
C805   O831    1.300   .     A
C806   H826    1.083   .     S
C806   C808    1.401   .     A
C806   C1059   1.383   1_545 S
C807   C819    1.401   .     A
C807   C813    1.451   .     S
C807   C820    1.401   .     A
C808   C818    1.401   .     A
C809   N830    1.376   .     A
C810   N829    1.376   .     A
C810   C92     1.424   1_556 S
C811   N829    1.376   .     A
C811   C89     1.424   1_556 S
C812   N830    1.376   .     A
C813   O833    1.300   .     A
C813   O835    1.300   .     A
C814   O836    1.294   .     A
C814   C816    1.455   .     S
C814   O838    1.302   .     A
C815   O839    1.302   .     A
C815   C817    1.455   .     S
C815   O837    1.294   .     A
C817   C736    1.359   1_655 S
C817   O752    1.389   1_655 S
C818   H823    1.083   .     S
C818   C1060   1.383   1_545 S
C819   H824    1.083   .     S
C819   C926    1.383   .     S
C820   H825    1.083   .     S
C820   C938    1.383   .     S
Cu821  O835    1.964   .     S
Cu821  O831    1.964   .     S
Cu821  O839    1.980   .     S
Cu821  O836    1.976   .     S
Cu821  Cu822   2.705   .     S
Cu821  N829    2.033   .     S
Cu822  O834    1.964   .     S
Cu822  O838    1.980   .     S
Cu822  O833    1.964   .     S
Cu822  N830    2.033   .     S
Cu822  O837    1.976   .     S
H828   O752    0.988   1_655 S
O840   H747    0.988   1_655 S
O840   C736    1.389   1_655 S
Br841  C849    1.925   .     S
Br842  C850    1.925   .     S
Br843  C851    1.928   .     S
Br844  C852    1.928   .     S
C845   C848    1.451   .     S
C845   O874    1.300   .     A
C845   O871    1.300   .     A
C846   H866    1.083   .     S
C846   C848    1.401   .     A
C847   C859    1.401   .     A
C847   C853    1.451   .     S
C847   C860    1.401   .     A
C848   C858    1.401   .     A
C849   N870    1.376   .     A
C850   N869    1.376   .     A
C850   C132    1.424   1_556 S
C851   N869    1.376   .     A
C851   C129    1.424   1_556 S
C852   N870    1.376   .     A
C853   O873    1.300   .     A
C853   O875    1.300   .     A
C854   O876    1.294   .     A
C854   C856    1.455   .     S
C854   O878    1.302   .     A
C855   O879    1.302   .     A
C855   C857    1.455   .     S
C855   O877    1.294   .     A
C856   C937    1.359   1_455 S
C856   O960    1.389   1_455 S
C857   C896    1.359   .     S
C857   O912    1.389   .     S
C858   H863    1.083   .     S
C859   H864    1.083   .     S
C859   C966    1.383   .     S
C860   H865    1.083   .     S
C860   C978    1.383   .     S
Cu861  O875    1.964   .     S
Cu861  O871    1.964   .     S
Cu861  O879    1.980   .     S
Cu861  O876    1.976   .     S
Cu861  Cu862   2.705   .     S
Cu861  N869    2.033   .     S
Cu862  O874    1.964   .     S
Cu862  O878    1.980   .     S
Cu862  O873    1.964   .     S
Cu862  N870    2.033   .     S
Cu862  O877    1.976   .     S
H867   O960    0.988   1_455 S
H868   O912    0.988   .     S
O872   H948    0.988   1_455 S
O872   C937    1.389   1_455 S
O880   H907    0.988   .     S
O880   C896    1.389   .     S
Br881  C889    1.925   .     S
Br882  C890    1.925   .     S
Br883  C891    1.928   .     S
Br884  C892    1.928   .     S
C885   C888    1.451   .     S
C885   O914    1.300   .     A
C885   O911    1.300   .     A
C886   H906    1.083   .     S
C886   C888    1.401   .     A
C887   C899    1.401   .     A
C887   C893    1.451   .     S
C887   C900    1.401   .     A
C888   C898    1.401   .     A
C889   N910    1.376   .     A
C890   N909    1.376   .     A
C890   C172    1.424   1_556 S
C891   N909    1.376   .     A
C891   C169    1.424   1_556 S
C892   N910    1.376   .     A
C893   O913    1.300   .     A
C893   O915    1.300   .     A
C894   O916    1.294   .     A
C894   C896    1.455   .     S
C894   O918    1.302   .     A
C895   O919    1.302   .     A
C895   C897    1.455   .     S
C895   O917    1.294   .     A
C897   C936    1.359   .     S
C897   O952    1.389   .     S
C898   H903    1.083   .     S
C899   H904    1.083   .     S
C899   C1006   1.383   .     S
C900   H905    1.083   .     S
C900   C1018   1.383   .     S
Cu901  O915    1.964   .     S
Cu901  O911    1.964   .     S
Cu901  O919    1.980   .     S
Cu901  O916    1.976   .     S
Cu901  Cu902   2.705   .     S
Cu901  N909    2.033   .     S
Cu902  O914    1.964   .     S
Cu902  O918    1.980   .     S
Cu902  O913    1.964   .     S
Cu902  N910    2.033   .     S
Cu902  O917    1.976   .     S
H908   O952    0.988   .     S
O920   H947    0.988   .     S
O920   C936    1.389   .     S
Br921  C929    1.925   .     S
Br922  C930    1.925   .     S
Br923  C931    1.928   .     S
Br924  C932    1.928   .     S
C925   C928    1.451   .     S
C925   O954    1.300   .     A
C925   O951    1.300   .     A
C926   H946    1.083   .     S
C926   C928    1.401   .     A
C927   C939    1.401   .     A
C927   C933    1.451   .     S
C927   C940    1.401   .     A
C928   C938    1.401   .     A
C929   N950    1.376   .     A
C930   N949    1.376   .     A
C930   C212    1.424   1_556 S
C931   N949    1.376   .     A
C931   C209    1.424   1_556 S
C932   N950    1.376   .     A
C933   O953    1.300   .     A
C933   O955    1.300   .     A
C934   O956    1.294   .     A
C934   C936    1.455   .     S
C934   O958    1.302   .     A
C935   O959    1.302   .     A
C935   C937    1.455   .     S
C935   O957    1.294   .     A
C937   C856    1.359   1_655 S
C937   O872    1.389   1_655 S
C938   H943    1.083   .     S
C939   H944    1.083   .     S
C939   C1046   1.383   .     S
C940   H945    1.083   .     S
C940   C1058   1.383   .     S
Cu941  O955    1.964   .     S
Cu941  O951    1.964   .     S
Cu941  O959    1.980   .     S
Cu941  O956    1.976   .     S
Cu941  Cu942   2.705   .     S
Cu941  N949    2.033   .     S
Cu942  O954    1.964   .     S
Cu942  O958    1.980   .     S
Cu942  O953    1.964   .     S
Cu942  N950    2.033   .     S
Cu942  O957    1.976   .     S
H948   O872    0.988   1_655 S
O960   H867    0.988   1_655 S
O960   C856    1.389   1_655 S
Br961  C969    1.925   .     S
Br962  C970    1.925   .     S
Br963  C971    1.928   .     S
Br964  C972    1.928   .     S
C965   C968    1.451   .     S
C965   O994    1.300   .     A
C965   O991    1.300   .     A
C966   H986    1.083   .     S
C966   C968    1.401   .     A
C967   C979    1.401   .     A
C967   C973    1.451   .     S
C967   C980    1.401   .     A
C968   C978    1.401   .     A
C969   N990    1.376   .     A
C970   N989    1.376   .     A
C970   C252    1.424   1_556 S
C971   N989    1.376   .     A
C971   C249    1.424   1_556 S
C972   N990    1.376   .     A
C973   O993    1.300   .     A
C973   O995    1.300   .     A
C974   O996    1.294   .     A
C974   C976    1.455   .     S
C974   O998    1.302   .     A
C975   O999    1.302   .     A
C975   C977    1.455   .     S
C975   O997    1.294   .     A
C976   C1057   1.359   1_455 S
C976   O1080   1.389   1_455 S
C977   C1016   1.359   .     S
C977   O1032   1.389   .     S
C978   H983    1.083   .     S
C979   H984    1.083   .     S
C979   C726    1.383   1_565 S
C980   H985    1.083   .     S
C980   C738    1.383   1_565 S
Cu981  O995    1.964   .     S
Cu981  O991    1.964   .     S
Cu981  O999    1.980   .     S
Cu981  O996    1.976   .     S
Cu981  Cu982   2.705   .     S
Cu981  N989    2.033   .     S
Cu982  O994    1.964   .     S
Cu982  O998    1.980   .     S
Cu982  O993    1.964   .     S
Cu982  N990    2.033   .     S
Cu982  O997    1.976   .     S
H987   O1080   0.988   1_455 S
H988   O1032   0.988   .     S
O992   H1068   0.988   1_455 S
O992   C1057   1.389   1_455 S
O1000  H1027   0.988   .     S
O1000  C1016   1.389   .     S
Br1001 C1009   1.925   .     S
Br1002 C1010   1.925   .     S
Br1003 C1011   1.928   .     S
Br1004 C1012   1.928   .     S
C1005  C1008   1.451   .     S
C1005  O1034   1.300   .     A
C1005  O1031   1.300   .     A
C1006  H1026   1.083   .     S
C1006  C1008   1.401   .     A
C1007  C1019   1.401   .     A
C1007  C1013   1.451   .     S
C1007  C1020   1.401   .     A
C1008  C1018   1.401   .     A
C1009  N1030   1.376   .     A
C1010  N1029   1.376   .     A
C1010  C292    1.424   1_556 S
C1011  N1029   1.376   .     A
C1011  C289    1.424   1_556 S
C1012  N1030   1.376   .     A
C1013  O1033   1.300   .     A
C1013  O1035   1.300   .     A
C1014  O1036   1.294   .     A
C1014  C1016   1.455   .     S
C1014  O1038   1.302   .     A
C1015  O1039   1.302   .     A
C1015  C1017   1.455   .     S
C1015  O1037   1.294   .     A
C1017  C1056   1.359   .     S
C1017  O1072   1.389   .     S
C1018  H1023   1.083   .     S
C1019  H1024   1.083   .     S
C1019  C766    1.383   1_565 S
C1020  H1025   1.083   .     S
C1020  C778    1.383   1_565 S
Cu1021 O1035   1.964   .     S
Cu1021 O1031   1.964   .     S
Cu1021 O1039   1.980   .     S
Cu1021 O1036   1.976   .     S
Cu1021 Cu1022  2.705   .     S
Cu1021 N1029   2.033   .     S
Cu1022 O1034   1.964   .     S
Cu1022 O1038   1.980   .     S
Cu1022 O1033   1.964   .     S
Cu1022 N1030   2.033   .     S
Cu1022 O1037   1.976   .     S
H1028  O1072   0.988   .     S
O1040  H1067   0.988   .     S
O1040  C1056   1.389   .     S
Br1041 C1049   1.925   .     S
Br1042 C1050   1.925   .     S
Br1043 C1051   1.928   .     S
Br1044 C1052   1.928   .     S
C1045  C1048   1.451   .     S
C1045  O1074   1.300   .     A
C1045  O1071   1.300   .     A
C1046  H1066   1.083   .     S
C1046  C1048   1.401   .     A
C1047  C1059   1.401   .     A
C1047  C1053   1.451   .     S
C1047  C1060   1.401   .     A
C1048  C1058   1.401   .     A
C1049  N1070   1.376   .     A
C1050  N1069   1.376   .     A
C1050  C332    1.424   1_556 S
C1051  N1069   1.376   .     A
C1051  C329    1.424   1_556 S
C1052  N1070   1.376   .     A
C1053  O1073   1.300   .     A
C1053  O1075   1.300   .     A
C1054  O1076   1.294   .     A
C1054  C1056   1.455   .     S
C1054  O1078   1.302   .     A
C1055  O1079   1.302   .     A
C1055  C1057   1.455   .     S
C1055  O1077   1.294   .     A
C1057  C976    1.359   1_655 S
C1057  O992    1.389   1_655 S
C1058  H1063   1.083   .     S
C1059  H1064   1.083   .     S
C1059  C806    1.383   1_565 S
C1060  H1065   1.083   .     S
C1060  C818    1.383   1_565 S
Cu1061 O1075   1.964   .     S
Cu1061 O1071   1.964   .     S
Cu1061 O1079   1.980   .     S
Cu1061 O1076   1.976   .     S
Cu1061 Cu1062  2.705   .     S
Cu1061 N1069   2.033   .     S
Cu1062 O1074   1.964   .     S
Cu1062 O1078   1.980   .     S
Cu1062 O1073   1.964   .     S
Cu1062 N1070   2.033   .     S
Cu1062 O1077   1.976   .     S
H1068  O992    0.988   1_655 S
O1080  H987    0.988   1_655 S
O1080  C976    1.389   1_655 S
