data_str_m3_o1_o10_pcu_sym.8
_audit_creation_date              2020-01-03
_audit_creation_method            'Materials Studio'
_symmetry_space_group_name_H-M    'P1'
_symmetry_Int_Tables_number       1
_symmetry_cell_setting            triclinic
loop_
_symmetry_equiv_pos_as_xyz
  x,y,z
_cell_length_a                    25.9264
_cell_length_b                    31.9143
_cell_length_c                    29.7031
_cell_angle_alpha                 90.1905
_cell_angle_beta                  98.3533
_cell_angle_gamma                 91.0908
loop_
_atom_site_label
_atom_site_type_symbol
_atom_site_fract_x
_atom_site_fract_y
_atom_site_fract_z
_atom_site_U_iso_or_equiv
_atom_site_adp_type
_atom_site_occupancy
Br1    Br    0.24551   0.23098   0.28794   0.00000  Uiso   1.00
Br2    Br    0.08782   0.10235   0.04539   0.00000  Uiso   1.00
C3     C     0.16787   0.08683   0.16679   0.00000  Uiso   1.00
C4     C     0.13211   0.02207   0.18942   0.00000  Uiso   1.00
C5     C     0.16430   0.29063   0.16611   0.00000  Uiso   1.00
C6     C     0.16903   0.04270   0.16722   0.00000  Uiso   1.00
C7     C     0.19766   0.19447   0.02872   0.00000  Uiso   1.00
C8     C     0.13567   0.13887   0.30462   0.00000  Uiso   1.00
C9     C     0.19820   0.19414   0.31377   0.00000  Uiso   1.00
C10    C     0.13513   0.13919   0.01956   0.00000  Uiso   1.00
C11    C     0.16546   0.24650   0.16654   0.00000  Uiso   1.00
C12    C     0.06731   0.16747   0.15499   0.00000  Uiso   1.00
C13    C     0.26602   0.16586   0.17835   0.00000  Uiso   1.00
C14    C     0.01293   0.17386   0.15004   0.00000  Uiso   1.00
C15    C     0.32041   0.15948   0.18329   0.00000  Uiso   1.00
C16    C     0.20468   0.02092   0.14478   0.00000  Uiso   1.00
C17    C     0.12864   0.31242   0.18855   0.00000  Uiso   1.00
C18    C     0.20121   0.31126   0.14391   0.00000  Uiso   1.00
H19    H     0.22870   0.29380   0.12729   0.00000  Uiso   1.00
H20    H     0.10463   0.03953   0.20604   0.00000  Uiso   1.00
H21    H     0.01532   0.20869   0.09606   0.00000  Uiso   1.00
H22    H     0.31801   0.12463   0.23726   0.00000  Uiso   1.00
H23    H     0.25048   0.06871   0.13681   0.00000  Uiso   1.00
H24    H     0.08286   0.26462   0.19653   0.00000  Uiso   1.00
H25    H     0.24235   0.24452   0.04048   0.00000  Uiso   1.00
H26    H     0.09097   0.08882   0.29286   0.00000  Uiso   1.00
N27    N     0.16665   0.16666   0.28573   0.00000  Uiso   1.00
N28    N     0.16668   0.16668   0.04760   0.00000  Uiso   1.00
O29    O     0.16666   0.10558   0.20487   0.00000  Uiso   1.00
O30    O     0.01100   0.13517   0.21876   0.00000  Uiso   1.00
O31    O     0.24375   0.03994   0.12458   0.00000  Uiso   1.00
O32    O     0.08956   0.29339   0.20874   0.00000  Uiso   1.00
O33    O     0.22760   0.22212   0.05783   0.00000  Uiso   1.00
O34    O     0.10573   0.11122   0.27550   0.00000  Uiso   1.00
O35    O     0.16667   0.22775   0.12846   0.00000  Uiso   1.00
O36    O     0.16666   0.10559   0.12843   0.00000  Uiso   1.00
O37    O     0.16667   0.22774   0.20490   0.00000  Uiso   1.00
O38    O     0.09058   0.16666   0.19595   0.00000  Uiso   1.00
O39    O     0.24275   0.16667   0.13739   0.00000  Uiso   1.00
O40    O     0.09058   0.16667   0.11950   0.00000  Uiso   1.00
O41    O     0.24275   0.16666   0.21383   0.00000  Uiso   1.00
O42    O     0.32233   0.19816   0.11458   0.00000  Uiso   1.00
Zn43   Zn    0.16667   0.16666   0.21771   0.00000  Uiso   1.00
Zn44   Zn    0.16667   0.16667   0.11563   0.00000  Uiso   1.00
Br45   Br    0.57885   0.23098   0.28794   0.00000  Uiso   1.00
Br46   Br    0.42115   0.10235   0.04539   0.00000  Uiso   1.00
C47    C     0.50120   0.08683   0.16679   0.00000  Uiso   1.00
C48    C     0.46545   0.02207   0.18942   0.00000  Uiso   1.00
C49    C     0.49763   0.29063   0.16611   0.00000  Uiso   1.00
C50    C     0.50237   0.04270   0.16722   0.00000  Uiso   1.00
C51    C     0.53099   0.19447   0.02872   0.00000  Uiso   1.00
C52    C     0.46901   0.13887   0.30462   0.00000  Uiso   1.00
C53    C     0.53154   0.19414   0.31377   0.00000  Uiso   1.00
C54    C     0.46846   0.13919   0.01956   0.00000  Uiso   1.00
C55    C     0.49880   0.24650   0.16654   0.00000  Uiso   1.00
C56    C     0.40064   0.16747   0.15499   0.00000  Uiso   1.00
C57    C     0.59936   0.16586   0.17835   0.00000  Uiso   1.00
C58    C     0.34626   0.17386   0.15004   0.00000  Uiso   1.00
C59    C     0.65374   0.15948   0.18329   0.00000  Uiso   1.00
C60    C     0.53802   0.02092   0.14478   0.00000  Uiso   1.00
C61    C     0.46198   0.31242   0.18855   0.00000  Uiso   1.00
C62    C     0.53455   0.31126   0.14391   0.00000  Uiso   1.00
H63    H     0.56203   0.29380   0.12729   0.00000  Uiso   1.00
H64    H     0.43796   0.03953   0.20604   0.00000  Uiso   1.00
H65    H     0.34865   0.20869   0.09606   0.00000  Uiso   1.00
H66    H     0.65134   0.12463   0.23726   0.00000  Uiso   1.00
H67    H     0.58381   0.06871   0.13681   0.00000  Uiso   1.00
H68    H     0.41619   0.26462   0.19653   0.00000  Uiso   1.00
H69    H     0.57569   0.24452   0.04048   0.00000  Uiso   1.00
H70    H     0.42430   0.08882   0.29286   0.00000  Uiso   1.00
N71    N     0.49999   0.16666   0.28573   0.00000  Uiso   1.00
N72    N     0.50001   0.16668   0.04760   0.00000  Uiso   1.00
O73    O     0.50000   0.10558   0.20487   0.00000  Uiso   1.00
O74    O     0.34434   0.13517   0.21876   0.00000  Uiso   1.00
O75    O     0.57709   0.03994   0.12458   0.00000  Uiso   1.00
O76    O     0.42290   0.29339   0.20874   0.00000  Uiso   1.00
O77    O     0.56093   0.22212   0.05783   0.00000  Uiso   1.00
O78    O     0.43907   0.11122   0.27550   0.00000  Uiso   1.00
O79    O     0.50000   0.22775   0.12846   0.00000  Uiso   1.00
O80    O     0.50000   0.10559   0.12843   0.00000  Uiso   1.00
O81    O     0.50000   0.22774   0.20490   0.00000  Uiso   1.00
O82    O     0.42392   0.16666   0.19595   0.00000  Uiso   1.00
O83    O     0.57608   0.16667   0.13739   0.00000  Uiso   1.00
O84    O     0.42392   0.16667   0.11950   0.00000  Uiso   1.00
O85    O     0.57608   0.16666   0.21383   0.00000  Uiso   1.00
O86    O     0.65566   0.19816   0.11458   0.00000  Uiso   1.00
Zn87   Zn    0.50000   0.16666   0.21771   0.00000  Uiso   1.00
Zn88   Zn    0.50000   0.16667   0.11563   0.00000  Uiso   1.00
Br89   Br    0.91218   0.23098   0.28794   0.00000  Uiso   1.00
Br90   Br    0.75449   0.10235   0.04539   0.00000  Uiso   1.00
C91    C     0.83454   0.08683   0.16679   0.00000  Uiso   1.00
C92    C     0.79878   0.02207   0.18942   0.00000  Uiso   1.00
C93    C     0.83096   0.29063   0.16611   0.00000  Uiso   1.00
C94    C     0.83570   0.04270   0.16722   0.00000  Uiso   1.00
C95    C     0.86433   0.19447   0.02872   0.00000  Uiso   1.00
C96    C     0.80234   0.13887   0.30462   0.00000  Uiso   1.00
C97    C     0.86487   0.19414   0.31377   0.00000  Uiso   1.00
C98    C     0.80179   0.13919   0.01956   0.00000  Uiso   1.00
C99    C     0.83213   0.24650   0.16654   0.00000  Uiso   1.00
C100   C     0.73398   0.16747   0.15499   0.00000  Uiso   1.00
C101   C     0.93269   0.16586   0.17835   0.00000  Uiso   1.00
C102   C     0.67959   0.17386   0.15004   0.00000  Uiso   1.00
C103   C     0.98707   0.15948   0.18329   0.00000  Uiso   1.00
C104   C     0.87135   0.02092   0.14478   0.00000  Uiso   1.00
C105   C     0.79531   0.31242   0.18855   0.00000  Uiso   1.00
C106   C     0.86788   0.31126   0.14391   0.00000  Uiso   1.00
H107   H     0.89537   0.29380   0.12729   0.00000  Uiso   1.00
H108   H     0.77129   0.03953   0.20604   0.00000  Uiso   1.00
H109   H     0.68198   0.20869   0.09606   0.00000  Uiso   1.00
H110   H     0.98468   0.12463   0.23726   0.00000  Uiso   1.00
H111   H     0.91715   0.06871   0.13681   0.00000  Uiso   1.00
H112   H     0.74953   0.26462   0.19653   0.00000  Uiso   1.00
H113   H     0.90902   0.24452   0.04048   0.00000  Uiso   1.00
H114   H     0.75764   0.08882   0.29286   0.00000  Uiso   1.00
N115   N     0.83332   0.16666   0.28573   0.00000  Uiso   1.00
N116   N     0.83335   0.16668   0.04760   0.00000  Uiso   1.00
O117   O     0.83333   0.10558   0.20487   0.00000  Uiso   1.00
O118   O     0.67767   0.13517   0.21876   0.00000  Uiso   1.00
O119   O     0.91042   0.03994   0.12458   0.00000  Uiso   1.00
O120   O     0.75623   0.29339   0.20874   0.00000  Uiso   1.00
O121   O     0.89426   0.22212   0.05783   0.00000  Uiso   1.00
O122   O     0.77240   0.11122   0.27550   0.00000  Uiso   1.00
O123   O     0.83334   0.22775   0.12846   0.00000  Uiso   1.00
O124   O     0.83333   0.10559   0.12843   0.00000  Uiso   1.00
O125   O     0.83334   0.22774   0.20490   0.00000  Uiso   1.00
O126   O     0.75725   0.16666   0.19595   0.00000  Uiso   1.00
O127   O     0.90942   0.16667   0.13739   0.00000  Uiso   1.00
O128   O     0.75725   0.16667   0.11950   0.00000  Uiso   1.00
O129   O     0.90942   0.16666   0.21383   0.00000  Uiso   1.00
O130   O     0.98900   0.19816   0.11458   0.00000  Uiso   1.00
Zn131  Zn    0.83333   0.16666   0.21771   0.00000  Uiso   1.00
Zn132  Zn    0.83333   0.16667   0.11563   0.00000  Uiso   1.00
Br133  Br    0.24551   0.56431   0.28794   0.00000  Uiso   1.00
Br134  Br    0.08782   0.43569   0.04539   0.00000  Uiso   1.00
C135   C     0.16787   0.42017   0.16679   0.00000  Uiso   1.00
C136   C     0.13211   0.35541   0.18942   0.00000  Uiso   1.00
C137   C     0.16430   0.62396   0.16611   0.00000  Uiso   1.00
C138   C     0.16903   0.37604   0.16722   0.00000  Uiso   1.00
C139   C     0.19766   0.52780   0.02872   0.00000  Uiso   1.00
C140   C     0.13567   0.47220   0.30462   0.00000  Uiso   1.00
C141   C     0.19820   0.52747   0.31377   0.00000  Uiso   1.00
C142   C     0.13513   0.47253   0.01956   0.00000  Uiso   1.00
C143   C     0.16546   0.57983   0.16654   0.00000  Uiso   1.00
C144   C     0.06731   0.50080   0.15499   0.00000  Uiso   1.00
C145   C     0.26602   0.49920   0.17835   0.00000  Uiso   1.00
C146   C     0.01293   0.50719   0.15004   0.00000  Uiso   1.00
C147   C     0.32041   0.49281   0.18329   0.00000  Uiso   1.00
C148   C     0.20468   0.35425   0.14478   0.00000  Uiso   1.00
C149   C     0.12864   0.64575   0.18855   0.00000  Uiso   1.00
C150   C     0.20121   0.64460   0.14391   0.00000  Uiso   1.00
H151   H     0.22870   0.62714   0.12729   0.00000  Uiso   1.00
H152   H     0.10463   0.37287   0.20604   0.00000  Uiso   1.00
H153   H     0.01532   0.54202   0.09606   0.00000  Uiso   1.00
H154   H     0.31801   0.45797   0.23726   0.00000  Uiso   1.00
H155   H     0.25048   0.40204   0.13681   0.00000  Uiso   1.00
H156   H     0.08286   0.59795   0.19653   0.00000  Uiso   1.00
H157   H     0.24235   0.57785   0.04048   0.00000  Uiso   1.00
H158   H     0.09097   0.42215   0.29286   0.00000  Uiso   1.00
N159   N     0.16665   0.49999   0.28573   0.00000  Uiso   1.00
N160   N     0.16668   0.50001   0.04760   0.00000  Uiso   1.00
O161   O     0.16666   0.43892   0.20487   0.00000  Uiso   1.00
O162   O     0.01100   0.46851   0.21876   0.00000  Uiso   1.00
O163   O     0.24375   0.37328   0.12458   0.00000  Uiso   1.00
O164   O     0.08956   0.62673   0.20874   0.00000  Uiso   1.00
O165   O     0.22760   0.55545   0.05783   0.00000  Uiso   1.00
O166   O     0.10573   0.44455   0.27550   0.00000  Uiso   1.00
O167   O     0.16667   0.56108   0.12846   0.00000  Uiso   1.00
O168   O     0.16666   0.43893   0.12843   0.00000  Uiso   1.00
O169   O     0.16667   0.56107   0.20490   0.00000  Uiso   1.00
O170   O     0.09058   0.50000   0.19595   0.00000  Uiso   1.00
O171   O     0.24275   0.50000   0.13739   0.00000  Uiso   1.00
O172   O     0.09058   0.50000   0.11950   0.00000  Uiso   1.00
O173   O     0.24275   0.50000   0.21383   0.00000  Uiso   1.00
O174   O     0.32233   0.53150   0.11458   0.00000  Uiso   1.00
Zn175  Zn    0.16667   0.49999   0.21771   0.00000  Uiso   1.00
Zn176  Zn    0.16667   0.50001   0.11563   0.00000  Uiso   1.00
Br177  Br    0.57885   0.56431   0.28794   0.00000  Uiso   1.00
Br178  Br    0.42115   0.43569   0.04539   0.00000  Uiso   1.00
C179   C     0.50120   0.42017   0.16679   0.00000  Uiso   1.00
C180   C     0.46545   0.35541   0.18942   0.00000  Uiso   1.00
C181   C     0.49763   0.62396   0.16611   0.00000  Uiso   1.00
C182   C     0.50237   0.37604   0.16722   0.00000  Uiso   1.00
C183   C     0.53099   0.52780   0.02872   0.00000  Uiso   1.00
C184   C     0.46901   0.47220   0.30462   0.00000  Uiso   1.00
C185   C     0.53154   0.52747   0.31377   0.00000  Uiso   1.00
C186   C     0.46846   0.47253   0.01956   0.00000  Uiso   1.00
C187   C     0.49880   0.57983   0.16654   0.00000  Uiso   1.00
C188   C     0.40064   0.50080   0.15499   0.00000  Uiso   1.00
C189   C     0.59936   0.49920   0.17835   0.00000  Uiso   1.00
C190   C     0.34626   0.50719   0.15004   0.00000  Uiso   1.00
C191   C     0.65374   0.49281   0.18329   0.00000  Uiso   1.00
C192   C     0.53802   0.35425   0.14478   0.00000  Uiso   1.00
C193   C     0.46198   0.64575   0.18855   0.00000  Uiso   1.00
C194   C     0.53455   0.64460   0.14391   0.00000  Uiso   1.00
H195   H     0.56203   0.62714   0.12729   0.00000  Uiso   1.00
H196   H     0.43796   0.37287   0.20604   0.00000  Uiso   1.00
H197   H     0.34865   0.54202   0.09606   0.00000  Uiso   1.00
H198   H     0.65134   0.45797   0.23726   0.00000  Uiso   1.00
H199   H     0.58381   0.40204   0.13681   0.00000  Uiso   1.00
H200   H     0.41619   0.59795   0.19653   0.00000  Uiso   1.00
H201   H     0.57569   0.57785   0.04048   0.00000  Uiso   1.00
H202   H     0.42430   0.42215   0.29286   0.00000  Uiso   1.00
N203   N     0.49999   0.49999   0.28573   0.00000  Uiso   1.00
N204   N     0.50001   0.50001   0.04760   0.00000  Uiso   1.00
O205   O     0.50000   0.43892   0.20487   0.00000  Uiso   1.00
O206   O     0.34434   0.46851   0.21876   0.00000  Uiso   1.00
O207   O     0.57709   0.37328   0.12458   0.00000  Uiso   1.00
O208   O     0.42290   0.62673   0.20874   0.00000  Uiso   1.00
O209   O     0.56093   0.55545   0.05783   0.00000  Uiso   1.00
O210   O     0.43907   0.44455   0.27550   0.00000  Uiso   1.00
O211   O     0.50000   0.56108   0.12846   0.00000  Uiso   1.00
O212   O     0.50000   0.43893   0.12843   0.00000  Uiso   1.00
O213   O     0.50000   0.56107   0.20490   0.00000  Uiso   1.00
O214   O     0.42392   0.50000   0.19595   0.00000  Uiso   1.00
O215   O     0.57608   0.50000   0.13739   0.00000  Uiso   1.00
O216   O     0.42392   0.50000   0.11950   0.00000  Uiso   1.00
O217   O     0.57608   0.50000   0.21383   0.00000  Uiso   1.00
O218   O     0.65566   0.53150   0.11458   0.00000  Uiso   1.00
Zn219  Zn    0.50000   0.49999   0.21771   0.00000  Uiso   1.00
Zn220  Zn    0.50000   0.50001   0.11563   0.00000  Uiso   1.00
Br221  Br    0.91218   0.56431   0.28794   0.00000  Uiso   1.00
Br222  Br    0.75449   0.43569   0.04539   0.00000  Uiso   1.00
C223   C     0.83454   0.42017   0.16679   0.00000  Uiso   1.00
C224   C     0.79878   0.35541   0.18942   0.00000  Uiso   1.00
C225   C     0.83096   0.62396   0.16611   0.00000  Uiso   1.00
C226   C     0.83570   0.37604   0.16722   0.00000  Uiso   1.00
C227   C     0.86433   0.52780   0.02872   0.00000  Uiso   1.00
C228   C     0.80234   0.47220   0.30462   0.00000  Uiso   1.00
C229   C     0.86487   0.52747   0.31377   0.00000  Uiso   1.00
C230   C     0.80179   0.47253   0.01956   0.00000  Uiso   1.00
C231   C     0.83213   0.57983   0.16654   0.00000  Uiso   1.00
C232   C     0.73398   0.50080   0.15499   0.00000  Uiso   1.00
C233   C     0.93269   0.49920   0.17835   0.00000  Uiso   1.00
C234   C     0.67959   0.50719   0.15004   0.00000  Uiso   1.00
C235   C     0.98707   0.49281   0.18329   0.00000  Uiso   1.00
C236   C     0.87135   0.35425   0.14478   0.00000  Uiso   1.00
C237   C     0.79531   0.64575   0.18855   0.00000  Uiso   1.00
C238   C     0.86788   0.64460   0.14391   0.00000  Uiso   1.00
H239   H     0.89537   0.62714   0.12729   0.00000  Uiso   1.00
H240   H     0.77129   0.37287   0.20604   0.00000  Uiso   1.00
H241   H     0.68198   0.54202   0.09606   0.00000  Uiso   1.00
H242   H     0.98468   0.45797   0.23726   0.00000  Uiso   1.00
H243   H     0.91715   0.40204   0.13681   0.00000  Uiso   1.00
H244   H     0.74953   0.59795   0.19653   0.00000  Uiso   1.00
H245   H     0.90902   0.57785   0.04048   0.00000  Uiso   1.00
H246   H     0.75764   0.42215   0.29286   0.00000  Uiso   1.00
N247   N     0.83332   0.49999   0.28573   0.00000  Uiso   1.00
N248   N     0.83335   0.50001   0.04760   0.00000  Uiso   1.00
O249   O     0.83333   0.43892   0.20487   0.00000  Uiso   1.00
O250   O     0.67767   0.46851   0.21876   0.00000  Uiso   1.00
O251   O     0.91042   0.37328   0.12458   0.00000  Uiso   1.00
O252   O     0.75623   0.62673   0.20874   0.00000  Uiso   1.00
O253   O     0.89426   0.55545   0.05783   0.00000  Uiso   1.00
O254   O     0.77240   0.44455   0.27550   0.00000  Uiso   1.00
O255   O     0.83334   0.56108   0.12846   0.00000  Uiso   1.00
O256   O     0.83333   0.43893   0.12843   0.00000  Uiso   1.00
O257   O     0.83334   0.56107   0.20490   0.00000  Uiso   1.00
O258   O     0.75725   0.50000   0.19595   0.00000  Uiso   1.00
O259   O     0.90942   0.50000   0.13739   0.00000  Uiso   1.00
O260   O     0.75725   0.50000   0.11950   0.00000  Uiso   1.00
O261   O     0.90942   0.50000   0.21383   0.00000  Uiso   1.00
O262   O     0.98900   0.53150   0.11458   0.00000  Uiso   1.00
Zn263  Zn    0.83333   0.49999   0.21771   0.00000  Uiso   1.00
Zn264  Zn    0.83333   0.50001   0.11563   0.00000  Uiso   1.00
Br265  Br    0.24551   0.89765   0.28794   0.00000  Uiso   1.00
Br266  Br    0.08782   0.76902   0.04539   0.00000  Uiso   1.00
C267   C     0.16787   0.75350   0.16679   0.00000  Uiso   1.00
C268   C     0.13211   0.68874   0.18942   0.00000  Uiso   1.00
C269   C     0.16430   0.95730   0.16611   0.00000  Uiso   1.00
C270   C     0.16903   0.70937   0.16722   0.00000  Uiso   1.00
C271   C     0.19766   0.86113   0.02872   0.00000  Uiso   1.00
C272   C     0.13567   0.80553   0.30462   0.00000  Uiso   1.00
C273   C     0.19820   0.86081   0.31377   0.00000  Uiso   1.00
C274   C     0.13513   0.80586   0.01956   0.00000  Uiso   1.00
C275   C     0.16546   0.91317   0.16654   0.00000  Uiso   1.00
C276   C     0.06731   0.83414   0.15499   0.00000  Uiso   1.00
C277   C     0.26602   0.83253   0.17835   0.00000  Uiso   1.00
C278   C     0.01293   0.84052   0.15004   0.00000  Uiso   1.00
C279   C     0.32041   0.82614   0.18329   0.00000  Uiso   1.00
C280   C     0.20468   0.68758   0.14478   0.00000  Uiso   1.00
C281   C     0.12864   0.97908   0.18855   0.00000  Uiso   1.00
C282   C     0.20121   0.97793   0.14391   0.00000  Uiso   1.00
H283   H     0.22870   0.96047   0.12729   0.00000  Uiso   1.00
H284   H     0.10463   0.70620   0.20604   0.00000  Uiso   1.00
H285   H     0.01532   0.87535   0.09606   0.00000  Uiso   1.00
H286   H     0.31801   0.79130   0.23726   0.00000  Uiso   1.00
H287   H     0.25048   0.73537   0.13681   0.00000  Uiso   1.00
H288   H     0.08286   0.93128   0.19653   0.00000  Uiso   1.00
H289   H     0.24235   0.91119   0.04048   0.00000  Uiso   1.00
H290   H     0.09097   0.75549   0.29286   0.00000  Uiso   1.00
N291   N     0.16665   0.83332   0.28573   0.00000  Uiso   1.00
N292   N     0.16668   0.83334   0.04760   0.00000  Uiso   1.00
O293   O     0.16666   0.77225   0.20487   0.00000  Uiso   1.00
O294   O     0.01100   0.80184   0.21876   0.00000  Uiso   1.00
O295   O     0.24375   0.70661   0.12458   0.00000  Uiso   1.00
O296   O     0.08956   0.96006   0.20874   0.00000  Uiso   1.00
O297   O     0.22760   0.88878   0.05783   0.00000  Uiso   1.00
O298   O     0.10573   0.77788   0.27550   0.00000  Uiso   1.00
O299   O     0.16667   0.89442   0.12846   0.00000  Uiso   1.00
O300   O     0.16666   0.77226   0.12843   0.00000  Uiso   1.00
O301   O     0.16667   0.89441   0.20490   0.00000  Uiso   1.00
O302   O     0.09058   0.83333   0.19595   0.00000  Uiso   1.00
O303   O     0.24275   0.83334   0.13739   0.00000  Uiso   1.00
O304   O     0.09058   0.83334   0.11950   0.00000  Uiso   1.00
O305   O     0.24275   0.83333   0.21383   0.00000  Uiso   1.00
O306   O     0.32233   0.86483   0.11458   0.00000  Uiso   1.00
Zn307  Zn    0.16667   0.83333   0.21771   0.00000  Uiso   1.00
Zn308  Zn    0.16667   0.83334   0.11563   0.00000  Uiso   1.00
Br309  Br    0.57885   0.89765   0.28794   0.00000  Uiso   1.00
Br310  Br    0.42115   0.76902   0.04539   0.00000  Uiso   1.00
C311   C     0.50120   0.75350   0.16679   0.00000  Uiso   1.00
C312   C     0.46545   0.68874   0.18942   0.00000  Uiso   1.00
C313   C     0.49763   0.95730   0.16611   0.00000  Uiso   1.00
C314   C     0.50237   0.70937   0.16722   0.00000  Uiso   1.00
C315   C     0.53099   0.86113   0.02872   0.00000  Uiso   1.00
C316   C     0.46901   0.80553   0.30462   0.00000  Uiso   1.00
C317   C     0.53154   0.86081   0.31377   0.00000  Uiso   1.00
C318   C     0.46846   0.80586   0.01956   0.00000  Uiso   1.00
C319   C     0.49880   0.91317   0.16654   0.00000  Uiso   1.00
C320   C     0.40064   0.83414   0.15499   0.00000  Uiso   1.00
C321   C     0.59936   0.83253   0.17835   0.00000  Uiso   1.00
C322   C     0.34626   0.84052   0.15004   0.00000  Uiso   1.00
C323   C     0.65374   0.82614   0.18329   0.00000  Uiso   1.00
C324   C     0.53802   0.68758   0.14478   0.00000  Uiso   1.00
C325   C     0.46198   0.97908   0.18855   0.00000  Uiso   1.00
C326   C     0.53455   0.97793   0.14391   0.00000  Uiso   1.00
H327   H     0.56203   0.96047   0.12729   0.00000  Uiso   1.00
H328   H     0.43796   0.70620   0.20604   0.00000  Uiso   1.00
H329   H     0.34865   0.87535   0.09606   0.00000  Uiso   1.00
H330   H     0.65134   0.79130   0.23726   0.00000  Uiso   1.00
H331   H     0.58381   0.73537   0.13681   0.00000  Uiso   1.00
H332   H     0.41619   0.93128   0.19653   0.00000  Uiso   1.00
H333   H     0.57569   0.91119   0.04048   0.00000  Uiso   1.00
H334   H     0.42430   0.75549   0.29286   0.00000  Uiso   1.00
N335   N     0.49999   0.83332   0.28573   0.00000  Uiso   1.00
N336   N     0.50001   0.83334   0.04760   0.00000  Uiso   1.00
O337   O     0.50000   0.77225   0.20487   0.00000  Uiso   1.00
O338   O     0.34434   0.80184   0.21876   0.00000  Uiso   1.00
O339   O     0.57709   0.70661   0.12458   0.00000  Uiso   1.00
O340   O     0.42290   0.96006   0.20874   0.00000  Uiso   1.00
O341   O     0.56093   0.88878   0.05783   0.00000  Uiso   1.00
O342   O     0.43907   0.77788   0.27550   0.00000  Uiso   1.00
O343   O     0.50000   0.89442   0.12846   0.00000  Uiso   1.00
O344   O     0.50000   0.77226   0.12843   0.00000  Uiso   1.00
O345   O     0.50000   0.89441   0.20490   0.00000  Uiso   1.00
O346   O     0.42392   0.83333   0.19595   0.00000  Uiso   1.00
O347   O     0.57608   0.83334   0.13739   0.00000  Uiso   1.00
O348   O     0.42392   0.83334   0.11950   0.00000  Uiso   1.00
O349   O     0.57608   0.83333   0.21383   0.00000  Uiso   1.00
O350   O     0.65566   0.86483   0.11458   0.00000  Uiso   1.00
Zn351  Zn    0.50000   0.83333   0.21771   0.00000  Uiso   1.00
Zn352  Zn    0.50000   0.83334   0.11563   0.00000  Uiso   1.00
Br353  Br    0.91218   0.89765   0.28794   0.00000  Uiso   1.00
Br354  Br    0.75449   0.76902   0.04539   0.00000  Uiso   1.00
C355   C     0.83454   0.75350   0.16679   0.00000  Uiso   1.00
C356   C     0.79878   0.68874   0.18942   0.00000  Uiso   1.00
C357   C     0.83096   0.95730   0.16611   0.00000  Uiso   1.00
C358   C     0.83570   0.70937   0.16722   0.00000  Uiso   1.00
C359   C     0.86433   0.86113   0.02872   0.00000  Uiso   1.00
C360   C     0.80234   0.80553   0.30462   0.00000  Uiso   1.00
C361   C     0.86487   0.86081   0.31377   0.00000  Uiso   1.00
C362   C     0.80179   0.80586   0.01956   0.00000  Uiso   1.00
C363   C     0.83213   0.91317   0.16654   0.00000  Uiso   1.00
C364   C     0.73398   0.83414   0.15499   0.00000  Uiso   1.00
C365   C     0.93269   0.83253   0.17835   0.00000  Uiso   1.00
C366   C     0.67959   0.84052   0.15004   0.00000  Uiso   1.00
C367   C     0.98707   0.82614   0.18329   0.00000  Uiso   1.00
C368   C     0.87135   0.68758   0.14478   0.00000  Uiso   1.00
C369   C     0.79531   0.97908   0.18855   0.00000  Uiso   1.00
C370   C     0.86788   0.97793   0.14391   0.00000  Uiso   1.00
H371   H     0.89537   0.96047   0.12729   0.00000  Uiso   1.00
H372   H     0.77129   0.70620   0.20604   0.00000  Uiso   1.00
H373   H     0.68198   0.87535   0.09606   0.00000  Uiso   1.00
H374   H     0.98468   0.79130   0.23726   0.00000  Uiso   1.00
H375   H     0.91715   0.73537   0.13681   0.00000  Uiso   1.00
H376   H     0.74953   0.93128   0.19653   0.00000  Uiso   1.00
H377   H     0.90902   0.91119   0.04048   0.00000  Uiso   1.00
H378   H     0.75764   0.75549   0.29286   0.00000  Uiso   1.00
N379   N     0.83332   0.83332   0.28573   0.00000  Uiso   1.00
N380   N     0.83335   0.83334   0.04760   0.00000  Uiso   1.00
O381   O     0.83333   0.77225   0.20487   0.00000  Uiso   1.00
O382   O     0.67767   0.80184   0.21876   0.00000  Uiso   1.00
O383   O     0.91042   0.70661   0.12458   0.00000  Uiso   1.00
O384   O     0.75623   0.96006   0.20874   0.00000  Uiso   1.00
O385   O     0.89426   0.88878   0.05783   0.00000  Uiso   1.00
O386   O     0.77240   0.77788   0.27550   0.00000  Uiso   1.00
O387   O     0.83334   0.89442   0.12846   0.00000  Uiso   1.00
O388   O     0.83333   0.77226   0.12843   0.00000  Uiso   1.00
O389   O     0.83334   0.89441   0.20490   0.00000  Uiso   1.00
O390   O     0.75725   0.83333   0.19595   0.00000  Uiso   1.00
O391   O     0.90942   0.83334   0.13739   0.00000  Uiso   1.00
O392   O     0.75725   0.83334   0.11950   0.00000  Uiso   1.00
O393   O     0.90942   0.83333   0.21383   0.00000  Uiso   1.00
O394   O     0.98900   0.86483   0.11458   0.00000  Uiso   1.00
Zn395  Zn    0.83333   0.83333   0.21771   0.00000  Uiso   1.00
Zn396  Zn    0.83333   0.83334   0.11563   0.00000  Uiso   1.00
Br397  Br    0.24551   0.23098   0.62127   0.00000  Uiso   1.00
Br398  Br    0.08782   0.10235   0.37873   0.00000  Uiso   1.00
C399   C     0.16787   0.08683   0.50013   0.00000  Uiso   1.00
C400   C     0.13211   0.02207   0.52275   0.00000  Uiso   1.00
C401   C     0.16430   0.29063   0.49945   0.00000  Uiso   1.00
C402   C     0.16903   0.04270   0.50055   0.00000  Uiso   1.00
C403   C     0.19766   0.19447   0.36205   0.00000  Uiso   1.00
C404   C     0.13567   0.13887   0.63795   0.00000  Uiso   1.00
C405   C     0.19820   0.19414   0.64711   0.00000  Uiso   1.00
C406   C     0.13513   0.13919   0.35289   0.00000  Uiso   1.00
C407   C     0.16546   0.24650   0.49987   0.00000  Uiso   1.00
C408   C     0.06731   0.16747   0.48832   0.00000  Uiso   1.00
C409   C     0.26602   0.16586   0.51168   0.00000  Uiso   1.00
C410   C     0.01293   0.17386   0.48337   0.00000  Uiso   1.00
C411   C     0.32041   0.15948   0.51663   0.00000  Uiso   1.00
C412   C     0.20468   0.02092   0.47811   0.00000  Uiso   1.00
C413   C     0.12864   0.31242   0.52188   0.00000  Uiso   1.00
C414   C     0.20121   0.31126   0.47725   0.00000  Uiso   1.00
H415   H     0.22870   0.29380   0.46062   0.00000  Uiso   1.00
H416   H     0.10463   0.03953   0.53938   0.00000  Uiso   1.00
H417   H     0.01532   0.20869   0.42939   0.00000  Uiso   1.00
H418   H     0.31801   0.12463   0.57059   0.00000  Uiso   1.00
H419   H     0.25048   0.06871   0.47015   0.00000  Uiso   1.00
H420   H     0.08286   0.26462   0.52986   0.00000  Uiso   1.00
H421   H     0.24235   0.24452   0.37381   0.00000  Uiso   1.00
H422   H     0.09097   0.08882   0.62619   0.00000  Uiso   1.00
N423   N     0.16665   0.16666   0.61907   0.00000  Uiso   1.00
N424   N     0.16668   0.16668   0.38093   0.00000  Uiso   1.00
O425   O     0.16666   0.10558   0.53821   0.00000  Uiso   1.00
O426   O     0.01100   0.13517   0.55209   0.00000  Uiso   1.00
O427   O     0.24375   0.03994   0.45792   0.00000  Uiso   1.00
O428   O     0.08956   0.29339   0.54207   0.00000  Uiso   1.00
O429   O     0.22760   0.22212   0.39116   0.00000  Uiso   1.00
O430   O     0.10573   0.11122   0.60883   0.00000  Uiso   1.00
O431   O     0.16667   0.22775   0.46179   0.00000  Uiso   1.00
O432   O     0.16666   0.10559   0.46176   0.00000  Uiso   1.00
O433   O     0.16667   0.22774   0.53824   0.00000  Uiso   1.00
O434   O     0.09058   0.16666   0.52928   0.00000  Uiso   1.00
O435   O     0.24275   0.16667   0.47072   0.00000  Uiso   1.00
O436   O     0.09058   0.16667   0.45284   0.00000  Uiso   1.00
O437   O     0.24275   0.16666   0.54716   0.00000  Uiso   1.00
O438   O     0.32233   0.19816   0.44791   0.00000  Uiso   1.00
Zn439  Zn    0.16667   0.16666   0.55104   0.00000  Uiso   1.00
Zn440  Zn    0.16667   0.16667   0.44896   0.00000  Uiso   1.00
Br441  Br    0.57885   0.23098   0.62127   0.00000  Uiso   1.00
Br442  Br    0.42115   0.10235   0.37873   0.00000  Uiso   1.00
C443   C     0.50120   0.08683   0.50013   0.00000  Uiso   1.00
C444   C     0.46545   0.02207   0.52275   0.00000  Uiso   1.00
C445   C     0.49763   0.29063   0.49945   0.00000  Uiso   1.00
C446   C     0.50237   0.04270   0.50055   0.00000  Uiso   1.00
C447   C     0.53099   0.19447   0.36205   0.00000  Uiso   1.00
C448   C     0.46901   0.13887   0.63795   0.00000  Uiso   1.00
C449   C     0.53154   0.19414   0.64711   0.00000  Uiso   1.00
C450   C     0.46846   0.13919   0.35289   0.00000  Uiso   1.00
C451   C     0.49880   0.24650   0.49987   0.00000  Uiso   1.00
C452   C     0.40064   0.16747   0.48832   0.00000  Uiso   1.00
C453   C     0.59936   0.16586   0.51168   0.00000  Uiso   1.00
C454   C     0.34626   0.17386   0.48337   0.00000  Uiso   1.00
C455   C     0.65374   0.15948   0.51663   0.00000  Uiso   1.00
C456   C     0.53802   0.02092   0.47811   0.00000  Uiso   1.00
C457   C     0.46198   0.31242   0.52188   0.00000  Uiso   1.00
C458   C     0.53455   0.31126   0.47725   0.00000  Uiso   1.00
H459   H     0.56203   0.29380   0.46062   0.00000  Uiso   1.00
H460   H     0.43796   0.03953   0.53938   0.00000  Uiso   1.00
H461   H     0.34865   0.20869   0.42939   0.00000  Uiso   1.00
H462   H     0.65134   0.12463   0.57059   0.00000  Uiso   1.00
H463   H     0.58381   0.06871   0.47015   0.00000  Uiso   1.00
H464   H     0.41619   0.26462   0.52986   0.00000  Uiso   1.00
H465   H     0.57569   0.24452   0.37381   0.00000  Uiso   1.00
H466   H     0.42430   0.08882   0.62619   0.00000  Uiso   1.00
N467   N     0.49999   0.16666   0.61907   0.00000  Uiso   1.00
N468   N     0.50001   0.16668   0.38093   0.00000  Uiso   1.00
O469   O     0.50000   0.10558   0.53821   0.00000  Uiso   1.00
O470   O     0.34434   0.13517   0.55209   0.00000  Uiso   1.00
O471   O     0.57709   0.03994   0.45792   0.00000  Uiso   1.00
O472   O     0.42290   0.29339   0.54207   0.00000  Uiso   1.00
O473   O     0.56093   0.22212   0.39116   0.00000  Uiso   1.00
O474   O     0.43907   0.11122   0.60883   0.00000  Uiso   1.00
O475   O     0.50000   0.22775   0.46179   0.00000  Uiso   1.00
O476   O     0.50000   0.10559   0.46176   0.00000  Uiso   1.00
O477   O     0.50000   0.22774   0.53824   0.00000  Uiso   1.00
O478   O     0.42392   0.16666   0.52928   0.00000  Uiso   1.00
O479   O     0.57608   0.16667   0.47072   0.00000  Uiso   1.00
O480   O     0.42392   0.16667   0.45284   0.00000  Uiso   1.00
O481   O     0.57608   0.16666   0.54716   0.00000  Uiso   1.00
O482   O     0.65566   0.19816   0.44791   0.00000  Uiso   1.00
Zn483  Zn    0.50000   0.16666   0.55104   0.00000  Uiso   1.00
Zn484  Zn    0.50000   0.16667   0.44896   0.00000  Uiso   1.00
Br485  Br    0.91218   0.23098   0.62127   0.00000  Uiso   1.00
Br486  Br    0.75449   0.10235   0.37873   0.00000  Uiso   1.00
C487   C     0.83454   0.08683   0.50013   0.00000  Uiso   1.00
C488   C     0.79878   0.02207   0.52275   0.00000  Uiso   1.00
C489   C     0.83096   0.29063   0.49945   0.00000  Uiso   1.00
C490   C     0.83570   0.04270   0.50055   0.00000  Uiso   1.00
C491   C     0.86433   0.19447   0.36205   0.00000  Uiso   1.00
C492   C     0.80234   0.13887   0.63795   0.00000  Uiso   1.00
C493   C     0.86487   0.19414   0.64711   0.00000  Uiso   1.00
C494   C     0.80179   0.13919   0.35289   0.00000  Uiso   1.00
C495   C     0.83213   0.24650   0.49987   0.00000  Uiso   1.00
C496   C     0.73398   0.16747   0.48832   0.00000  Uiso   1.00
C497   C     0.93269   0.16586   0.51168   0.00000  Uiso   1.00
C498   C     0.67959   0.17386   0.48337   0.00000  Uiso   1.00
C499   C     0.98707   0.15948   0.51663   0.00000  Uiso   1.00
C500   C     0.87135   0.02092   0.47811   0.00000  Uiso   1.00
C501   C     0.79531   0.31242   0.52188   0.00000  Uiso   1.00
C502   C     0.86788   0.31126   0.47725   0.00000  Uiso   1.00
H503   H     0.89537   0.29380   0.46062   0.00000  Uiso   1.00
H504   H     0.77129   0.03953   0.53938   0.00000  Uiso   1.00
H505   H     0.68198   0.20869   0.42939   0.00000  Uiso   1.00
H506   H     0.98468   0.12463   0.57059   0.00000  Uiso   1.00
H507   H     0.91715   0.06871   0.47015   0.00000  Uiso   1.00
H508   H     0.74953   0.26462   0.52986   0.00000  Uiso   1.00
H509   H     0.90902   0.24452   0.37381   0.00000  Uiso   1.00
H510   H     0.75764   0.08882   0.62619   0.00000  Uiso   1.00
N511   N     0.83332   0.16666   0.61907   0.00000  Uiso   1.00
N512   N     0.83335   0.16668   0.38093   0.00000  Uiso   1.00
O513   O     0.83333   0.10558   0.53821   0.00000  Uiso   1.00
O514   O     0.67767   0.13517   0.55209   0.00000  Uiso   1.00
O515   O     0.91042   0.03994   0.45792   0.00000  Uiso   1.00
O516   O     0.75623   0.29339   0.54207   0.00000  Uiso   1.00
O517   O     0.89426   0.22212   0.39116   0.00000  Uiso   1.00
O518   O     0.77240   0.11122   0.60883   0.00000  Uiso   1.00
O519   O     0.83334   0.22775   0.46179   0.00000  Uiso   1.00
O520   O     0.83333   0.10559   0.46176   0.00000  Uiso   1.00
O521   O     0.83334   0.22774   0.53824   0.00000  Uiso   1.00
O522   O     0.75725   0.16666   0.52928   0.00000  Uiso   1.00
O523   O     0.90942   0.16667   0.47072   0.00000  Uiso   1.00
O524   O     0.75725   0.16667   0.45284   0.00000  Uiso   1.00
O525   O     0.90942   0.16666   0.54716   0.00000  Uiso   1.00
O526   O     0.98900   0.19816   0.44791   0.00000  Uiso   1.00
Zn527  Zn    0.83333   0.16666   0.55104   0.00000  Uiso   1.00
Zn528  Zn    0.83333   0.16667   0.44896   0.00000  Uiso   1.00
Br529  Br    0.24551   0.56431   0.62127   0.00000  Uiso   1.00
Br530  Br    0.08782   0.43569   0.37873   0.00000  Uiso   1.00
C531   C     0.16787   0.42017   0.50013   0.00000  Uiso   1.00
C532   C     0.13211   0.35541   0.52275   0.00000  Uiso   1.00
C533   C     0.16430   0.62396   0.49945   0.00000  Uiso   1.00
C534   C     0.16903   0.37604   0.50055   0.00000  Uiso   1.00
C535   C     0.19766   0.52780   0.36205   0.00000  Uiso   1.00
C536   C     0.13567   0.47220   0.63795   0.00000  Uiso   1.00
C537   C     0.19820   0.52747   0.64711   0.00000  Uiso   1.00
C538   C     0.13513   0.47253   0.35289   0.00000  Uiso   1.00
C539   C     0.16546   0.57983   0.49987   0.00000  Uiso   1.00
C540   C     0.06731   0.50080   0.48832   0.00000  Uiso   1.00
C541   C     0.26602   0.49920   0.51168   0.00000  Uiso   1.00
C542   C     0.01293   0.50719   0.48337   0.00000  Uiso   1.00
C543   C     0.32041   0.49281   0.51663   0.00000  Uiso   1.00
C544   C     0.20468   0.35425   0.47811   0.00000  Uiso   1.00
C545   C     0.12864   0.64575   0.52188   0.00000  Uiso   1.00
C546   C     0.20121   0.64460   0.47725   0.00000  Uiso   1.00
H547   H     0.22870   0.62714   0.46062   0.00000  Uiso   1.00
H548   H     0.10463   0.37287   0.53938   0.00000  Uiso   1.00
H549   H     0.01532   0.54202   0.42939   0.00000  Uiso   1.00
H550   H     0.31801   0.45797   0.57059   0.00000  Uiso   1.00
H551   H     0.25048   0.40204   0.47015   0.00000  Uiso   1.00
H552   H     0.08286   0.59795   0.52986   0.00000  Uiso   1.00
H553   H     0.24235   0.57785   0.37381   0.00000  Uiso   1.00
H554   H     0.09097   0.42215   0.62619   0.00000  Uiso   1.00
N555   N     0.16665   0.49999   0.61907   0.00000  Uiso   1.00
N556   N     0.16668   0.50001   0.38093   0.00000  Uiso   1.00
O557   O     0.16666   0.43892   0.53821   0.00000  Uiso   1.00
O558   O     0.01100   0.46851   0.55209   0.00000  Uiso   1.00
O559   O     0.24375   0.37328   0.45792   0.00000  Uiso   1.00
O560   O     0.08956   0.62673   0.54207   0.00000  Uiso   1.00
O561   O     0.22760   0.55545   0.39116   0.00000  Uiso   1.00
O562   O     0.10573   0.44455   0.60883   0.00000  Uiso   1.00
O563   O     0.16667   0.56108   0.46179   0.00000  Uiso   1.00
O564   O     0.16666   0.43893   0.46176   0.00000  Uiso   1.00
O565   O     0.16667   0.56107   0.53824   0.00000  Uiso   1.00
O566   O     0.09058   0.50000   0.52928   0.00000  Uiso   1.00
O567   O     0.24275   0.50000   0.47072   0.00000  Uiso   1.00
O568   O     0.09058   0.50000   0.45284   0.00000  Uiso   1.00
O569   O     0.24275   0.50000   0.54716   0.00000  Uiso   1.00
O570   O     0.32233   0.53150   0.44791   0.00000  Uiso   1.00
Zn571  Zn    0.16667   0.49999   0.55104   0.00000  Uiso   1.00
Zn572  Zn    0.16667   0.50001   0.44896   0.00000  Uiso   1.00
Br573  Br    0.57885   0.56431   0.62127   0.00000  Uiso   1.00
Br574  Br    0.42115   0.43569   0.37873   0.00000  Uiso   1.00
C575   C     0.50120   0.42017   0.50013   0.00000  Uiso   1.00
C576   C     0.46545   0.35541   0.52275   0.00000  Uiso   1.00
C577   C     0.49763   0.62396   0.49945   0.00000  Uiso   1.00
C578   C     0.50237   0.37604   0.50055   0.00000  Uiso   1.00
C579   C     0.53099   0.52780   0.36205   0.00000  Uiso   1.00
C580   C     0.46901   0.47220   0.63795   0.00000  Uiso   1.00
C581   C     0.53154   0.52747   0.64711   0.00000  Uiso   1.00
C582   C     0.46846   0.47253   0.35289   0.00000  Uiso   1.00
C583   C     0.49880   0.57983   0.49987   0.00000  Uiso   1.00
C584   C     0.40064   0.50080   0.48832   0.00000  Uiso   1.00
C585   C     0.59936   0.49920   0.51168   0.00000  Uiso   1.00
C586   C     0.34626   0.50719   0.48337   0.00000  Uiso   1.00
C587   C     0.65374   0.49281   0.51663   0.00000  Uiso   1.00
C588   C     0.53802   0.35425   0.47811   0.00000  Uiso   1.00
C589   C     0.46198   0.64575   0.52188   0.00000  Uiso   1.00
C590   C     0.53455   0.64460   0.47725   0.00000  Uiso   1.00
H591   H     0.56203   0.62714   0.46062   0.00000  Uiso   1.00
H592   H     0.43796   0.37287   0.53938   0.00000  Uiso   1.00
H593   H     0.34865   0.54202   0.42939   0.00000  Uiso   1.00
H594   H     0.65134   0.45797   0.57059   0.00000  Uiso   1.00
H595   H     0.58381   0.40204   0.47015   0.00000  Uiso   1.00
H596   H     0.41619   0.59795   0.52986   0.00000  Uiso   1.00
H597   H     0.57569   0.57785   0.37381   0.00000  Uiso   1.00
H598   H     0.42430   0.42215   0.62619   0.00000  Uiso   1.00
N599   N     0.49999   0.49999   0.61907   0.00000  Uiso   1.00
N600   N     0.50001   0.50001   0.38093   0.00000  Uiso   1.00
O601   O     0.50000   0.43892   0.53821   0.00000  Uiso   1.00
O602   O     0.34434   0.46851   0.55209   0.00000  Uiso   1.00
O603   O     0.57709   0.37328   0.45792   0.00000  Uiso   1.00
O604   O     0.42290   0.62673   0.54207   0.00000  Uiso   1.00
O605   O     0.56093   0.55545   0.39116   0.00000  Uiso   1.00
O606   O     0.43907   0.44455   0.60883   0.00000  Uiso   1.00
O607   O     0.50000   0.56108   0.46179   0.00000  Uiso   1.00
O608   O     0.50000   0.43893   0.46176   0.00000  Uiso   1.00
O609   O     0.50000   0.56107   0.53824   0.00000  Uiso   1.00
O610   O     0.42392   0.50000   0.52928   0.00000  Uiso   1.00
O611   O     0.57608   0.50000   0.47072   0.00000  Uiso   1.00
O612   O     0.42392   0.50000   0.45284   0.00000  Uiso   1.00
O613   O     0.57608   0.50000   0.54716   0.00000  Uiso   1.00
O614   O     0.65566   0.53150   0.44791   0.00000  Uiso   1.00
Zn615  Zn    0.50000   0.49999   0.55104   0.00000  Uiso   1.00
Zn616  Zn    0.50000   0.50001   0.44896   0.00000  Uiso   1.00
Br617  Br    0.91218   0.56431   0.62127   0.00000  Uiso   1.00
Br618  Br    0.75449   0.43569   0.37873   0.00000  Uiso   1.00
C619   C     0.83454   0.42017   0.50013   0.00000  Uiso   1.00
C620   C     0.79878   0.35541   0.52275   0.00000  Uiso   1.00
C621   C     0.83096   0.62396   0.49945   0.00000  Uiso   1.00
C622   C     0.83570   0.37604   0.50055   0.00000  Uiso   1.00
C623   C     0.86433   0.52780   0.36205   0.00000  Uiso   1.00
C624   C     0.80234   0.47220   0.63795   0.00000  Uiso   1.00
C625   C     0.86487   0.52747   0.64711   0.00000  Uiso   1.00
C626   C     0.80179   0.47253   0.35289   0.00000  Uiso   1.00
C627   C     0.83213   0.57983   0.49987   0.00000  Uiso   1.00
C628   C     0.73398   0.50080   0.48832   0.00000  Uiso   1.00
C629   C     0.93269   0.49920   0.51168   0.00000  Uiso   1.00
C630   C     0.67959   0.50719   0.48337   0.00000  Uiso   1.00
C631   C     0.98707   0.49281   0.51663   0.00000  Uiso   1.00
C632   C     0.87135   0.35425   0.47811   0.00000  Uiso   1.00
C633   C     0.79531   0.64575   0.52188   0.00000  Uiso   1.00
C634   C     0.86788   0.64460   0.47725   0.00000  Uiso   1.00
H635   H     0.89537   0.62714   0.46062   0.00000  Uiso   1.00
H636   H     0.77129   0.37287   0.53938   0.00000  Uiso   1.00
H637   H     0.68198   0.54202   0.42939   0.00000  Uiso   1.00
H638   H     0.98468   0.45797   0.57059   0.00000  Uiso   1.00
H639   H     0.91715   0.40204   0.47015   0.00000  Uiso   1.00
H640   H     0.74953   0.59795   0.52986   0.00000  Uiso   1.00
H641   H     0.90902   0.57785   0.37381   0.00000  Uiso   1.00
H642   H     0.75764   0.42215   0.62619   0.00000  Uiso   1.00
N643   N     0.83332   0.49999   0.61907   0.00000  Uiso   1.00
N644   N     0.83335   0.50001   0.38093   0.00000  Uiso   1.00
O645   O     0.83333   0.43892   0.53821   0.00000  Uiso   1.00
O646   O     0.67767   0.46851   0.55209   0.00000  Uiso   1.00
O647   O     0.91042   0.37328   0.45792   0.00000  Uiso   1.00
O648   O     0.75623   0.62673   0.54207   0.00000  Uiso   1.00
O649   O     0.89426   0.55545   0.39116   0.00000  Uiso   1.00
O650   O     0.77240   0.44455   0.60883   0.00000  Uiso   1.00
O651   O     0.83334   0.56108   0.46179   0.00000  Uiso   1.00
O652   O     0.83333   0.43893   0.46176   0.00000  Uiso   1.00
O653   O     0.83334   0.56107   0.53824   0.00000  Uiso   1.00
O654   O     0.75725   0.50000   0.52928   0.00000  Uiso   1.00
O655   O     0.90942   0.50000   0.47072   0.00000  Uiso   1.00
O656   O     0.75725   0.50000   0.45284   0.00000  Uiso   1.00
O657   O     0.90942   0.50000   0.54716   0.00000  Uiso   1.00
O658   O     0.98900   0.53150   0.44791   0.00000  Uiso   1.00
Zn659  Zn    0.83333   0.49999   0.55104   0.00000  Uiso   1.00
Zn660  Zn    0.83333   0.50001   0.44896   0.00000  Uiso   1.00
Br661  Br    0.24551   0.89765   0.62127   0.00000  Uiso   1.00
Br662  Br    0.08782   0.76902   0.37873   0.00000  Uiso   1.00
C663   C     0.16787   0.75350   0.50013   0.00000  Uiso   1.00
C664   C     0.13211   0.68874   0.52275   0.00000  Uiso   1.00
C665   C     0.16430   0.95730   0.49945   0.00000  Uiso   1.00
C666   C     0.16903   0.70937   0.50055   0.00000  Uiso   1.00
C667   C     0.19766   0.86113   0.36205   0.00000  Uiso   1.00
C668   C     0.13567   0.80553   0.63795   0.00000  Uiso   1.00
C669   C     0.19820   0.86081   0.64711   0.00000  Uiso   1.00
C670   C     0.13513   0.80586   0.35289   0.00000  Uiso   1.00
C671   C     0.16546   0.91317   0.49987   0.00000  Uiso   1.00
C672   C     0.06731   0.83414   0.48832   0.00000  Uiso   1.00
C673   C     0.26602   0.83253   0.51168   0.00000  Uiso   1.00
C674   C     0.01293   0.84052   0.48337   0.00000  Uiso   1.00
C675   C     0.32041   0.82614   0.51663   0.00000  Uiso   1.00
C676   C     0.20468   0.68758   0.47811   0.00000  Uiso   1.00
C677   C     0.12864   0.97908   0.52188   0.00000  Uiso   1.00
C678   C     0.20121   0.97793   0.47725   0.00000  Uiso   1.00
H679   H     0.22870   0.96047   0.46062   0.00000  Uiso   1.00
H680   H     0.10463   0.70620   0.53938   0.00000  Uiso   1.00
H681   H     0.01532   0.87535   0.42939   0.00000  Uiso   1.00
H682   H     0.31801   0.79130   0.57059   0.00000  Uiso   1.00
H683   H     0.25048   0.73537   0.47015   0.00000  Uiso   1.00
H684   H     0.08286   0.93128   0.52986   0.00000  Uiso   1.00
H685   H     0.24235   0.91119   0.37381   0.00000  Uiso   1.00
H686   H     0.09097   0.75549   0.62619   0.00000  Uiso   1.00
N687   N     0.16665   0.83332   0.61907   0.00000  Uiso   1.00
N688   N     0.16668   0.83334   0.38093   0.00000  Uiso   1.00
O689   O     0.16666   0.77225   0.53821   0.00000  Uiso   1.00
O690   O     0.01100   0.80184   0.55209   0.00000  Uiso   1.00
O691   O     0.24375   0.70661   0.45792   0.00000  Uiso   1.00
O692   O     0.08956   0.96006   0.54207   0.00000  Uiso   1.00
O693   O     0.22760   0.88878   0.39116   0.00000  Uiso   1.00
O694   O     0.10573   0.77788   0.60883   0.00000  Uiso   1.00
O695   O     0.16667   0.89442   0.46179   0.00000  Uiso   1.00
O696   O     0.16666   0.77226   0.46176   0.00000  Uiso   1.00
O697   O     0.16667   0.89441   0.53824   0.00000  Uiso   1.00
O698   O     0.09058   0.83333   0.52928   0.00000  Uiso   1.00
O699   O     0.24275   0.83334   0.47072   0.00000  Uiso   1.00
O700   O     0.09058   0.83334   0.45284   0.00000  Uiso   1.00
O701   O     0.24275   0.83333   0.54716   0.00000  Uiso   1.00
O702   O     0.32233   0.86483   0.44791   0.00000  Uiso   1.00
Zn703  Zn    0.16667   0.83333   0.55104   0.00000  Uiso   1.00
Zn704  Zn    0.16667   0.83334   0.44896   0.00000  Uiso   1.00
Br705  Br    0.57885   0.89765   0.62127   0.00000  Uiso   1.00
Br706  Br    0.42115   0.76902   0.37873   0.00000  Uiso   1.00
C707   C     0.50120   0.75350   0.50013   0.00000  Uiso   1.00
C708   C     0.46545   0.68874   0.52275   0.00000  Uiso   1.00
C709   C     0.49763   0.95730   0.49945   0.00000  Uiso   1.00
C710   C     0.50237   0.70937   0.50055   0.00000  Uiso   1.00
C711   C     0.53099   0.86113   0.36205   0.00000  Uiso   1.00
C712   C     0.46901   0.80553   0.63795   0.00000  Uiso   1.00
C713   C     0.53154   0.86081   0.64711   0.00000  Uiso   1.00
C714   C     0.46846   0.80586   0.35289   0.00000  Uiso   1.00
C715   C     0.49880   0.91317   0.49987   0.00000  Uiso   1.00
C716   C     0.40064   0.83414   0.48832   0.00000  Uiso   1.00
C717   C     0.59936   0.83253   0.51168   0.00000  Uiso   1.00
C718   C     0.34626   0.84052   0.48337   0.00000  Uiso   1.00
C719   C     0.65374   0.82614   0.51663   0.00000  Uiso   1.00
C720   C     0.53802   0.68758   0.47811   0.00000  Uiso   1.00
C721   C     0.46198   0.97908   0.52188   0.00000  Uiso   1.00
C722   C     0.53455   0.97793   0.47725   0.00000  Uiso   1.00
H723   H     0.56203   0.96047   0.46062   0.00000  Uiso   1.00
H724   H     0.43796   0.70620   0.53938   0.00000  Uiso   1.00
H725   H     0.34865   0.87535   0.42939   0.00000  Uiso   1.00
H726   H     0.65134   0.79130   0.57059   0.00000  Uiso   1.00
H727   H     0.58381   0.73537   0.47015   0.00000  Uiso   1.00
H728   H     0.41619   0.93128   0.52986   0.00000  Uiso   1.00
H729   H     0.57569   0.91119   0.37381   0.00000  Uiso   1.00
H730   H     0.42430   0.75549   0.62619   0.00000  Uiso   1.00
N731   N     0.49999   0.83332   0.61907   0.00000  Uiso   1.00
N732   N     0.50001   0.83334   0.38093   0.00000  Uiso   1.00
O733   O     0.50000   0.77225   0.53821   0.00000  Uiso   1.00
O734   O     0.34434   0.80184   0.55209   0.00000  Uiso   1.00
O735   O     0.57709   0.70661   0.45792   0.00000  Uiso   1.00
O736   O     0.42290   0.96006   0.54207   0.00000  Uiso   1.00
O737   O     0.56093   0.88878   0.39116   0.00000  Uiso   1.00
O738   O     0.43907   0.77788   0.60883   0.00000  Uiso   1.00
O739   O     0.50000   0.89442   0.46179   0.00000  Uiso   1.00
O740   O     0.50000   0.77226   0.46176   0.00000  Uiso   1.00
O741   O     0.50000   0.89441   0.53824   0.00000  Uiso   1.00
O742   O     0.42392   0.83333   0.52928   0.00000  Uiso   1.00
O743   O     0.57608   0.83334   0.47072   0.00000  Uiso   1.00
O744   O     0.42392   0.83334   0.45284   0.00000  Uiso   1.00
O745   O     0.57608   0.83333   0.54716   0.00000  Uiso   1.00
O746   O     0.65566   0.86483   0.44791   0.00000  Uiso   1.00
Zn747  Zn    0.50000   0.83333   0.55104   0.00000  Uiso   1.00
Zn748  Zn    0.50000   0.83334   0.44896   0.00000  Uiso   1.00
Br749  Br    0.91218   0.89765   0.62127   0.00000  Uiso   1.00
Br750  Br    0.75449   0.76902   0.37873   0.00000  Uiso   1.00
C751   C     0.83454   0.75350   0.50013   0.00000  Uiso   1.00
C752   C     0.79878   0.68874   0.52275   0.00000  Uiso   1.00
C753   C     0.83096   0.95730   0.49945   0.00000  Uiso   1.00
C754   C     0.83570   0.70937   0.50055   0.00000  Uiso   1.00
C755   C     0.86433   0.86113   0.36205   0.00000  Uiso   1.00
C756   C     0.80234   0.80553   0.63795   0.00000  Uiso   1.00
C757   C     0.86487   0.86081   0.64711   0.00000  Uiso   1.00
C758   C     0.80179   0.80586   0.35289   0.00000  Uiso   1.00
C759   C     0.83213   0.91317   0.49987   0.00000  Uiso   1.00
C760   C     0.73398   0.83414   0.48832   0.00000  Uiso   1.00
C761   C     0.93269   0.83253   0.51168   0.00000  Uiso   1.00
C762   C     0.67959   0.84052   0.48337   0.00000  Uiso   1.00
C763   C     0.98707   0.82614   0.51663   0.00000  Uiso   1.00
C764   C     0.87135   0.68758   0.47811   0.00000  Uiso   1.00
C765   C     0.79531   0.97908   0.52188   0.00000  Uiso   1.00
C766   C     0.86788   0.97793   0.47725   0.00000  Uiso   1.00
H767   H     0.89537   0.96047   0.46062   0.00000  Uiso   1.00
H768   H     0.77129   0.70620   0.53938   0.00000  Uiso   1.00
H769   H     0.68198   0.87535   0.42939   0.00000  Uiso   1.00
H770   H     0.98468   0.79130   0.57059   0.00000  Uiso   1.00
H771   H     0.91715   0.73537   0.47015   0.00000  Uiso   1.00
H772   H     0.74953   0.93128   0.52986   0.00000  Uiso   1.00
H773   H     0.90902   0.91119   0.37381   0.00000  Uiso   1.00
H774   H     0.75764   0.75549   0.62619   0.00000  Uiso   1.00
N775   N     0.83332   0.83332   0.61907   0.00000  Uiso   1.00
N776   N     0.83335   0.83334   0.38093   0.00000  Uiso   1.00
O777   O     0.83333   0.77225   0.53821   0.00000  Uiso   1.00
O778   O     0.67767   0.80184   0.55209   0.00000  Uiso   1.00
O779   O     0.91042   0.70661   0.45792   0.00000  Uiso   1.00
O780   O     0.75623   0.96006   0.54207   0.00000  Uiso   1.00
O781   O     0.89426   0.88878   0.39116   0.00000  Uiso   1.00
O782   O     0.77240   0.77788   0.60883   0.00000  Uiso   1.00
O783   O     0.83334   0.89442   0.46179   0.00000  Uiso   1.00
O784   O     0.83333   0.77226   0.46176   0.00000  Uiso   1.00
O785   O     0.83334   0.89441   0.53824   0.00000  Uiso   1.00
O786   O     0.75725   0.83333   0.52928   0.00000  Uiso   1.00
O787   O     0.90942   0.83334   0.47072   0.00000  Uiso   1.00
O788   O     0.75725   0.83334   0.45284   0.00000  Uiso   1.00
O789   O     0.90942   0.83333   0.54716   0.00000  Uiso   1.00
O790   O     0.98900   0.86483   0.44791   0.00000  Uiso   1.00
Zn791  Zn    0.83333   0.83333   0.55104   0.00000  Uiso   1.00
Zn792  Zn    0.83333   0.83334   0.44896   0.00000  Uiso   1.00
Br793  Br    0.24551   0.23098   0.95461   0.00000  Uiso   1.00
Br794  Br    0.08782   0.10235   0.71206   0.00000  Uiso   1.00
C795   C     0.16787   0.08683   0.83346   0.00000  Uiso   1.00
C796   C     0.13211   0.02207   0.85608   0.00000  Uiso   1.00
C797   C     0.16430   0.29063   0.83278   0.00000  Uiso   1.00
C798   C     0.16903   0.04270   0.83389   0.00000  Uiso   1.00
C799   C     0.19766   0.19447   0.69538   0.00000  Uiso   1.00
C800   C     0.13567   0.13887   0.97128   0.00000  Uiso   1.00
C801   C     0.19820   0.19414   0.98044   0.00000  Uiso   1.00
C802   C     0.13513   0.13919   0.68623   0.00000  Uiso   1.00
C803   C     0.16546   0.24650   0.83320   0.00000  Uiso   1.00
C804   C     0.06731   0.16747   0.82165   0.00000  Uiso   1.00
C805   C     0.26602   0.16586   0.84501   0.00000  Uiso   1.00
C806   C     0.01293   0.17386   0.81671   0.00000  Uiso   1.00
C807   C     0.32041   0.15948   0.84996   0.00000  Uiso   1.00
C808   C     0.20468   0.02092   0.81145   0.00000  Uiso   1.00
C809   C     0.12864   0.31242   0.85522   0.00000  Uiso   1.00
C810   C     0.20121   0.31126   0.81058   0.00000  Uiso   1.00
H811   H     0.22870   0.29380   0.79395   0.00000  Uiso   1.00
H812   H     0.10463   0.03953   0.87271   0.00000  Uiso   1.00
H813   H     0.01532   0.20869   0.76272   0.00000  Uiso   1.00
H814   H     0.31801   0.12463   0.90393   0.00000  Uiso   1.00
H815   H     0.25048   0.06871   0.80348   0.00000  Uiso   1.00
H816   H     0.08286   0.26462   0.86320   0.00000  Uiso   1.00
H817   H     0.24235   0.24452   0.70714   0.00000  Uiso   1.00
H818   H     0.09097   0.08882   0.95952   0.00000  Uiso   1.00
N819   N     0.16665   0.16666   0.95240   0.00000  Uiso   1.00
N820   N     0.16668   0.16668   0.71427   0.00000  Uiso   1.00
O821   O     0.16666   0.10558   0.87154   0.00000  Uiso   1.00
O822   O     0.01100   0.13517   0.88542   0.00000  Uiso   1.00
O823   O     0.24375   0.03994   0.79125   0.00000  Uiso   1.00
O824   O     0.08956   0.29339   0.87541   0.00000  Uiso   1.00
O825   O     0.22760   0.22212   0.72450   0.00000  Uiso   1.00
O826   O     0.10573   0.11122   0.94217   0.00000  Uiso   1.00
O827   O     0.16667   0.22775   0.79513   0.00000  Uiso   1.00
O828   O     0.16666   0.10559   0.79510   0.00000  Uiso   1.00
O829   O     0.16667   0.22774   0.87157   0.00000  Uiso   1.00
O830   O     0.09058   0.16666   0.86261   0.00000  Uiso   1.00
O831   O     0.24275   0.16667   0.80405   0.00000  Uiso   1.00
O832   O     0.09058   0.16667   0.78617   0.00000  Uiso   1.00
O833   O     0.24275   0.16666   0.88050   0.00000  Uiso   1.00
O834   O     0.32233   0.19816   0.78124   0.00000  Uiso   1.00
Zn835  Zn    0.16667   0.16666   0.88437   0.00000  Uiso   1.00
Zn836  Zn    0.16667   0.16667   0.78229   0.00000  Uiso   1.00
Br837  Br    0.57885   0.23098   0.95461   0.00000  Uiso   1.00
Br838  Br    0.42115   0.10235   0.71206   0.00000  Uiso   1.00
C839   C     0.50120   0.08683   0.83346   0.00000  Uiso   1.00
C840   C     0.46545   0.02207   0.85608   0.00000  Uiso   1.00
C841   C     0.49763   0.29063   0.83278   0.00000  Uiso   1.00
C842   C     0.50237   0.04270   0.83389   0.00000  Uiso   1.00
C843   C     0.53099   0.19447   0.69538   0.00000  Uiso   1.00
C844   C     0.46901   0.13887   0.97128   0.00000  Uiso   1.00
C845   C     0.53154   0.19414   0.98044   0.00000  Uiso   1.00
C846   C     0.46846   0.13919   0.68623   0.00000  Uiso   1.00
C847   C     0.49880   0.24650   0.83320   0.00000  Uiso   1.00
C848   C     0.40064   0.16747   0.82165   0.00000  Uiso   1.00
C849   C     0.59936   0.16586   0.84501   0.00000  Uiso   1.00
C850   C     0.34626   0.17386   0.81671   0.00000  Uiso   1.00
C851   C     0.65374   0.15948   0.84996   0.00000  Uiso   1.00
C852   C     0.53802   0.02092   0.81145   0.00000  Uiso   1.00
C853   C     0.46198   0.31242   0.85522   0.00000  Uiso   1.00
C854   C     0.53455   0.31126   0.81058   0.00000  Uiso   1.00
H855   H     0.56203   0.29380   0.79395   0.00000  Uiso   1.00
H856   H     0.43796   0.03953   0.87271   0.00000  Uiso   1.00
H857   H     0.34865   0.20869   0.76272   0.00000  Uiso   1.00
H858   H     0.65134   0.12463   0.90393   0.00000  Uiso   1.00
H859   H     0.58381   0.06871   0.80348   0.00000  Uiso   1.00
H860   H     0.41619   0.26462   0.86320   0.00000  Uiso   1.00
H861   H     0.57569   0.24452   0.70714   0.00000  Uiso   1.00
H862   H     0.42430   0.08882   0.95952   0.00000  Uiso   1.00
N863   N     0.49999   0.16666   0.95240   0.00000  Uiso   1.00
N864   N     0.50001   0.16668   0.71427   0.00000  Uiso   1.00
O865   O     0.50000   0.10558   0.87154   0.00000  Uiso   1.00
O866   O     0.34434   0.13517   0.88542   0.00000  Uiso   1.00
O867   O     0.57709   0.03994   0.79125   0.00000  Uiso   1.00
O868   O     0.42290   0.29339   0.87541   0.00000  Uiso   1.00
O869   O     0.56093   0.22212   0.72450   0.00000  Uiso   1.00
O870   O     0.43907   0.11122   0.94217   0.00000  Uiso   1.00
O871   O     0.50000   0.22775   0.79513   0.00000  Uiso   1.00
O872   O     0.50000   0.10559   0.79510   0.00000  Uiso   1.00
O873   O     0.50000   0.22774   0.87157   0.00000  Uiso   1.00
O874   O     0.42392   0.16666   0.86261   0.00000  Uiso   1.00
O875   O     0.57608   0.16667   0.80405   0.00000  Uiso   1.00
O876   O     0.42392   0.16667   0.78617   0.00000  Uiso   1.00
O877   O     0.57608   0.16666   0.88050   0.00000  Uiso   1.00
O878   O     0.65566   0.19816   0.78124   0.00000  Uiso   1.00
Zn879  Zn    0.50000   0.16666   0.88437   0.00000  Uiso   1.00
Zn880  Zn    0.50000   0.16667   0.78229   0.00000  Uiso   1.00
Br881  Br    0.91218   0.23098   0.95461   0.00000  Uiso   1.00
Br882  Br    0.75449   0.10235   0.71206   0.00000  Uiso   1.00
C883   C     0.83454   0.08683   0.83346   0.00000  Uiso   1.00
C884   C     0.79878   0.02207   0.85608   0.00000  Uiso   1.00
C885   C     0.83096   0.29063   0.83278   0.00000  Uiso   1.00
C886   C     0.83570   0.04270   0.83389   0.00000  Uiso   1.00
C887   C     0.86433   0.19447   0.69538   0.00000  Uiso   1.00
C888   C     0.80234   0.13887   0.97128   0.00000  Uiso   1.00
C889   C     0.86487   0.19414   0.98044   0.00000  Uiso   1.00
C890   C     0.80179   0.13919   0.68623   0.00000  Uiso   1.00
C891   C     0.83213   0.24650   0.83320   0.00000  Uiso   1.00
C892   C     0.73398   0.16747   0.82165   0.00000  Uiso   1.00
C893   C     0.93269   0.16586   0.84501   0.00000  Uiso   1.00
C894   C     0.67959   0.17386   0.81671   0.00000  Uiso   1.00
C895   C     0.98707   0.15948   0.84996   0.00000  Uiso   1.00
C896   C     0.87135   0.02092   0.81145   0.00000  Uiso   1.00
C897   C     0.79531   0.31242   0.85522   0.00000  Uiso   1.00
C898   C     0.86788   0.31126   0.81058   0.00000  Uiso   1.00
H899   H     0.89537   0.29380   0.79395   0.00000  Uiso   1.00
H900   H     0.77129   0.03953   0.87271   0.00000  Uiso   1.00
H901   H     0.68198   0.20869   0.76272   0.00000  Uiso   1.00
H902   H     0.98468   0.12463   0.90393   0.00000  Uiso   1.00
H903   H     0.91715   0.06871   0.80348   0.00000  Uiso   1.00
H904   H     0.74953   0.26462   0.86320   0.00000  Uiso   1.00
H905   H     0.90902   0.24452   0.70714   0.00000  Uiso   1.00
H906   H     0.75764   0.08882   0.95952   0.00000  Uiso   1.00
N907   N     0.83332   0.16666   0.95240   0.00000  Uiso   1.00
N908   N     0.83335   0.16668   0.71427   0.00000  Uiso   1.00
O909   O     0.83333   0.10558   0.87154   0.00000  Uiso   1.00
O910   O     0.67767   0.13517   0.88542   0.00000  Uiso   1.00
O911   O     0.91042   0.03994   0.79125   0.00000  Uiso   1.00
O912   O     0.75623   0.29339   0.87541   0.00000  Uiso   1.00
O913   O     0.89426   0.22212   0.72450   0.00000  Uiso   1.00
O914   O     0.77240   0.11122   0.94217   0.00000  Uiso   1.00
O915   O     0.83334   0.22775   0.79513   0.00000  Uiso   1.00
O916   O     0.83333   0.10559   0.79510   0.00000  Uiso   1.00
O917   O     0.83334   0.22774   0.87157   0.00000  Uiso   1.00
O918   O     0.75725   0.16666   0.86261   0.00000  Uiso   1.00
O919   O     0.90942   0.16667   0.80405   0.00000  Uiso   1.00
O920   O     0.75725   0.16667   0.78617   0.00000  Uiso   1.00
O921   O     0.90942   0.16666   0.88050   0.00000  Uiso   1.00
O922   O     0.98900   0.19816   0.78124   0.00000  Uiso   1.00
Zn923  Zn    0.83333   0.16666   0.88437   0.00000  Uiso   1.00
Zn924  Zn    0.83333   0.16667   0.78229   0.00000  Uiso   1.00
Br925  Br    0.24551   0.56431   0.95461   0.00000  Uiso   1.00
Br926  Br    0.08782   0.43569   0.71206   0.00000  Uiso   1.00
C927   C     0.16787   0.42017   0.83346   0.00000  Uiso   1.00
C928   C     0.13211   0.35541   0.85608   0.00000  Uiso   1.00
C929   C     0.16430   0.62396   0.83278   0.00000  Uiso   1.00
C930   C     0.16903   0.37604   0.83389   0.00000  Uiso   1.00
C931   C     0.19766   0.52780   0.69538   0.00000  Uiso   1.00
C932   C     0.13567   0.47220   0.97128   0.00000  Uiso   1.00
C933   C     0.19820   0.52747   0.98044   0.00000  Uiso   1.00
C934   C     0.13513   0.47253   0.68623   0.00000  Uiso   1.00
C935   C     0.16546   0.57983   0.83320   0.00000  Uiso   1.00
C936   C     0.06731   0.50080   0.82165   0.00000  Uiso   1.00
C937   C     0.26602   0.49920   0.84501   0.00000  Uiso   1.00
C938   C     0.01293   0.50719   0.81671   0.00000  Uiso   1.00
C939   C     0.32041   0.49281   0.84996   0.00000  Uiso   1.00
C940   C     0.20468   0.35425   0.81145   0.00000  Uiso   1.00
C941   C     0.12864   0.64575   0.85522   0.00000  Uiso   1.00
C942   C     0.20121   0.64460   0.81058   0.00000  Uiso   1.00
H943   H     0.22870   0.62714   0.79395   0.00000  Uiso   1.00
H944   H     0.10463   0.37287   0.87271   0.00000  Uiso   1.00
H945   H     0.01532   0.54202   0.76272   0.00000  Uiso   1.00
H946   H     0.31801   0.45797   0.90393   0.00000  Uiso   1.00
H947   H     0.25048   0.40204   0.80348   0.00000  Uiso   1.00
H948   H     0.08286   0.59795   0.86320   0.00000  Uiso   1.00
H949   H     0.24235   0.57785   0.70714   0.00000  Uiso   1.00
H950   H     0.09097   0.42215   0.95952   0.00000  Uiso   1.00
N951   N     0.16665   0.49999   0.95240   0.00000  Uiso   1.00
N952   N     0.16668   0.50001   0.71427   0.00000  Uiso   1.00
O953   O     0.16666   0.43892   0.87154   0.00000  Uiso   1.00
O954   O     0.01100   0.46851   0.88542   0.00000  Uiso   1.00
O955   O     0.24375   0.37328   0.79125   0.00000  Uiso   1.00
O956   O     0.08956   0.62673   0.87541   0.00000  Uiso   1.00
O957   O     0.22760   0.55545   0.72450   0.00000  Uiso   1.00
O958   O     0.10573   0.44455   0.94217   0.00000  Uiso   1.00
O959   O     0.16667   0.56108   0.79513   0.00000  Uiso   1.00
O960   O     0.16666   0.43893   0.79510   0.00000  Uiso   1.00
O961   O     0.16667   0.56107   0.87157   0.00000  Uiso   1.00
O962   O     0.09058   0.50000   0.86261   0.00000  Uiso   1.00
O963   O     0.24275   0.50000   0.80405   0.00000  Uiso   1.00
O964   O     0.09058   0.50000   0.78617   0.00000  Uiso   1.00
O965   O     0.24275   0.50000   0.88050   0.00000  Uiso   1.00
O966   O     0.32233   0.53150   0.78124   0.00000  Uiso   1.00
Zn967  Zn    0.16667   0.49999   0.88437   0.00000  Uiso   1.00
Zn968  Zn    0.16667   0.50001   0.78229   0.00000  Uiso   1.00
Br969  Br    0.57885   0.56431   0.95461   0.00000  Uiso   1.00
Br970  Br    0.42115   0.43569   0.71206   0.00000  Uiso   1.00
C971   C     0.50120   0.42017   0.83346   0.00000  Uiso   1.00
C972   C     0.46545   0.35541   0.85608   0.00000  Uiso   1.00
C973   C     0.49763   0.62396   0.83278   0.00000  Uiso   1.00
C974   C     0.50237   0.37604   0.83389   0.00000  Uiso   1.00
C975   C     0.53099   0.52780   0.69538   0.00000  Uiso   1.00
C976   C     0.46901   0.47220   0.97128   0.00000  Uiso   1.00
C977   C     0.53154   0.52747   0.98044   0.00000  Uiso   1.00
C978   C     0.46846   0.47253   0.68623   0.00000  Uiso   1.00
C979   C     0.49880   0.57983   0.83320   0.00000  Uiso   1.00
C980   C     0.40064   0.50080   0.82165   0.00000  Uiso   1.00
C981   C     0.59936   0.49920   0.84501   0.00000  Uiso   1.00
C982   C     0.34626   0.50719   0.81671   0.00000  Uiso   1.00
C983   C     0.65374   0.49281   0.84996   0.00000  Uiso   1.00
C984   C     0.53802   0.35425   0.81145   0.00000  Uiso   1.00
C985   C     0.46198   0.64575   0.85522   0.00000  Uiso   1.00
C986   C     0.53455   0.64460   0.81058   0.00000  Uiso   1.00
H987   H     0.56203   0.62714   0.79395   0.00000  Uiso   1.00
H988   H     0.43796   0.37287   0.87271   0.00000  Uiso   1.00
H989   H     0.34865   0.54202   0.76272   0.00000  Uiso   1.00
H990   H     0.65134   0.45797   0.90393   0.00000  Uiso   1.00
H991   H     0.58381   0.40204   0.80348   0.00000  Uiso   1.00
H992   H     0.41619   0.59795   0.86320   0.00000  Uiso   1.00
H993   H     0.57569   0.57785   0.70714   0.00000  Uiso   1.00
H994   H     0.42430   0.42215   0.95952   0.00000  Uiso   1.00
N995   N     0.49999   0.49999   0.95240   0.00000  Uiso   1.00
N996   N     0.50001   0.50001   0.71427   0.00000  Uiso   1.00
O997   O     0.50000   0.43892   0.87154   0.00000  Uiso   1.00
O998   O     0.34434   0.46851   0.88542   0.00000  Uiso   1.00
O999   O     0.57709   0.37328   0.79125   0.00000  Uiso   1.00
O1000  O     0.42290   0.62673   0.87541   0.00000  Uiso   1.00
O1001  O     0.56093   0.55545   0.72450   0.00000  Uiso   1.00
O1002  O     0.43907   0.44455   0.94217   0.00000  Uiso   1.00
O1003  O     0.50000   0.56108   0.79513   0.00000  Uiso   1.00
O1004  O     0.50000   0.43893   0.79510   0.00000  Uiso   1.00
O1005  O     0.50000   0.56107   0.87157   0.00000  Uiso   1.00
O1006  O     0.42392   0.50000   0.86261   0.00000  Uiso   1.00
O1007  O     0.57608   0.50000   0.80405   0.00000  Uiso   1.00
O1008  O     0.42392   0.50000   0.78617   0.00000  Uiso   1.00
O1009  O     0.57608   0.50000   0.88050   0.00000  Uiso   1.00
O1010  O     0.65566   0.53150   0.78124   0.00000  Uiso   1.00
Zn1011 Zn    0.50000   0.49999   0.88437   0.00000  Uiso   1.00
Zn1012 Zn    0.50000   0.50001   0.78229   0.00000  Uiso   1.00
Br1013 Br    0.91218   0.56431   0.95461   0.00000  Uiso   1.00
Br1014 Br    0.75449   0.43569   0.71206   0.00000  Uiso   1.00
C1015  C     0.83454   0.42017   0.83346   0.00000  Uiso   1.00
C1016  C     0.79878   0.35541   0.85608   0.00000  Uiso   1.00
C1017  C     0.83096   0.62396   0.83278   0.00000  Uiso   1.00
C1018  C     0.83570   0.37604   0.83389   0.00000  Uiso   1.00
C1019  C     0.86433   0.52780   0.69538   0.00000  Uiso   1.00
C1020  C     0.80234   0.47220   0.97128   0.00000  Uiso   1.00
C1021  C     0.86487   0.52747   0.98044   0.00000  Uiso   1.00
C1022  C     0.80179   0.47253   0.68623   0.00000  Uiso   1.00
C1023  C     0.83213   0.57983   0.83320   0.00000  Uiso   1.00
C1024  C     0.73398   0.50080   0.82165   0.00000  Uiso   1.00
C1025  C     0.93269   0.49920   0.84501   0.00000  Uiso   1.00
C1026  C     0.67959   0.50719   0.81671   0.00000  Uiso   1.00
C1027  C     0.98707   0.49281   0.84996   0.00000  Uiso   1.00
C1028  C     0.87135   0.35425   0.81145   0.00000  Uiso   1.00
C1029  C     0.79531   0.64575   0.85522   0.00000  Uiso   1.00
C1030  C     0.86788   0.64460   0.81058   0.00000  Uiso   1.00
H1031  H     0.89537   0.62714   0.79395   0.00000  Uiso   1.00
H1032  H     0.77129   0.37287   0.87271   0.00000  Uiso   1.00
H1033  H     0.68198   0.54202   0.76272   0.00000  Uiso   1.00
H1034  H     0.98468   0.45797   0.90393   0.00000  Uiso   1.00
H1035  H     0.91715   0.40204   0.80348   0.00000  Uiso   1.00
H1036  H     0.74953   0.59795   0.86320   0.00000  Uiso   1.00
H1037  H     0.90902   0.57785   0.70714   0.00000  Uiso   1.00
H1038  H     0.75764   0.42215   0.95952   0.00000  Uiso   1.00
N1039  N     0.83332   0.49999   0.95240   0.00000  Uiso   1.00
N1040  N     0.83335   0.50001   0.71427   0.00000  Uiso   1.00
O1041  O     0.83333   0.43892   0.87154   0.00000  Uiso   1.00
O1042  O     0.67767   0.46851   0.88542   0.00000  Uiso   1.00
O1043  O     0.91042   0.37328   0.79125   0.00000  Uiso   1.00
O1044  O     0.75623   0.62673   0.87541   0.00000  Uiso   1.00
O1045  O     0.89426   0.55545   0.72450   0.00000  Uiso   1.00
O1046  O     0.77240   0.44455   0.94217   0.00000  Uiso   1.00
O1047  O     0.83334   0.56108   0.79513   0.00000  Uiso   1.00
O1048  O     0.83333   0.43893   0.79510   0.00000  Uiso   1.00
O1049  O     0.83334   0.56107   0.87157   0.00000  Uiso   1.00
O1050  O     0.75725   0.50000   0.86261   0.00000  Uiso   1.00
O1051  O     0.90942   0.50000   0.80405   0.00000  Uiso   1.00
O1052  O     0.75725   0.50000   0.78617   0.00000  Uiso   1.00
O1053  O     0.90942   0.50000   0.88050   0.00000  Uiso   1.00
O1054  O     0.98900   0.53150   0.78124   0.00000  Uiso   1.00
Zn1055 Zn    0.83333   0.49999   0.88437   0.00000  Uiso   1.00
Zn1056 Zn    0.83333   0.50001   0.78229   0.00000  Uiso   1.00
Br1057 Br    0.24551   0.89765   0.95461   0.00000  Uiso   1.00
Br1058 Br    0.08782   0.76902   0.71206   0.00000  Uiso   1.00
C1059  C     0.16787   0.75350   0.83346   0.00000  Uiso   1.00
C1060  C     0.13211   0.68874   0.85608   0.00000  Uiso   1.00
C1061  C     0.16430   0.95730   0.83278   0.00000  Uiso   1.00
C1062  C     0.16903   0.70937   0.83389   0.00000  Uiso   1.00
C1063  C     0.19766   0.86113   0.69538   0.00000  Uiso   1.00
C1064  C     0.13567   0.80553   0.97128   0.00000  Uiso   1.00
C1065  C     0.19820   0.86081   0.98044   0.00000  Uiso   1.00
C1066  C     0.13513   0.80586   0.68623   0.00000  Uiso   1.00
C1067  C     0.16546   0.91317   0.83320   0.00000  Uiso   1.00
C1068  C     0.06731   0.83414   0.82165   0.00000  Uiso   1.00
C1069  C     0.26602   0.83253   0.84501   0.00000  Uiso   1.00
C1070  C     0.01293   0.84052   0.81671   0.00000  Uiso   1.00
C1071  C     0.32041   0.82614   0.84996   0.00000  Uiso   1.00
C1072  C     0.20468   0.68758   0.81145   0.00000  Uiso   1.00
C1073  C     0.12864   0.97908   0.85522   0.00000  Uiso   1.00
C1074  C     0.20121   0.97793   0.81058   0.00000  Uiso   1.00
H1075  H     0.22870   0.96047   0.79395   0.00000  Uiso   1.00
H1076  H     0.10463   0.70620   0.87271   0.00000  Uiso   1.00
H1077  H     0.01532   0.87535   0.76272   0.00000  Uiso   1.00
H1078  H     0.31801   0.79130   0.90393   0.00000  Uiso   1.00
H1079  H     0.25048   0.73537   0.80348   0.00000  Uiso   1.00
H1080  H     0.08286   0.93128   0.86320   0.00000  Uiso   1.00
H1081  H     0.24235   0.91119   0.70714   0.00000  Uiso   1.00
H1082  H     0.09097   0.75549   0.95952   0.00000  Uiso   1.00
N1083  N     0.16665   0.83332   0.95240   0.00000  Uiso   1.00
N1084  N     0.16668   0.83334   0.71427   0.00000  Uiso   1.00
O1085  O     0.16666   0.77225   0.87154   0.00000  Uiso   1.00
O1086  O     0.01100   0.80184   0.88542   0.00000  Uiso   1.00
O1087  O     0.24375   0.70661   0.79125   0.00000  Uiso   1.00
O1088  O     0.08956   0.96006   0.87541   0.00000  Uiso   1.00
O1089  O     0.22760   0.88878   0.72450   0.00000  Uiso   1.00
O1090  O     0.10573   0.77788   0.94217   0.00000  Uiso   1.00
O1091  O     0.16667   0.89442   0.79513   0.00000  Uiso   1.00
O1092  O     0.16666   0.77226   0.79510   0.00000  Uiso   1.00
O1093  O     0.16667   0.89441   0.87157   0.00000  Uiso   1.00
O1094  O     0.09058   0.83333   0.86261   0.00000  Uiso   1.00
O1095  O     0.24275   0.83334   0.80405   0.00000  Uiso   1.00
O1096  O     0.09058   0.83334   0.78617   0.00000  Uiso   1.00
O1097  O     0.24275   0.83333   0.88050   0.00000  Uiso   1.00
O1098  O     0.32233   0.86483   0.78124   0.00000  Uiso   1.00
Zn1099 Zn    0.16667   0.83333   0.88437   0.00000  Uiso   1.00
Zn1100 Zn    0.16667   0.83334   0.78229   0.00000  Uiso   1.00
Br1101 Br    0.57885   0.89765   0.95461   0.00000  Uiso   1.00
Br1102 Br    0.42115   0.76902   0.71206   0.00000  Uiso   1.00
C1103  C     0.50120   0.75350   0.83346   0.00000  Uiso   1.00
C1104  C     0.46545   0.68874   0.85608   0.00000  Uiso   1.00
C1105  C     0.49763   0.95730   0.83278   0.00000  Uiso   1.00
C1106  C     0.50237   0.70937   0.83389   0.00000  Uiso   1.00
C1107  C     0.53099   0.86113   0.69538   0.00000  Uiso   1.00
C1108  C     0.46901   0.80553   0.97128   0.00000  Uiso   1.00
C1109  C     0.53154   0.86081   0.98044   0.00000  Uiso   1.00
C1110  C     0.46846   0.80586   0.68623   0.00000  Uiso   1.00
C1111  C     0.49880   0.91317   0.83320   0.00000  Uiso   1.00
C1112  C     0.40064   0.83414   0.82165   0.00000  Uiso   1.00
C1113  C     0.59936   0.83253   0.84501   0.00000  Uiso   1.00
C1114  C     0.34626   0.84052   0.81671   0.00000  Uiso   1.00
C1115  C     0.65374   0.82614   0.84996   0.00000  Uiso   1.00
C1116  C     0.53802   0.68758   0.81145   0.00000  Uiso   1.00
C1117  C     0.46198   0.97908   0.85522   0.00000  Uiso   1.00
C1118  C     0.53455   0.97793   0.81058   0.00000  Uiso   1.00
H1119  H     0.56203   0.96047   0.79395   0.00000  Uiso   1.00
H1120  H     0.43796   0.70620   0.87271   0.00000  Uiso   1.00
H1121  H     0.34865   0.87535   0.76272   0.00000  Uiso   1.00
H1122  H     0.65134   0.79130   0.90393   0.00000  Uiso   1.00
H1123  H     0.58381   0.73537   0.80348   0.00000  Uiso   1.00
H1124  H     0.41619   0.93128   0.86320   0.00000  Uiso   1.00
H1125  H     0.57569   0.91119   0.70714   0.00000  Uiso   1.00
H1126  H     0.42430   0.75549   0.95952   0.00000  Uiso   1.00
N1127  N     0.49999   0.83332   0.95240   0.00000  Uiso   1.00
N1128  N     0.50001   0.83334   0.71427   0.00000  Uiso   1.00
O1129  O     0.50000   0.77225   0.87154   0.00000  Uiso   1.00
O1130  O     0.34434   0.80184   0.88542   0.00000  Uiso   1.00
O1131  O     0.57709   0.70661   0.79125   0.00000  Uiso   1.00
O1132  O     0.42290   0.96006   0.87541   0.00000  Uiso   1.00
O1133  O     0.56093   0.88878   0.72450   0.00000  Uiso   1.00
O1134  O     0.43907   0.77788   0.94217   0.00000  Uiso   1.00
O1135  O     0.50000   0.89442   0.79513   0.00000  Uiso   1.00
O1136  O     0.50000   0.77226   0.79510   0.00000  Uiso   1.00
O1137  O     0.50000   0.89441   0.87157   0.00000  Uiso   1.00
O1138  O     0.42392   0.83333   0.86261   0.00000  Uiso   1.00
O1139  O     0.57608   0.83334   0.80405   0.00000  Uiso   1.00
O1140  O     0.42392   0.83334   0.78617   0.00000  Uiso   1.00
O1141  O     0.57608   0.83333   0.88050   0.00000  Uiso   1.00
O1142  O     0.65566   0.86483   0.78124   0.00000  Uiso   1.00
Zn1143 Zn    0.50000   0.83333   0.88437   0.00000  Uiso   1.00
Zn1144 Zn    0.50000   0.83334   0.78229   0.00000  Uiso   1.00
Br1145 Br    0.91218   0.89765   0.95461   0.00000  Uiso   1.00
Br1146 Br    0.75449   0.76902   0.71206   0.00000  Uiso   1.00
C1147  C     0.83454   0.75350   0.83346   0.00000  Uiso   1.00
C1148  C     0.79878   0.68874   0.85608   0.00000  Uiso   1.00
C1149  C     0.83096   0.95730   0.83278   0.00000  Uiso   1.00
C1150  C     0.83570   0.70937   0.83389   0.00000  Uiso   1.00
C1151  C     0.86433   0.86113   0.69538   0.00000  Uiso   1.00
C1152  C     0.80234   0.80553   0.97128   0.00000  Uiso   1.00
C1153  C     0.86487   0.86081   0.98044   0.00000  Uiso   1.00
C1154  C     0.80179   0.80586   0.68623   0.00000  Uiso   1.00
C1155  C     0.83213   0.91317   0.83320   0.00000  Uiso   1.00
C1156  C     0.73398   0.83414   0.82165   0.00000  Uiso   1.00
C1157  C     0.93269   0.83253   0.84501   0.00000  Uiso   1.00
C1158  C     0.67959   0.84052   0.81671   0.00000  Uiso   1.00
C1159  C     0.98707   0.82614   0.84996   0.00000  Uiso   1.00
C1160  C     0.87135   0.68758   0.81145   0.00000  Uiso   1.00
C1161  C     0.79531   0.97908   0.85522   0.00000  Uiso   1.00
C1162  C     0.86788   0.97793   0.81058   0.00000  Uiso   1.00
H1163  H     0.89537   0.96047   0.79395   0.00000  Uiso   1.00
H1164  H     0.77129   0.70620   0.87271   0.00000  Uiso   1.00
H1165  H     0.68198   0.87535   0.76272   0.00000  Uiso   1.00
H1166  H     0.98468   0.79130   0.90393   0.00000  Uiso   1.00
H1167  H     0.91715   0.73537   0.80348   0.00000  Uiso   1.00
H1168  H     0.74953   0.93128   0.86320   0.00000  Uiso   1.00
H1169  H     0.90902   0.91119   0.70714   0.00000  Uiso   1.00
H1170  H     0.75764   0.75549   0.95952   0.00000  Uiso   1.00
N1171  N     0.83332   0.83332   0.95240   0.00000  Uiso   1.00
N1172  N     0.83335   0.83334   0.71427   0.00000  Uiso   1.00
O1173  O     0.83333   0.77225   0.87154   0.00000  Uiso   1.00
O1174  O     0.67767   0.80184   0.88542   0.00000  Uiso   1.00
O1175  O     0.91042   0.70661   0.79125   0.00000  Uiso   1.00
O1176  O     0.75623   0.96006   0.87541   0.00000  Uiso   1.00
O1177  O     0.89426   0.88878   0.72450   0.00000  Uiso   1.00
O1178  O     0.77240   0.77788   0.94217   0.00000  Uiso   1.00
O1179  O     0.83334   0.89442   0.79513   0.00000  Uiso   1.00
O1180  O     0.83333   0.77226   0.79510   0.00000  Uiso   1.00
O1181  O     0.83334   0.89441   0.87157   0.00000  Uiso   1.00
O1182  O     0.75725   0.83333   0.86261   0.00000  Uiso   1.00
O1183  O     0.90942   0.83334   0.80405   0.00000  Uiso   1.00
O1184  O     0.75725   0.83334   0.78617   0.00000  Uiso   1.00
O1185  O     0.90942   0.83333   0.88050   0.00000  Uiso   1.00
O1186  O     0.98900   0.86483   0.78124   0.00000  Uiso   1.00
Zn1187 Zn    0.83333   0.83333   0.88437   0.00000  Uiso   1.00
Zn1188 Zn    0.83333   0.83334   0.78229   0.00000  Uiso   1.00
loop_
_geom_bond_atom_site_label_1
_geom_bond_atom_site_label_2
_geom_bond_distance
_geom_bond_site_symmetry_2
_ccdc_geom_bond_type
Br1    C9      1.924   .     S
Br2    C10     1.924   .     S
C3     C6      1.409   .     S
C3     O36     1.286   .     A
C3     O29     1.283   .     A
C4     C6      1.395   .     A
C4     H20     1.085   .     S
C4     C281    1.373   1_545 S
C5     C11     1.409   .     S
C5     C17     1.408   .     A
C5     C18     1.395   .     A
C6     C16     1.408   .     A
C7     O33     1.379   .     S
C7     N28     1.361   .     A
C7     C801    1.436   1_554 S
C8     O34     1.379   .     S
C8     N27     1.361   .     A
C8     C406    1.436   .     S
C9     N27     1.379   .     A
C9     C403    1.436   .     S
C10    N28     1.379   .     A
C10    C800    1.436   1_554 S
C11    O37     1.286   .     A
C11    O35     1.283   .     A
C12    O40     1.289   .     A
C12    C14     1.415   .     S
C12    O38     1.278   .     A
C13    O41     1.289   .     A
C13    C15     1.415   .     S
C13    O39     1.278   .     A
C14    C103    1.349   1_455 S
C14    O130    1.389   1_455 S
C15    C58     1.349   .     S
C15    O74     1.389   .     S
C16    O31     1.382   .     S
C16    C282    1.373   1_545 S
C17    O32     1.382   .     S
C17    C136    1.373   .     S
C18    H19     1.085   .     S
C18    C148    1.373   .     S
H21    O130    0.991   1_455 S
H22    O74     0.991   .     S
H23    O31     0.989   .     S
H24    O32     0.989   .     S
H25    O33     0.986   .     S
H26    O34     0.986   .     S
N27    Zn43    2.021   .     S
N28    Zn44    2.021   .     S
O29    Zn43    1.985   .     S
O30    H110    0.991   1_455 S
O30    C103    1.389   1_455 S
O35    Zn44    1.985   .     S
O36    Zn44    1.987   .     S
O37    Zn43    1.987   .     S
O38    Zn43    1.985   .     S
O39    Zn44    1.985   .     S
O40    Zn44    1.993   .     S
O41    Zn43    1.993   .     S
O42    H65     0.991   .     S
O42    C58     1.389   .     S
Br45   C53     1.924   .     S
Br46   C54     1.924   .     S
C47    C50     1.409   .     S
C47    O80     1.286   .     A
C47    O73     1.283   .     A
C48    C50     1.395   .     A
C48    H64     1.085   .     S
C48    C325    1.373   1_545 S
C49    C55     1.409   .     S
C49    C61     1.408   .     A
C49    C62     1.395   .     A
C50    C60     1.408   .     A
C51    O77     1.379   .     S
C51    N72     1.361   .     A
C51    C845    1.436   1_554 S
C52    O78     1.379   .     S
C52    N71     1.361   .     A
C52    C450    1.436   .     S
C53    N71     1.379   .     A
C53    C447    1.436   .     S
C54    N72     1.379   .     A
C54    C844    1.436   1_554 S
C55    O81     1.286   .     A
C55    O79     1.283   .     A
C56    O84     1.289   .     A
C56    C58     1.415   .     S
C56    O82     1.278   .     A
C57    O85     1.289   .     A
C57    C59     1.415   .     S
C57    O83     1.278   .     A
C59    C102    1.349   .     S
C59    O118    1.389   .     S
C60    O75     1.382   .     S
C60    C326    1.373   1_545 S
C61    O76     1.382   .     S
C61    C180    1.373   .     S
C62    H63     1.085   .     S
C62    C192    1.373   .     S
H66    O118    0.991   .     S
H67    O75     0.989   .     S
H68    O76     0.989   .     S
H69    O77     0.986   .     S
H70    O78     0.986   .     S
N71    Zn87    2.021   .     S
N72    Zn88    2.021   .     S
O73    Zn87    1.985   .     S
O79    Zn88    1.985   .     S
O80    Zn88    1.987   .     S
O81    Zn87    1.987   .     S
O82    Zn87    1.985   .     S
O83    Zn88    1.985   .     S
O84    Zn88    1.993   .     S
O85    Zn87    1.993   .     S
O86    H109    0.991   .     S
O86    C102    1.389   .     S
Br89   C97     1.924   .     S
Br90   C98     1.924   .     S
C91    C94     1.409   .     S
C91    O124    1.286   .     A
C91    O117    1.283   .     A
C92    C94     1.395   .     A
C92    H108    1.085   .     S
C92    C369    1.373   1_545 S
C93    C99     1.409   .     S
C93    C105    1.408   .     A
C93    C106    1.395   .     A
C94    C104    1.408   .     A
C95    O121    1.379   .     S
C95    N116    1.361   .     A
C95    C889    1.436   1_554 S
C96    O122    1.379   .     S
C96    N115    1.361   .     A
C96    C494    1.436   .     S
C97    N115    1.379   .     A
C97    C491    1.436   .     S
C98    N116    1.379   .     A
C98    C888    1.436   1_554 S
C99    O125    1.286   .     A
C99    O123    1.283   .     A
C100   O128    1.289   .     A
C100   C102    1.415   .     S
C100   O126    1.278   .     A
C101   O129    1.289   .     A
C101   C103    1.415   .     S
C101   O127    1.278   .     A
C103   C14     1.349   1_655 S
C103   O30     1.389   1_655 S
C104   O119    1.382   .     S
C104   C370    1.373   1_545 S
C105   O120    1.382   .     S
C105   C224    1.373   .     S
C106   H107    1.085   .     S
C106   C236    1.373   .     S
H110   O30     0.991   1_655 S
H111   O119    0.989   .     S
H112   O120    0.989   .     S
H113   O121    0.986   .     S
H114   O122    0.986   .     S
N115   Zn131   2.021   .     S
N116   Zn132   2.021   .     S
O117   Zn131   1.985   .     S
O123   Zn132   1.985   .     S
O124   Zn132   1.987   .     S
O125   Zn131   1.987   .     S
O126   Zn131   1.985   .     S
O127   Zn132   1.985   .     S
O128   Zn132   1.993   .     S
O129   Zn131   1.993   .     S
O130   H21     0.991   1_655 S
O130   C14     1.389   1_655 S
Br133  C141    1.924   .     S
Br134  C142    1.924   .     S
C135   C138    1.409   .     S
C135   O168    1.286   .     A
C135   O161    1.283   .     A
C136   C138    1.395   .     A
C136   H152    1.085   .     S
C137   C143    1.409   .     S
C137   C149    1.408   .     A
C137   C150    1.395   .     A
C138   C148    1.408   .     A
C139   O165    1.379   .     S
C139   N160    1.361   .     A
C139   C933    1.436   1_554 S
C140   O166    1.379   .     S
C140   N159    1.361   .     A
C140   C538    1.436   .     S
C141   N159    1.379   .     A
C141   C535    1.436   .     S
C142   N160    1.379   .     A
C142   C932    1.436   1_554 S
C143   O169    1.286   .     A
C143   O167    1.283   .     A
C144   O172    1.289   .     A
C144   C146    1.415   .     S
C144   O170    1.278   .     A
C145   O173    1.289   .     A
C145   C147    1.415   .     S
C145   O171    1.278   .     A
C146   C235    1.349   1_455 S
C146   O262    1.389   1_455 S
C147   C190    1.349   .     S
C147   O206    1.389   .     S
C148   O163    1.382   .     S
C149   O164    1.382   .     S
C149   C268    1.373   .     S
C150   H151    1.085   .     S
C150   C280    1.373   .     S
H153   O262    0.991   1_455 S
H154   O206    0.991   .     S
H155   O163    0.989   .     S
H156   O164    0.989   .     S
H157   O165    0.986   .     S
H158   O166    0.986   .     S
N159   Zn175   2.021   .     S
N160   Zn176   2.021   .     S
O161   Zn175   1.985   .     S
O162   H242    0.991   1_455 S
O162   C235    1.389   1_455 S
O167   Zn176   1.985   .     S
O168   Zn176   1.987   .     S
O169   Zn175   1.987   .     S
O170   Zn175   1.985   .     S
O171   Zn176   1.985   .     S
O172   Zn176   1.993   .     S
O173   Zn175   1.993   .     S
O174   H197    0.991   .     S
O174   C190    1.389   .     S
Br177  C185    1.924   .     S
Br178  C186    1.924   .     S
C179   C182    1.409   .     S
C179   O212    1.286   .     A
C179   O205    1.283   .     A
C180   C182    1.395   .     A
C180   H196    1.085   .     S
C181   C187    1.409   .     S
C181   C193    1.408   .     A
C181   C194    1.395   .     A
C182   C192    1.408   .     A
C183   O209    1.379   .     S
C183   N204    1.361   .     A
C183   C977    1.436   1_554 S
C184   O210    1.379   .     S
C184   N203    1.361   .     A
C184   C582    1.436   .     S
C185   N203    1.379   .     A
C185   C579    1.436   .     S
C186   N204    1.379   .     A
C186   C976    1.436   1_554 S
C187   O213    1.286   .     A
C187   O211    1.283   .     A
C188   O216    1.289   .     A
C188   C190    1.415   .     S
C188   O214    1.278   .     A
C189   O217    1.289   .     A
C189   C191    1.415   .     S
C189   O215    1.278   .     A
C191   C234    1.349   .     S
C191   O250    1.389   .     S
C192   O207    1.382   .     S
C193   O208    1.382   .     S
C193   C312    1.373   .     S
C194   H195    1.085   .     S
C194   C324    1.373   .     S
H198   O250    0.991   .     S
H199   O207    0.989   .     S
H200   O208    0.989   .     S
H201   O209    0.986   .     S
H202   O210    0.986   .     S
N203   Zn219   2.021   .     S
N204   Zn220   2.021   .     S
O205   Zn219   1.985   .     S
O211   Zn220   1.985   .     S
O212   Zn220   1.987   .     S
O213   Zn219   1.987   .     S
O214   Zn219   1.985   .     S
O215   Zn220   1.985   .     S
O216   Zn220   1.993   .     S
O217   Zn219   1.993   .     S
O218   H241    0.991   .     S
O218   C234    1.389   .     S
Br221  C229    1.924   .     S
Br222  C230    1.924   .     S
C223   C226    1.409   .     S
C223   O256    1.286   .     A
C223   O249    1.283   .     A
C224   C226    1.395   .     A
C224   H240    1.085   .     S
C225   C231    1.409   .     S
C225   C237    1.408   .     A
C225   C238    1.395   .     A
C226   C236    1.408   .     A
C227   O253    1.379   .     S
C227   N248    1.361   .     A
C227   C1021   1.436   1_554 S
C228   O254    1.379   .     S
C228   N247    1.361   .     A
C228   C626    1.436   .     S
C229   N247    1.379   .     A
C229   C623    1.436   .     S
C230   N248    1.379   .     A
C230   C1020   1.436   1_554 S
C231   O257    1.286   .     A
C231   O255    1.283   .     A
C232   O260    1.289   .     A
C232   C234    1.415   .     S
C232   O258    1.278   .     A
C233   O261    1.289   .     A
C233   C235    1.415   .     S
C233   O259    1.278   .     A
C235   C146    1.349   1_655 S
C235   O162    1.389   1_655 S
C236   O251    1.382   .     S
C237   O252    1.382   .     S
C237   C356    1.373   .     S
C238   H239    1.085   .     S
C238   C368    1.373   .     S
H242   O162    0.991   1_655 S
H243   O251    0.989   .     S
H244   O252    0.989   .     S
H245   O253    0.986   .     S
H246   O254    0.986   .     S
N247   Zn263   2.021   .     S
N248   Zn264   2.021   .     S
O249   Zn263   1.985   .     S
O255   Zn264   1.985   .     S
O256   Zn264   1.987   .     S
O257   Zn263   1.987   .     S
O258   Zn263   1.985   .     S
O259   Zn264   1.985   .     S
O260   Zn264   1.993   .     S
O261   Zn263   1.993   .     S
O262   H153    0.991   1_655 S
O262   C146    1.389   1_655 S
Br265  C273    1.924   .     S
Br266  C274    1.924   .     S
C267   C270    1.409   .     S
C267   O300    1.286   .     A
C267   O293    1.283   .     A
C268   C270    1.395   .     A
C268   H284    1.085   .     S
C269   C275    1.409   .     S
C269   C281    1.408   .     A
C269   C282    1.395   .     A
C270   C280    1.408   .     A
C271   O297    1.379   .     S
C271   N292    1.361   .     A
C271   C1065   1.436   1_554 S
C272   O298    1.379   .     S
C272   N291    1.361   .     A
C272   C670    1.436   .     S
C273   N291    1.379   .     A
C273   C667    1.436   .     S
C274   N292    1.379   .     A
C274   C1064   1.436   1_554 S
C275   O301    1.286   .     A
C275   O299    1.283   .     A
C276   O304    1.289   .     A
C276   C278    1.415   .     S
C276   O302    1.278   .     A
C277   O305    1.289   .     A
C277   C279    1.415   .     S
C277   O303    1.278   .     A
C278   C367    1.349   1_455 S
C278   O394    1.389   1_455 S
C279   C322    1.349   .     S
C279   O338    1.389   .     S
C280   O295    1.382   .     S
C281   O296    1.382   .     S
C281   C4      1.373   1_565 S
C282   H283    1.085   .     S
C282   C16     1.373   1_565 S
H285   O394    0.991   1_455 S
H286   O338    0.991   .     S
H287   O295    0.989   .     S
H288   O296    0.989   .     S
H289   O297    0.986   .     S
H290   O298    0.986   .     S
N291   Zn307   2.021   .     S
N292   Zn308   2.021   .     S
O293   Zn307   1.985   .     S
O294   H374    0.991   1_455 S
O294   C367    1.389   1_455 S
O299   Zn308   1.985   .     S
O300   Zn308   1.987   .     S
O301   Zn307   1.987   .     S
O302   Zn307   1.985   .     S
O303   Zn308   1.985   .     S
O304   Zn308   1.993   .     S
O305   Zn307   1.993   .     S
O306   H329    0.991   .     S
O306   C322    1.389   .     S
Br309  C317    1.924   .     S
Br310  C318    1.924   .     S
C311   C314    1.409   .     S
C311   O344    1.286   .     A
C311   O337    1.283   .     A
C312   C314    1.395   .     A
C312   H328    1.085   .     S
C313   C319    1.409   .     S
C313   C325    1.408   .     A
C313   C326    1.395   .     A
C314   C324    1.408   .     A
C315   O341    1.379   .     S
C315   N336    1.361   .     A
C315   C1109   1.436   1_554 S
C316   O342    1.379   .     S
C316   N335    1.361   .     A
C316   C714    1.436   .     S
C317   N335    1.379   .     A
C317   C711    1.436   .     S
C318   N336    1.379   .     A
C318   C1108   1.436   1_554 S
C319   O345    1.286   .     A
C319   O343    1.283   .     A
C320   O348    1.289   .     A
C320   C322    1.415   .     S
C320   O346    1.278   .     A
C321   O349    1.289   .     A
C321   C323    1.415   .     S
C321   O347    1.278   .     A
C323   C366    1.349   .     S
C323   O382    1.389   .     S
C324   O339    1.382   .     S
C325   O340    1.382   .     S
C325   C48     1.373   1_565 S
C326   H327    1.085   .     S
C326   C60     1.373   1_565 S
H330   O382    0.991   .     S
H331   O339    0.989   .     S
H332   O340    0.989   .     S
H333   O341    0.986   .     S
H334   O342    0.986   .     S
N335   Zn351   2.021   .     S
N336   Zn352   2.021   .     S
O337   Zn351   1.985   .     S
O343   Zn352   1.985   .     S
O344   Zn352   1.987   .     S
O345   Zn351   1.987   .     S
O346   Zn351   1.985   .     S
O347   Zn352   1.985   .     S
O348   Zn352   1.993   .     S
O349   Zn351   1.993   .     S
O350   H373    0.991   .     S
O350   C366    1.389   .     S
Br353  C361    1.924   .     S
Br354  C362    1.924   .     S
C355   C358    1.409   .     S
C355   O388    1.286   .     A
C355   O381    1.283   .     A
C356   C358    1.395   .     A
C356   H372    1.085   .     S
C357   C363    1.409   .     S
C357   C369    1.408   .     A
C357   C370    1.395   .     A
C358   C368    1.408   .     A
C359   O385    1.379   .     S
C359   N380    1.361   .     A
C359   C1153   1.436   1_554 S
C360   O386    1.379   .     S
C360   N379    1.361   .     A
C360   C758    1.436   .     S
C361   N379    1.379   .     A
C361   C755    1.436   .     S
C362   N380    1.379   .     A
C362   C1152   1.436   1_554 S
C363   O389    1.286   .     A
C363   O387    1.283   .     A
C364   O392    1.289   .     A
C364   C366    1.415   .     S
C364   O390    1.278   .     A
C365   O393    1.289   .     A
C365   C367    1.415   .     S
C365   O391    1.278   .     A
C367   C278    1.349   1_655 S
C367   O294    1.389   1_655 S
C368   O383    1.382   .     S
C369   O384    1.382   .     S
C369   C92     1.373   1_565 S
C370   H371    1.085   .     S
C370   C104    1.373   1_565 S
H374   O294    0.991   1_655 S
H375   O383    0.989   .     S
H376   O384    0.989   .     S
H377   O385    0.986   .     S
H378   O386    0.986   .     S
N379   Zn395   2.021   .     S
N380   Zn396   2.021   .     S
O381   Zn395   1.985   .     S
O387   Zn396   1.985   .     S
O388   Zn396   1.987   .     S
O389   Zn395   1.987   .     S
O390   Zn395   1.985   .     S
O391   Zn396   1.985   .     S
O392   Zn396   1.993   .     S
O393   Zn395   1.993   .     S
O394   H285    0.991   1_655 S
O394   C278    1.389   1_655 S
Br397  C405    1.924   .     S
Br398  C406    1.924   .     S
C399   C402    1.409   .     S
C399   O432    1.286   .     A
C399   O425    1.283   .     A
C400   C402    1.395   .     A
C400   H416    1.085   .     S
C400   C677    1.373   1_545 S
C401   C407    1.409   .     S
C401   C413    1.408   .     A
C401   C414    1.395   .     A
C402   C412    1.408   .     A
C403   O429    1.379   .     S
C403   N424    1.361   .     A
C404   O430    1.379   .     S
C404   N423    1.361   .     A
C404   C802    1.436   .     S
C405   N423    1.379   .     A
C405   C799    1.436   .     S
C406   N424    1.379   .     A
C407   O433    1.286   .     A
C407   O431    1.283   .     A
C408   O436    1.289   .     A
C408   C410    1.415   .     S
C408   O434    1.278   .     A
C409   O437    1.289   .     A
C409   C411    1.415   .     S
C409   O435    1.278   .     A
C410   C499    1.349   1_455 S
C410   O526    1.389   1_455 S
C411   C454    1.349   .     S
C411   O470    1.389   .     S
C412   O427    1.382   .     S
C412   C678    1.373   1_545 S
C413   O428    1.382   .     S
C413   C532    1.373   .     S
C414   H415    1.085   .     S
C414   C544    1.373   .     S
H417   O526    0.991   1_455 S
H418   O470    0.991   .     S
H419   O427    0.989   .     S
H420   O428    0.989   .     S
H421   O429    0.986   .     S
H422   O430    0.986   .     S
N423   Zn439   2.021   .     S
N424   Zn440   2.021   .     S
O425   Zn439   1.985   .     S
O426   H506    0.991   1_455 S
O426   C499    1.389   1_455 S
O431   Zn440   1.985   .     S
O432   Zn440   1.987   .     S
O433   Zn439   1.987   .     S
O434   Zn439   1.985   .     S
O435   Zn440   1.985   .     S
O436   Zn440   1.993   .     S
O437   Zn439   1.993   .     S
O438   H461    0.991   .     S
O438   C454    1.389   .     S
Br441  C449    1.924   .     S
Br442  C450    1.924   .     S
C443   C446    1.409   .     S
C443   O476    1.286   .     A
C443   O469    1.283   .     A
C444   C446    1.395   .     A
C444   H460    1.085   .     S
C444   C721    1.373   1_545 S
C445   C451    1.409   .     S
C445   C457    1.408   .     A
C445   C458    1.395   .     A
C446   C456    1.408   .     A
C447   O473    1.379   .     S
C447   N468    1.361   .     A
C448   O474    1.379   .     S
C448   N467    1.361   .     A
C448   C846    1.436   .     S
C449   N467    1.379   .     A
C449   C843    1.436   .     S
C450   N468    1.379   .     A
C451   O477    1.286   .     A
C451   O475    1.283   .     A
C452   O480    1.289   .     A
C452   C454    1.415   .     S
C452   O478    1.278   .     A
C453   O481    1.289   .     A
C453   C455    1.415   .     S
C453   O479    1.278   .     A
C455   C498    1.349   .     S
C455   O514    1.389   .     S
C456   O471    1.382   .     S
C456   C722    1.373   1_545 S
C457   O472    1.382   .     S
C457   C576    1.373   .     S
C458   H459    1.085   .     S
C458   C588    1.373   .     S
H462   O514    0.991   .     S
H463   O471    0.989   .     S
H464   O472    0.989   .     S
H465   O473    0.986   .     S
H466   O474    0.986   .     S
N467   Zn483   2.021   .     S
N468   Zn484   2.021   .     S
O469   Zn483   1.985   .     S
O475   Zn484   1.985   .     S
O476   Zn484   1.987   .     S
O477   Zn483   1.987   .     S
O478   Zn483   1.985   .     S
O479   Zn484   1.985   .     S
O480   Zn484   1.993   .     S
O481   Zn483   1.993   .     S
O482   H505    0.991   .     S
O482   C498    1.389   .     S
Br485  C493    1.924   .     S
Br486  C494    1.924   .     S
C487   C490    1.409   .     S
C487   O520    1.286   .     A
C487   O513    1.283   .     A
C488   C490    1.395   .     A
C488   H504    1.085   .     S
C488   C765    1.373   1_545 S
C489   C495    1.409   .     S
C489   C501    1.408   .     A
C489   C502    1.395   .     A
C490   C500    1.408   .     A
C491   O517    1.379   .     S
C491   N512    1.361   .     A
C492   O518    1.379   .     S
C492   N511    1.361   .     A
C492   C890    1.436   .     S
C493   N511    1.379   .     A
C493   C887    1.436   .     S
C494   N512    1.379   .     A
C495   O521    1.286   .     A
C495   O519    1.283   .     A
C496   O524    1.289   .     A
C496   C498    1.415   .     S
C496   O522    1.278   .     A
C497   O525    1.289   .     A
C497   C499    1.415   .     S
C497   O523    1.278   .     A
C499   C410    1.349   1_655 S
C499   O426    1.389   1_655 S
C500   O515    1.382   .     S
C500   C766    1.373   1_545 S
C501   O516    1.382   .     S
C501   C620    1.373   .     S
C502   H503    1.085   .     S
C502   C632    1.373   .     S
H506   O426    0.991   1_655 S
H507   O515    0.989   .     S
H508   O516    0.989   .     S
H509   O517    0.986   .     S
H510   O518    0.986   .     S
N511   Zn527   2.021   .     S
N512   Zn528   2.021   .     S
O513   Zn527   1.985   .     S
O519   Zn528   1.985   .     S
O520   Zn528   1.987   .     S
O521   Zn527   1.987   .     S
O522   Zn527   1.985   .     S
O523   Zn528   1.985   .     S
O524   Zn528   1.993   .     S
O525   Zn527   1.993   .     S
O526   H417    0.991   1_655 S
O526   C410    1.389   1_655 S
Br529  C537    1.924   .     S
Br530  C538    1.924   .     S
C531   C534    1.409   .     S
C531   O564    1.286   .     A
C531   O557    1.283   .     A
C532   C534    1.395   .     A
C532   H548    1.085   .     S
C533   C539    1.409   .     S
C533   C545    1.408   .     A
C533   C546    1.395   .     A
C534   C544    1.408   .     A
C535   O561    1.379   .     S
C535   N556    1.361   .     A
C536   O562    1.379   .     S
C536   N555    1.361   .     A
C536   C934    1.436   .     S
C537   N555    1.379   .     A
C537   C931    1.436   .     S
C538   N556    1.379   .     A
C539   O565    1.286   .     A
C539   O563    1.283   .     A
C540   O568    1.289   .     A
C540   C542    1.415   .     S
C540   O566    1.278   .     A
C541   O569    1.289   .     A
C541   C543    1.415   .     S
C541   O567    1.278   .     A
C542   C631    1.349   1_455 S
C542   O658    1.389   1_455 S
C543   C586    1.349   .     S
C543   O602    1.389   .     S
C544   O559    1.382   .     S
C545   O560    1.382   .     S
C545   C664    1.373   .     S
C546   H547    1.085   .     S
C546   C676    1.373   .     S
H549   O658    0.991   1_455 S
H550   O602    0.991   .     S
H551   O559    0.989   .     S
H552   O560    0.989   .     S
H553   O561    0.986   .     S
H554   O562    0.986   .     S
N555   Zn571   2.021   .     S
N556   Zn572   2.021   .     S
O557   Zn571   1.985   .     S
O558   H638    0.991   1_455 S
O558   C631    1.389   1_455 S
O563   Zn572   1.985   .     S
O564   Zn572   1.987   .     S
O565   Zn571   1.987   .     S
O566   Zn571   1.985   .     S
O567   Zn572   1.985   .     S
O568   Zn572   1.993   .     S
O569   Zn571   1.993   .     S
O570   H593    0.991   .     S
O570   C586    1.389   .     S
Br573  C581    1.924   .     S
Br574  C582    1.924   .     S
C575   C578    1.409   .     S
C575   O608    1.286   .     A
C575   O601    1.283   .     A
C576   C578    1.395   .     A
C576   H592    1.085   .     S
C577   C583    1.409   .     S
C577   C589    1.408   .     A
C577   C590    1.395   .     A
C578   C588    1.408   .     A
C579   O605    1.379   .     S
C579   N600    1.361   .     A
C580   O606    1.379   .     S
C580   N599    1.361   .     A
C580   C978    1.436   .     S
C581   N599    1.379   .     A
C581   C975    1.436   .     S
C582   N600    1.379   .     A
C583   O609    1.286   .     A
C583   O607    1.283   .     A
C584   O612    1.289   .     A
C584   C586    1.415   .     S
C584   O610    1.278   .     A
C585   O613    1.289   .     A
C585   C587    1.415   .     S
C585   O611    1.278   .     A
C587   C630    1.349   .     S
C587   O646    1.389   .     S
C588   O603    1.382   .     S
C589   O604    1.382   .     S
C589   C708    1.373   .     S
C590   H591    1.085   .     S
C590   C720    1.373   .     S
H594   O646    0.991   .     S
H595   O603    0.989   .     S
H596   O604    0.989   .     S
H597   O605    0.986   .     S
H598   O606    0.986   .     S
N599   Zn615   2.021   .     S
N600   Zn616   2.021   .     S
O601   Zn615   1.985   .     S
O607   Zn616   1.985   .     S
O608   Zn616   1.987   .     S
O609   Zn615   1.987   .     S
O610   Zn615   1.985   .     S
O611   Zn616   1.985   .     S
O612   Zn616   1.993   .     S
O613   Zn615   1.993   .     S
O614   H637    0.991   .     S
O614   C630    1.389   .     S
Br617  C625    1.924   .     S
Br618  C626    1.924   .     S
C619   C622    1.409   .     S
C619   O652    1.286   .     A
C619   O645    1.283   .     A
C620   C622    1.395   .     A
C620   H636    1.085   .     S
C621   C627    1.409   .     S
C621   C633    1.408   .     A
C621   C634    1.395   .     A
C622   C632    1.408   .     A
C623   O649    1.379   .     S
C623   N644    1.361   .     A
C624   O650    1.379   .     S
C624   N643    1.361   .     A
C624   C1022   1.436   .     S
C625   N643    1.379   .     A
C625   C1019   1.436   .     S
C626   N644    1.379   .     A
C627   O653    1.286   .     A
C627   O651    1.283   .     A
C628   O656    1.289   .     A
C628   C630    1.415   .     S
C628   O654    1.278   .     A
C629   O657    1.289   .     A
C629   C631    1.415   .     S
C629   O655    1.278   .     A
C631   C542    1.349   1_655 S
C631   O558    1.389   1_655 S
C632   O647    1.382   .     S
C633   O648    1.382   .     S
C633   C752    1.373   .     S
C634   H635    1.085   .     S
C634   C764    1.373   .     S
H638   O558    0.991   1_655 S
H639   O647    0.989   .     S
H640   O648    0.989   .     S
H641   O649    0.986   .     S
H642   O650    0.986   .     S
N643   Zn659   2.021   .     S
N644   Zn660   2.021   .     S
O645   Zn659   1.985   .     S
O651   Zn660   1.985   .     S
O652   Zn660   1.987   .     S
O653   Zn659   1.987   .     S
O654   Zn659   1.985   .     S
O655   Zn660   1.985   .     S
O656   Zn660   1.993   .     S
O657   Zn659   1.993   .     S
O658   H549    0.991   1_655 S
O658   C542    1.389   1_655 S
Br661  C669    1.924   .     S
Br662  C670    1.924   .     S
C663   C666    1.409   .     S
C663   O696    1.286   .     A
C663   O689    1.283   .     A
C664   C666    1.395   .     A
C664   H680    1.085   .     S
C665   C671    1.409   .     S
C665   C677    1.408   .     A
C665   C678    1.395   .     A
C666   C676    1.408   .     A
C667   O693    1.379   .     S
C667   N688    1.361   .     A
C668   O694    1.379   .     S
C668   N687    1.361   .     A
C668   C1066   1.436   .     S
C669   N687    1.379   .     A
C669   C1063   1.436   .     S
C670   N688    1.379   .     A
C671   O697    1.286   .     A
C671   O695    1.283   .     A
C672   O700    1.289   .     A
C672   C674    1.415   .     S
C672   O698    1.278   .     A
C673   O701    1.289   .     A
C673   C675    1.415   .     S
C673   O699    1.278   .     A
C674   C763    1.349   1_455 S
C674   O790    1.389   1_455 S
C675   C718    1.349   .     S
C675   O734    1.389   .     S
C676   O691    1.382   .     S
C677   O692    1.382   .     S
C677   C400    1.373   1_565 S
C678   H679    1.085   .     S
C678   C412    1.373   1_565 S
H681   O790    0.991   1_455 S
H682   O734    0.991   .     S
H683   O691    0.989   .     S
H684   O692    0.989   .     S
H685   O693    0.986   .     S
H686   O694    0.986   .     S
N687   Zn703   2.021   .     S
N688   Zn704   2.021   .     S
O689   Zn703   1.985   .     S
O690   H770    0.991   1_455 S
O690   C763    1.389   1_455 S
O695   Zn704   1.985   .     S
O696   Zn704   1.987   .     S
O697   Zn703   1.987   .     S
O698   Zn703   1.985   .     S
O699   Zn704   1.985   .     S
O700   Zn704   1.993   .     S
O701   Zn703   1.993   .     S
O702   H725    0.991   .     S
O702   C718    1.389   .     S
Br705  C713    1.924   .     S
Br706  C714    1.924   .     S
C707   C710    1.409   .     S
C707   O740    1.286   .     A
C707   O733    1.283   .     A
C708   C710    1.395   .     A
C708   H724    1.085   .     S
C709   C715    1.409   .     S
C709   C721    1.408   .     A
C709   C722    1.395   .     A
C710   C720    1.408   .     A
C711   O737    1.379   .     S
C711   N732    1.361   .     A
C712   O738    1.379   .     S
C712   N731    1.361   .     A
C712   C1110   1.436   .     S
C713   N731    1.379   .     A
C713   C1107   1.436   .     S
C714   N732    1.379   .     A
C715   O741    1.286   .     A
C715   O739    1.283   .     A
C716   O744    1.289   .     A
C716   C718    1.415   .     S
C716   O742    1.278   .     A
C717   O745    1.289   .     A
C717   C719    1.415   .     S
C717   O743    1.278   .     A
C719   C762    1.349   .     S
C719   O778    1.389   .     S
C720   O735    1.382   .     S
C721   O736    1.382   .     S
C721   C444    1.373   1_565 S
C722   H723    1.085   .     S
C722   C456    1.373   1_565 S
H726   O778    0.991   .     S
H727   O735    0.989   .     S
H728   O736    0.989   .     S
H729   O737    0.986   .     S
H730   O738    0.986   .     S
N731   Zn747   2.021   .     S
N732   Zn748   2.021   .     S
O733   Zn747   1.985   .     S
O739   Zn748   1.985   .     S
O740   Zn748   1.987   .     S
O741   Zn747   1.987   .     S
O742   Zn747   1.985   .     S
O743   Zn748   1.985   .     S
O744   Zn748   1.993   .     S
O745   Zn747   1.993   .     S
O746   H769    0.991   .     S
O746   C762    1.389   .     S
Br749  C757    1.924   .     S
Br750  C758    1.924   .     S
C751   C754    1.409   .     S
C751   O784    1.286   .     A
C751   O777    1.283   .     A
C752   C754    1.395   .     A
C752   H768    1.085   .     S
C753   C759    1.409   .     S
C753   C765    1.408   .     A
C753   C766    1.395   .     A
C754   C764    1.408   .     A
C755   O781    1.379   .     S
C755   N776    1.361   .     A
C756   O782    1.379   .     S
C756   N775    1.361   .     A
C756   C1154   1.436   .     S
C757   N775    1.379   .     A
C757   C1151   1.436   .     S
C758   N776    1.379   .     A
C759   O785    1.286   .     A
C759   O783    1.283   .     A
C760   O788    1.289   .     A
C760   C762    1.415   .     S
C760   O786    1.278   .     A
C761   O789    1.289   .     A
C761   C763    1.415   .     S
C761   O787    1.278   .     A
C763   C674    1.349   1_655 S
C763   O690    1.389   1_655 S
C764   O779    1.382   .     S
C765   O780    1.382   .     S
C765   C488    1.373   1_565 S
C766   H767    1.085   .     S
C766   C500    1.373   1_565 S
H770   O690    0.991   1_655 S
H771   O779    0.989   .     S
H772   O780    0.989   .     S
H773   O781    0.986   .     S
H774   O782    0.986   .     S
N775   Zn791   2.021   .     S
N776   Zn792   2.021   .     S
O777   Zn791   1.985   .     S
O783   Zn792   1.985   .     S
O784   Zn792   1.987   .     S
O785   Zn791   1.987   .     S
O786   Zn791   1.985   .     S
O787   Zn792   1.985   .     S
O788   Zn792   1.993   .     S
O789   Zn791   1.993   .     S
O790   H681    0.991   1_655 S
O790   C674    1.389   1_655 S
Br793  C801    1.924   .     S
Br794  C802    1.924   .     S
C795   C798    1.409   .     S
C795   O828    1.286   .     A
C795   O821    1.283   .     A
C796   C798    1.395   .     A
C796   H812    1.085   .     S
C796   C1073   1.373   1_545 S
C797   C803    1.409   .     S
C797   C809    1.408   .     A
C797   C810    1.395   .     A
C798   C808    1.408   .     A
C799   O825    1.379   .     S
C799   N820    1.361   .     A
C800   O826    1.379   .     S
C800   N819    1.361   .     A
C800   C10     1.436   1_556 S
C801   N819    1.379   .     A
C801   C7      1.436   1_556 S
C802   N820    1.379   .     A
C803   O829    1.286   .     A
C803   O827    1.283   .     A
C804   O832    1.289   .     A
C804   C806    1.415   .     S
C804   O830    1.278   .     A
C805   O833    1.289   .     A
C805   C807    1.415   .     S
C805   O831    1.278   .     A
C806   C895    1.349   1_455 S
C806   O922    1.389   1_455 S
C807   C850    1.349   .     S
C807   O866    1.389   .     S
C808   O823    1.382   .     S
C808   C1074   1.373   1_545 S
C809   O824    1.382   .     S
C809   C928    1.373   .     S
C810   H811    1.085   .     S
C810   C940    1.373   .     S
H813   O922    0.991   1_455 S
H814   O866    0.991   .     S
H815   O823    0.989   .     S
H816   O824    0.989   .     S
H817   O825    0.986   .     S
H818   O826    0.986   .     S
N819   Zn835   2.021   .     S
N820   Zn836   2.021   .     S
O821   Zn835   1.985   .     S
O822   H902    0.991   1_455 S
O822   C895    1.389   1_455 S
O827   Zn836   1.985   .     S
O828   Zn836   1.987   .     S
O829   Zn835   1.987   .     S
O830   Zn835   1.985   .     S
O831   Zn836   1.985   .     S
O832   Zn836   1.993   .     S
O833   Zn835   1.993   .     S
O834   H857    0.991   .     S
O834   C850    1.389   .     S
Br837  C845    1.924   .     S
Br838  C846    1.924   .     S
C839   C842    1.409   .     S
C839   O872    1.286   .     A
C839   O865    1.283   .     A
C840   C842    1.395   .     A
C840   H856    1.085   .     S
C840   C1117   1.373   1_545 S
C841   C847    1.409   .     S
C841   C853    1.408   .     A
C841   C854    1.395   .     A
C842   C852    1.408   .     A
C843   O869    1.379   .     S
C843   N864    1.361   .     A
C844   O870    1.379   .     S
C844   N863    1.361   .     A
C844   C54     1.436   1_556 S
C845   N863    1.379   .     A
C845   C51     1.436   1_556 S
C846   N864    1.379   .     A
C847   O873    1.286   .     A
C847   O871    1.283   .     A
C848   O876    1.289   .     A
C848   C850    1.415   .     S
C848   O874    1.278   .     A
C849   O877    1.289   .     A
C849   C851    1.415   .     S
C849   O875    1.278   .     A
C851   C894    1.349   .     S
C851   O910    1.389   .     S
C852   O867    1.382   .     S
C852   C1118   1.373   1_545 S
C853   O868    1.382   .     S
C853   C972    1.373   .     S
C854   H855    1.085   .     S
C854   C984    1.373   .     S
H858   O910    0.991   .     S
H859   O867    0.989   .     S
H860   O868    0.989   .     S
H861   O869    0.986   .     S
H862   O870    0.986   .     S
N863   Zn879   2.021   .     S
N864   Zn880   2.021   .     S
O865   Zn879   1.985   .     S
O871   Zn880   1.985   .     S
O872   Zn880   1.987   .     S
O873   Zn879   1.987   .     S
O874   Zn879   1.985   .     S
O875   Zn880   1.985   .     S
O876   Zn880   1.993   .     S
O877   Zn879   1.993   .     S
O878   H901    0.991   .     S
O878   C894    1.389   .     S
Br881  C889    1.924   .     S
Br882  C890    1.924   .     S
C883   C886    1.409   .     S
C883   O916    1.286   .     A
C883   O909    1.283   .     A
C884   C886    1.395   .     A
C884   H900    1.085   .     S
C884   C1161   1.373   1_545 S
C885   C891    1.409   .     S
C885   C897    1.408   .     A
C885   C898    1.395   .     A
C886   C896    1.408   .     A
C887   O913    1.379   .     S
C887   N908    1.361   .     A
C888   O914    1.379   .     S
C888   N907    1.361   .     A
C888   C98     1.436   1_556 S
C889   N907    1.379   .     A
C889   C95     1.436   1_556 S
C890   N908    1.379   .     A
C891   O917    1.286   .     A
C891   O915    1.283   .     A
C892   O920    1.289   .     A
C892   C894    1.415   .     S
C892   O918    1.278   .     A
C893   O921    1.289   .     A
C893   C895    1.415   .     S
C893   O919    1.278   .     A
C895   C806    1.349   1_655 S
C895   O822    1.389   1_655 S
C896   O911    1.382   .     S
C896   C1162   1.373   1_545 S
C897   O912    1.382   .     S
C897   C1016   1.373   .     S
C898   H899    1.085   .     S
C898   C1028   1.373   .     S
H902   O822    0.991   1_655 S
H903   O911    0.989   .     S
H904   O912    0.989   .     S
H905   O913    0.986   .     S
H906   O914    0.986   .     S
N907   Zn923   2.021   .     S
N908   Zn924   2.021   .     S
O909   Zn923   1.985   .     S
O915   Zn924   1.985   .     S
O916   Zn924   1.987   .     S
O917   Zn923   1.987   .     S
O918   Zn923   1.985   .     S
O919   Zn924   1.985   .     S
O920   Zn924   1.993   .     S
O921   Zn923   1.993   .     S
O922   H813    0.991   1_655 S
O922   C806    1.389   1_655 S
Br925  C933    1.924   .     S
Br926  C934    1.924   .     S
C927   C930    1.409   .     S
C927   O960    1.286   .     A
C927   O953    1.283   .     A
C928   C930    1.395   .     A
C928   H944    1.085   .     S
C929   C935    1.409   .     S
C929   C941    1.408   .     A
C929   C942    1.395   .     A
C930   C940    1.408   .     A
C931   O957    1.379   .     S
C931   N952    1.361   .     A
C932   O958    1.379   .     S
C932   N951    1.361   .     A
C932   C142    1.436   1_556 S
C933   N951    1.379   .     A
C933   C139    1.436   1_556 S
C934   N952    1.379   .     A
C935   O961    1.286   .     A
C935   O959    1.283   .     A
C936   O964    1.289   .     A
C936   C938    1.415   .     S
C936   O962    1.278   .     A
C937   O965    1.289   .     A
C937   C939    1.415   .     S
C937   O963    1.278   .     A
C938   C1027   1.349   1_455 S
C938   O1054   1.389   1_455 S
C939   C982    1.349   .     S
C939   O998    1.389   .     S
C940   O955    1.382   .     S
C941   O956    1.382   .     S
C941   C1060   1.373   .     S
C942   H943    1.085   .     S
C942   C1072   1.373   .     S
H945   O1054   0.991   1_455 S
H946   O998    0.991   .     S
H947   O955    0.989   .     S
H948   O956    0.989   .     S
H949   O957    0.986   .     S
H950   O958    0.986   .     S
N951   Zn967   2.021   .     S
N952   Zn968   2.021   .     S
O953   Zn967   1.985   .     S
O954   H1034   0.991   1_455 S
O954   C1027   1.389   1_455 S
O959   Zn968   1.985   .     S
O960   Zn968   1.987   .     S
O961   Zn967   1.987   .     S
O962   Zn967   1.985   .     S
O963   Zn968   1.985   .     S
O964   Zn968   1.993   .     S
O965   Zn967   1.993   .     S
O966   H989    0.991   .     S
O966   C982    1.389   .     S
Br969  C977    1.924   .     S
Br970  C978    1.924   .     S
C971   C974    1.409   .     S
C971   O1004   1.286   .     A
C971   O997    1.283   .     A
C972   C974    1.395   .     A
C972   H988    1.085   .     S
C973   C979    1.409   .     S
C973   C985    1.408   .     A
C973   C986    1.395   .     A
C974   C984    1.408   .     A
C975   O1001   1.379   .     S
C975   N996    1.361   .     A
C976   O1002   1.379   .     S
C976   N995    1.361   .     A
C976   C186    1.436   1_556 S
C977   N995    1.379   .     A
C977   C183    1.436   1_556 S
C978   N996    1.379   .     A
C979   O1005   1.286   .     A
C979   O1003   1.283   .     A
C980   O1008   1.289   .     A
C980   C982    1.415   .     S
C980   O1006   1.278   .     A
C981   O1009   1.289   .     A
C981   C983    1.415   .     S
C981   O1007   1.278   .     A
C983   C1026   1.349   .     S
C983   O1042   1.389   .     S
C984   O999    1.382   .     S
C985   O1000   1.382   .     S
C985   C1104   1.373   .     S
C986   H987    1.085   .     S
C986   C1116   1.373   .     S
H990   O1042   0.991   .     S
H991   O999    0.989   .     S
H992   O1000   0.989   .     S
H993   O1001   0.986   .     S
H994   O1002   0.986   .     S
N995   Zn1011  2.021   .     S
N996   Zn1012  2.021   .     S
O997   Zn1011  1.985   .     S
O1003  Zn1012  1.985   .     S
O1004  Zn1012  1.987   .     S
O1005  Zn1011  1.987   .     S
O1006  Zn1011  1.985   .     S
O1007  Zn1012  1.985   .     S
O1008  Zn1012  1.993   .     S
O1009  Zn1011  1.993   .     S
O1010  H1033   0.991   .     S
O1010  C1026   1.389   .     S
Br1013 C1021   1.924   .     S
Br1014 C1022   1.924   .     S
C1015  C1018   1.409   .     S
C1015  O1048   1.286   .     A
C1015  O1041   1.283   .     A
C1016  C1018   1.395   .     A
C1016  H1032   1.085   .     S
C1017  C1023   1.409   .     S
C1017  C1029   1.408   .     A
C1017  C1030   1.395   .     A
C1018  C1028   1.408   .     A
C1019  O1045   1.379   .     S
C1019  N1040   1.361   .     A
C1020  O1046   1.379   .     S
C1020  N1039   1.361   .     A
C1020  C230    1.436   1_556 S
C1021  N1039   1.379   .     A
C1021  C227    1.436   1_556 S
C1022  N1040   1.379   .     A
C1023  O1049   1.286   .     A
C1023  O1047   1.283   .     A
C1024  O1052   1.289   .     A
C1024  C1026   1.415   .     S
C1024  O1050   1.278   .     A
C1025  O1053   1.289   .     A
C1025  C1027   1.415   .     S
C1025  O1051   1.278   .     A
C1027  C938    1.349   1_655 S
C1027  O954    1.389   1_655 S
C1028  O1043   1.382   .     S
C1029  O1044   1.382   .     S
C1029  C1148   1.373   .     S
C1030  H1031   1.085   .     S
C1030  C1160   1.373   .     S
H1034  O954    0.991   1_655 S
H1035  O1043   0.989   .     S
H1036  O1044   0.989   .     S
H1037  O1045   0.986   .     S
H1038  O1046   0.986   .     S
N1039  Zn1055  2.021   .     S
N1040  Zn1056  2.021   .     S
O1041  Zn1055  1.985   .     S
O1047  Zn1056  1.985   .     S
O1048  Zn1056  1.987   .     S
O1049  Zn1055  1.987   .     S
O1050  Zn1055  1.985   .     S
O1051  Zn1056  1.985   .     S
O1052  Zn1056  1.993   .     S
O1053  Zn1055  1.993   .     S
O1054  H945    0.991   1_655 S
O1054  C938    1.389   1_655 S
Br1057 C1065   1.924   .     S
Br1058 C1066   1.924   .     S
C1059  C1062   1.409   .     S
C1059  O1092   1.286   .     A
C1059  O1085   1.283   .     A
C1060  C1062   1.395   .     A
C1060  H1076   1.085   .     S
C1061  C1067   1.409   .     S
C1061  C1073   1.408   .     A
C1061  C1074   1.395   .     A
C1062  C1072   1.408   .     A
C1063  O1089   1.379   .     S
C1063  N1084   1.361   .     A
C1064  O1090   1.379   .     S
C1064  N1083   1.361   .     A
C1064  C274    1.436   1_556 S
C1065  N1083   1.379   .     A
C1065  C271    1.436   1_556 S
C1066  N1084   1.379   .     A
C1067  O1093   1.286   .     A
C1067  O1091   1.283   .     A
C1068  O1096   1.289   .     A
C1068  C1070   1.415   .     S
C1068  O1094   1.278   .     A
C1069  O1097   1.289   .     A
C1069  C1071   1.415   .     S
C1069  O1095   1.278   .     A
C1070  C1159   1.349   1_455 S
C1070  O1186   1.389   1_455 S
C1071  C1114   1.349   .     S
C1071  O1130   1.389   .     S
C1072  O1087   1.382   .     S
C1073  O1088   1.382   .     S
C1073  C796    1.373   1_565 S
C1074  H1075   1.085   .     S
C1074  C808    1.373   1_565 S
H1077  O1186   0.991   1_455 S
H1078  O1130   0.991   .     S
H1079  O1087   0.989   .     S
H1080  O1088   0.989   .     S
H1081  O1089   0.986   .     S
H1082  O1090   0.986   .     S
N1083  Zn1099  2.021   .     S
N1084  Zn1100  2.021   .     S
O1085  Zn1099  1.985   .     S
O1086  H1166   0.991   1_455 S
O1086  C1159   1.389   1_455 S
O1091  Zn1100  1.985   .     S
O1092  Zn1100  1.987   .     S
O1093  Zn1099  1.987   .     S
O1094  Zn1099  1.985   .     S
O1095  Zn1100  1.985   .     S
O1096  Zn1100  1.993   .     S
O1097  Zn1099  1.993   .     S
O1098  H1121   0.991   .     S
O1098  C1114   1.389   .     S
Br1101 C1109   1.924   .     S
Br1102 C1110   1.924   .     S
C1103  C1106   1.409   .     S
C1103  O1136   1.286   .     A
C1103  O1129   1.283   .     A
C1104  C1106   1.395   .     A
C1104  H1120   1.085   .     S
C1105  C1111   1.409   .     S
C1105  C1117   1.408   .     A
C1105  C1118   1.395   .     A
C1106  C1116   1.408   .     A
C1107  O1133   1.379   .     S
C1107  N1128   1.361   .     A
C1108  O1134   1.379   .     S
C1108  N1127   1.361   .     A
C1108  C318    1.436   1_556 S
C1109  N1127   1.379   .     A
C1109  C315    1.436   1_556 S
C1110  N1128   1.379   .     A
C1111  O1137   1.286   .     A
C1111  O1135   1.283   .     A
C1112  O1140   1.289   .     A
C1112  C1114   1.415   .     S
C1112  O1138   1.278   .     A
C1113  O1141   1.289   .     A
C1113  C1115   1.415   .     S
C1113  O1139   1.278   .     A
C1115  C1158   1.349   .     S
C1115  O1174   1.389   .     S
C1116  O1131   1.382   .     S
C1117  O1132   1.382   .     S
C1117  C840    1.373   1_565 S
C1118  H1119   1.085   .     S
C1118  C852    1.373   1_565 S
H1122  O1174   0.991   .     S
H1123  O1131   0.989   .     S
H1124  O1132   0.989   .     S
H1125  O1133   0.986   .     S
H1126  O1134   0.986   .     S
N1127  Zn1143  2.021   .     S
N1128  Zn1144  2.021   .     S
O1129  Zn1143  1.985   .     S
O1135  Zn1144  1.985   .     S
O1136  Zn1144  1.987   .     S
O1137  Zn1143  1.987   .     S
O1138  Zn1143  1.985   .     S
O1139  Zn1144  1.985   .     S
O1140  Zn1144  1.993   .     S
O1141  Zn1143  1.993   .     S
O1142  H1165   0.991   .     S
O1142  C1158   1.389   .     S
Br1145 C1153   1.924   .     S
Br1146 C1154   1.924   .     S
C1147  C1150   1.409   .     S
C1147  O1180   1.286   .     A
C1147  O1173   1.283   .     A
C1148  C1150   1.395   .     A
C1148  H1164   1.085   .     S
C1149  C1155   1.409   .     S
C1149  C1161   1.408   .     A
C1149  C1162   1.395   .     A
C1150  C1160   1.408   .     A
C1151  O1177   1.379   .     S
C1151  N1172   1.361   .     A
C1152  O1178   1.379   .     S
C1152  N1171   1.361   .     A
C1152  C362    1.436   1_556 S
C1153  N1171   1.379   .     A
C1153  C359    1.436   1_556 S
C1154  N1172   1.379   .     A
C1155  O1181   1.286   .     A
C1155  O1179   1.283   .     A
C1156  O1184   1.289   .     A
C1156  C1158   1.415   .     S
C1156  O1182   1.278   .     A
C1157  O1185   1.289   .     A
C1157  C1159   1.415   .     S
C1157  O1183   1.278   .     A
C1159  C1070   1.349   1_655 S
C1159  O1086   1.389   1_655 S
C1160  O1175   1.382   .     S
C1161  O1176   1.382   .     S
C1161  C884    1.373   1_565 S
C1162  H1163   1.085   .     S
C1162  C896    1.373   1_565 S
H1166  O1086   0.991   1_655 S
H1167  O1175   0.989   .     S
H1168  O1176   0.989   .     S
H1169  O1177   0.986   .     S
H1170  O1178   0.986   .     S
N1171  Zn1187  2.021   .     S
N1172  Zn1188  2.021   .     S
O1173  Zn1187  1.985   .     S
O1179  Zn1188  1.985   .     S
O1180  Zn1188  1.987   .     S
O1181  Zn1187  1.987   .     S
O1182  Zn1187  1.985   .     S
O1183  Zn1188  1.985   .     S
O1184  Zn1188  1.993   .     S
O1185  Zn1187  1.993   .     S
O1186  H1077   0.991   1_655 S
O1186  C1070   1.389   1_655 S
