data_str_m2_o1_o10_pcu_sym.124
_audit_creation_date              2020-01-03
_audit_creation_method            'Materials Studio'
_symmetry_space_group_name_H-M    'P1'
_symmetry_Int_Tables_number       1
_symmetry_cell_setting            triclinic
loop_
_symmetry_equiv_pos_as_xyz
  x,y,z
_cell_length_a                    26.1784
_cell_length_b                    32.3952
_cell_length_c                    29.0724
_cell_angle_alpha                 90.2857
_cell_angle_beta                  97.9033
_cell_angle_gamma                 95.0612
loop_
_atom_site_label
_atom_site_type_symbol
_atom_site_fract_x
_atom_site_fract_y
_atom_site_fract_z
_atom_site_U_iso_or_equiv
_atom_site_adp_type
_atom_site_occupancy
C1     C     0.16740   0.08766   0.16656   0.00000  Uiso   1.00
C2     C     0.16593   0.24568   0.16677   0.00000  Uiso   1.00
C3     C     0.06809   0.16648   0.15468   0.00000  Uiso   1.00
C4     C     0.26524   0.16686   0.17865   0.00000  Uiso   1.00
C5     C     0.01267   0.16637   0.14823   0.00000  Uiso   1.00
C6     C     0.32066   0.16697   0.18510   0.00000  Uiso   1.00
C7     C     0.20019   0.02286   0.13992   0.00000  Uiso   1.00
C8     C     0.13315   0.31047   0.19341   0.00000  Uiso   1.00
C9     C     0.19836   0.31315   0.14069   0.00000  Uiso   1.00
C10    C     0.13498   0.02018   0.19264   0.00000  Uiso   1.00
C11    C     0.16546   0.29035   0.16716   0.00000  Uiso   1.00
C12    C     0.16787   0.04298   0.16617   0.00000  Uiso   1.00
C13    C     0.13276   0.13965   0.02038   0.00000  Uiso   1.00
C14    C     0.20057   0.19368   0.31296   0.00000  Uiso   1.00
C15    C     0.13269   0.13972   0.30430   0.00000  Uiso   1.00
C16    C     0.20064   0.19362   0.02903   0.00000  Uiso   1.00
Cu17   Cu    0.16667   0.16667   0.21355   0.00000  Uiso   1.00
Cu18   Cu    0.16667   0.16666   0.11978   0.00000  Uiso   1.00
H19    H     0.32598   0.16574   0.11287   0.00000  Uiso   1.00
H20    H     0.00735   0.16759   0.22046   0.00000  Uiso   1.00
N21    N     0.16668   0.16668   0.28403   0.00000  Uiso   1.00
N22    N     0.16665   0.16666   0.04931   0.00000  Uiso   1.00
O23    O     0.16666   0.10655   0.20625   0.00000  Uiso   1.00
O24    O     0.16667   0.22678   0.12709   0.00000  Uiso   1.00
O25    O     0.16666   0.10654   0.12706   0.00000  Uiso   1.00
O26    O     0.16667   0.22679   0.20628   0.00000  Uiso   1.00
O27    O     0.09161   0.16667   0.19712   0.00000  Uiso   1.00
O28    O     0.24172   0.16666   0.13621   0.00000  Uiso   1.00
O29    O     0.09161   0.16666   0.11793   0.00000  Uiso   1.00
O30    O     0.24172   0.16667   0.21540   0.00000  Uiso   1.00
C31    C     0.23783   0.04642   0.11247   0.00000  Uiso   1.00
H32    H     0.26245   0.07029   0.13502   0.00000  Uiso   1.00
H33    H     0.26389   0.02565   0.09861   0.00000  Uiso   1.00
H34    H     0.21646   0.06147   0.08244   0.00000  Uiso   1.00
C35    C     0.09550   0.28692   0.22086   0.00000  Uiso   1.00
H36    H     0.07089   0.26304   0.19831   0.00000  Uiso   1.00
H37    H     0.11688   0.27186   0.25090   0.00000  Uiso   1.00
H38    H     0.06944   0.30768   0.23472   0.00000  Uiso   1.00
H39    H     0.22335   0.29725   0.12118   0.00000  Uiso   1.00
H40    H     0.10998   0.03609   0.21215   0.00000  Uiso   1.00
C41    C     0.09434   0.10858   0.03938   0.00000  Uiso   1.00
H42    H     0.10204   0.07656   0.03056   0.00000  Uiso   1.00
H43    H     0.09450   0.10883   0.07662   0.00000  Uiso   1.00
H44    H     0.05420   0.11418   0.02468   0.00000  Uiso   1.00
C45    C     0.23899   0.22475   0.29395   0.00000  Uiso   1.00
H46    H     0.23129   0.25677   0.30278   0.00000  Uiso   1.00
H47    H     0.27913   0.21915   0.30865   0.00000  Uiso   1.00
H48    H     0.23883   0.22450   0.25671   0.00000  Uiso   1.00
C49    C     0.09373   0.10899   0.27550   0.00000  Uiso   1.00
H50    H     0.09410   0.10886   0.23833   0.00000  Uiso   1.00
H51    H     0.10054   0.07689   0.28617   0.00000  Uiso   1.00
H52    H     0.05379   0.11531   0.28018   0.00000  Uiso   1.00
C53    C     0.23960   0.22434   0.05783   0.00000  Uiso   1.00
H54    H     0.23923   0.22447   0.09500   0.00000  Uiso   1.00
H55    H     0.27955   0.21803   0.05315   0.00000  Uiso   1.00
H56    H     0.23279   0.25644   0.04716   0.00000  Uiso   1.00
C57    C     0.50074   0.08766   0.16656   0.00000  Uiso   1.00
C58    C     0.49926   0.24568   0.16677   0.00000  Uiso   1.00
C59    C     0.40142   0.16648   0.15468   0.00000  Uiso   1.00
C60    C     0.59858   0.16686   0.17865   0.00000  Uiso   1.00
C61    C     0.34600   0.16637   0.14823   0.00000  Uiso   1.00
C62    C     0.65400   0.16697   0.18510   0.00000  Uiso   1.00
C63    C     0.53352   0.02286   0.13992   0.00000  Uiso   1.00
C64    C     0.46648   0.31047   0.19341   0.00000  Uiso   1.00
C65    C     0.53169   0.31315   0.14069   0.00000  Uiso   1.00
C66    C     0.46831   0.02018   0.19264   0.00000  Uiso   1.00
C67    C     0.49879   0.29035   0.16716   0.00000  Uiso   1.00
C68    C     0.50121   0.04298   0.16617   0.00000  Uiso   1.00
C69    C     0.46609   0.13965   0.02038   0.00000  Uiso   1.00
C70    C     0.53391   0.19368   0.31296   0.00000  Uiso   1.00
C71    C     0.46603   0.13972   0.30430   0.00000  Uiso   1.00
C72    C     0.53397   0.19362   0.02903   0.00000  Uiso   1.00
Cu73   Cu    0.50000   0.16667   0.21355   0.00000  Uiso   1.00
Cu74   Cu    0.50000   0.16666   0.11978   0.00000  Uiso   1.00
H75    H     0.65931   0.16574   0.11287   0.00000  Uiso   1.00
H76    H     0.34069   0.16759   0.22046   0.00000  Uiso   1.00
N77    N     0.50001   0.16668   0.28403   0.00000  Uiso   1.00
N78    N     0.49999   0.16666   0.04931   0.00000  Uiso   1.00
O79    O     0.50000   0.10655   0.20625   0.00000  Uiso   1.00
O80    O     0.50000   0.22678   0.12709   0.00000  Uiso   1.00
O81    O     0.50000   0.10654   0.12706   0.00000  Uiso   1.00
O82    O     0.50000   0.22679   0.20628   0.00000  Uiso   1.00
O83    O     0.42495   0.16667   0.19712   0.00000  Uiso   1.00
O84    O     0.57505   0.16666   0.13621   0.00000  Uiso   1.00
O85    O     0.42494   0.16666   0.11793   0.00000  Uiso   1.00
O86    O     0.57506   0.16667   0.21540   0.00000  Uiso   1.00
C87    C     0.57117   0.04642   0.11247   0.00000  Uiso   1.00
H88    H     0.59578   0.07029   0.13502   0.00000  Uiso   1.00
H89    H     0.59722   0.02565   0.09861   0.00000  Uiso   1.00
H90    H     0.54979   0.06147   0.08244   0.00000  Uiso   1.00
C91    C     0.42883   0.28692   0.22086   0.00000  Uiso   1.00
H92    H     0.40422   0.26304   0.19831   0.00000  Uiso   1.00
H93    H     0.45021   0.27186   0.25090   0.00000  Uiso   1.00
H94    H     0.40278   0.30768   0.23472   0.00000  Uiso   1.00
H95    H     0.55669   0.29725   0.12118   0.00000  Uiso   1.00
H96    H     0.44331   0.03609   0.21215   0.00000  Uiso   1.00
C97    C     0.42767   0.10858   0.03938   0.00000  Uiso   1.00
H98    H     0.43537   0.07656   0.03056   0.00000  Uiso   1.00
H99    H     0.42783   0.10883   0.07662   0.00000  Uiso   1.00
H100   H     0.38754   0.11418   0.02468   0.00000  Uiso   1.00
C101   C     0.57233   0.22475   0.29395   0.00000  Uiso   1.00
H102   H     0.56463   0.25677   0.30278   0.00000  Uiso   1.00
H103   H     0.61246   0.21915   0.30865   0.00000  Uiso   1.00
H104   H     0.57217   0.22450   0.25671   0.00000  Uiso   1.00
C105   C     0.42707   0.10899   0.27550   0.00000  Uiso   1.00
H106   H     0.42744   0.10886   0.23833   0.00000  Uiso   1.00
H107   H     0.43388   0.07689   0.28617   0.00000  Uiso   1.00
H108   H     0.38712   0.11531   0.28018   0.00000  Uiso   1.00
C109   C     0.57293   0.22434   0.05783   0.00000  Uiso   1.00
H110   H     0.57256   0.22447   0.09500   0.00000  Uiso   1.00
H111   H     0.61288   0.21803   0.05315   0.00000  Uiso   1.00
H112   H     0.56612   0.25644   0.04716   0.00000  Uiso   1.00
C113   C     0.83407   0.08766   0.16656   0.00000  Uiso   1.00
C114   C     0.83260   0.24568   0.16677   0.00000  Uiso   1.00
C115   C     0.73476   0.16648   0.15468   0.00000  Uiso   1.00
C116   C     0.93191   0.16686   0.17865   0.00000  Uiso   1.00
C117   C     0.67934   0.16637   0.14823   0.00000  Uiso   1.00
C118   C     0.98733   0.16697   0.18510   0.00000  Uiso   1.00
C119   C     0.86685   0.02286   0.13992   0.00000  Uiso   1.00
C120   C     0.79981   0.31047   0.19341   0.00000  Uiso   1.00
C121   C     0.86502   0.31315   0.14069   0.00000  Uiso   1.00
C122   C     0.80164   0.02018   0.19264   0.00000  Uiso   1.00
C123   C     0.83213   0.29035   0.16716   0.00000  Uiso   1.00
C124   C     0.83454   0.04298   0.16617   0.00000  Uiso   1.00
C125   C     0.79943   0.13965   0.02038   0.00000  Uiso   1.00
C126   C     0.86724   0.19368   0.31296   0.00000  Uiso   1.00
C127   C     0.79936   0.13972   0.30430   0.00000  Uiso   1.00
C128   C     0.86731   0.19362   0.02903   0.00000  Uiso   1.00
Cu129  Cu    0.83333   0.16667   0.21355   0.00000  Uiso   1.00
Cu130  Cu    0.83333   0.16666   0.11978   0.00000  Uiso   1.00
H131   H     0.99265   0.16574   0.11287   0.00000  Uiso   1.00
H132   H     0.67402   0.16759   0.22046   0.00000  Uiso   1.00
N133   N     0.83335   0.16668   0.28403   0.00000  Uiso   1.00
N134   N     0.83332   0.16666   0.04931   0.00000  Uiso   1.00
O135   O     0.83333   0.10655   0.20625   0.00000  Uiso   1.00
O136   O     0.83334   0.22678   0.12709   0.00000  Uiso   1.00
O137   O     0.83333   0.10654   0.12706   0.00000  Uiso   1.00
O138   O     0.83334   0.22679   0.20628   0.00000  Uiso   1.00
O139   O     0.75828   0.16667   0.19712   0.00000  Uiso   1.00
O140   O     0.90839   0.16666   0.13621   0.00000  Uiso   1.00
O141   O     0.75828   0.16666   0.11793   0.00000  Uiso   1.00
O142   O     0.90839   0.16667   0.21540   0.00000  Uiso   1.00
C143   C     0.90450   0.04642   0.11247   0.00000  Uiso   1.00
H144   H     0.92911   0.07029   0.13502   0.00000  Uiso   1.00
H145   H     0.93056   0.02565   0.09861   0.00000  Uiso   1.00
H146   H     0.88312   0.06147   0.08244   0.00000  Uiso   1.00
C147   C     0.76217   0.28692   0.22086   0.00000  Uiso   1.00
H148   H     0.73755   0.26304   0.19831   0.00000  Uiso   1.00
H149   H     0.78354   0.27186   0.25090   0.00000  Uiso   1.00
H150   H     0.73611   0.30768   0.23472   0.00000  Uiso   1.00
H151   H     0.89002   0.29725   0.12118   0.00000  Uiso   1.00
H152   H     0.77665   0.03609   0.21215   0.00000  Uiso   1.00
C153   C     0.76101   0.10858   0.03938   0.00000  Uiso   1.00
H154   H     0.76871   0.07656   0.03056   0.00000  Uiso   1.00
H155   H     0.76117   0.10883   0.07662   0.00000  Uiso   1.00
H156   H     0.72087   0.11418   0.02468   0.00000  Uiso   1.00
C157   C     0.90566   0.22475   0.29395   0.00000  Uiso   1.00
H158   H     0.89796   0.25677   0.30278   0.00000  Uiso   1.00
H159   H     0.94580   0.21915   0.30865   0.00000  Uiso   1.00
H160   H     0.90550   0.22450   0.25671   0.00000  Uiso   1.00
C161   C     0.76040   0.10899   0.27550   0.00000  Uiso   1.00
H162   H     0.76077   0.10886   0.23833   0.00000  Uiso   1.00
H163   H     0.76721   0.07689   0.28617   0.00000  Uiso   1.00
H164   H     0.72045   0.11531   0.28018   0.00000  Uiso   1.00
C165   C     0.90627   0.22434   0.05783   0.00000  Uiso   1.00
H166   H     0.90590   0.22447   0.09500   0.00000  Uiso   1.00
H167   H     0.94621   0.21803   0.05315   0.00000  Uiso   1.00
H168   H     0.89946   0.25644   0.04716   0.00000  Uiso   1.00
C169   C     0.16740   0.42099   0.16656   0.00000  Uiso   1.00
C170   C     0.16593   0.57901   0.16677   0.00000  Uiso   1.00
C171   C     0.06809   0.49981   0.15468   0.00000  Uiso   1.00
C172   C     0.26524   0.50019   0.17865   0.00000  Uiso   1.00
C173   C     0.01267   0.49970   0.14823   0.00000  Uiso   1.00
C174   C     0.32066   0.50030   0.18510   0.00000  Uiso   1.00
C175   C     0.20019   0.35620   0.13992   0.00000  Uiso   1.00
C176   C     0.13315   0.64380   0.19341   0.00000  Uiso   1.00
C177   C     0.19836   0.64649   0.14069   0.00000  Uiso   1.00
C178   C     0.13498   0.35351   0.19264   0.00000  Uiso   1.00
C179   C     0.16546   0.62369   0.16716   0.00000  Uiso   1.00
C180   C     0.16787   0.37631   0.16617   0.00000  Uiso   1.00
C181   C     0.13276   0.47299   0.02038   0.00000  Uiso   1.00
C182   C     0.20057   0.52701   0.31296   0.00000  Uiso   1.00
C183   C     0.13269   0.47305   0.30430   0.00000  Uiso   1.00
C184   C     0.20064   0.52695   0.02903   0.00000  Uiso   1.00
Cu185  Cu    0.16667   0.50001   0.21355   0.00000  Uiso   1.00
Cu186  Cu    0.16667   0.49999   0.11978   0.00000  Uiso   1.00
H187   H     0.32598   0.49908   0.11287   0.00000  Uiso   1.00
H188   H     0.00735   0.50092   0.22046   0.00000  Uiso   1.00
N189   N     0.16668   0.50001   0.28403   0.00000  Uiso   1.00
N190   N     0.16665   0.49999   0.04931   0.00000  Uiso   1.00
O191   O     0.16666   0.43989   0.20625   0.00000  Uiso   1.00
O192   O     0.16667   0.56011   0.12709   0.00000  Uiso   1.00
O193   O     0.16666   0.43988   0.12706   0.00000  Uiso   1.00
O194   O     0.16667   0.56012   0.20628   0.00000  Uiso   1.00
O195   O     0.09161   0.50000   0.19712   0.00000  Uiso   1.00
O196   O     0.24172   0.50000   0.13621   0.00000  Uiso   1.00
O197   O     0.09161   0.49999   0.11793   0.00000  Uiso   1.00
O198   O     0.24172   0.50001   0.21540   0.00000  Uiso   1.00
C199   C     0.23783   0.37975   0.11247   0.00000  Uiso   1.00
H200   H     0.26245   0.40362   0.13502   0.00000  Uiso   1.00
H201   H     0.26389   0.35898   0.09861   0.00000  Uiso   1.00
H202   H     0.21646   0.39480   0.08244   0.00000  Uiso   1.00
C203   C     0.09550   0.62025   0.22086   0.00000  Uiso   1.00
H204   H     0.07089   0.59638   0.19831   0.00000  Uiso   1.00
H205   H     0.11688   0.60520   0.25090   0.00000  Uiso   1.00
H206   H     0.06944   0.64102   0.23472   0.00000  Uiso   1.00
H207   H     0.22335   0.63058   0.12118   0.00000  Uiso   1.00
H208   H     0.10998   0.36942   0.21215   0.00000  Uiso   1.00
C209   C     0.09434   0.44191   0.03938   0.00000  Uiso   1.00
H210   H     0.10204   0.40990   0.03056   0.00000  Uiso   1.00
H211   H     0.09450   0.44216   0.07662   0.00000  Uiso   1.00
H212   H     0.05420   0.44752   0.02468   0.00000  Uiso   1.00
C213   C     0.23899   0.55809   0.29395   0.00000  Uiso   1.00
H214   H     0.23129   0.59010   0.30278   0.00000  Uiso   1.00
H215   H     0.27913   0.55248   0.30865   0.00000  Uiso   1.00
H216   H     0.23883   0.55784   0.25671   0.00000  Uiso   1.00
C217   C     0.09373   0.44233   0.27550   0.00000  Uiso   1.00
H218   H     0.09410   0.44220   0.23833   0.00000  Uiso   1.00
H219   H     0.10054   0.41023   0.28617   0.00000  Uiso   1.00
H220   H     0.05379   0.44864   0.28018   0.00000  Uiso   1.00
C221   C     0.23960   0.55767   0.05783   0.00000  Uiso   1.00
H222   H     0.23923   0.55780   0.09500   0.00000  Uiso   1.00
H223   H     0.27955   0.55136   0.05315   0.00000  Uiso   1.00
H224   H     0.23279   0.58977   0.04716   0.00000  Uiso   1.00
C225   C     0.50074   0.42099   0.16656   0.00000  Uiso   1.00
C226   C     0.49926   0.57901   0.16677   0.00000  Uiso   1.00
C227   C     0.40142   0.49981   0.15468   0.00000  Uiso   1.00
C228   C     0.59858   0.50019   0.17865   0.00000  Uiso   1.00
C229   C     0.34600   0.49970   0.14823   0.00000  Uiso   1.00
C230   C     0.65400   0.50030   0.18510   0.00000  Uiso   1.00
C231   C     0.53352   0.35620   0.13992   0.00000  Uiso   1.00
C232   C     0.46648   0.64380   0.19341   0.00000  Uiso   1.00
C233   C     0.53169   0.64649   0.14069   0.00000  Uiso   1.00
C234   C     0.46831   0.35351   0.19264   0.00000  Uiso   1.00
C235   C     0.49879   0.62369   0.16716   0.00000  Uiso   1.00
C236   C     0.50121   0.37631   0.16617   0.00000  Uiso   1.00
C237   C     0.46609   0.47299   0.02038   0.00000  Uiso   1.00
C238   C     0.53391   0.52701   0.31296   0.00000  Uiso   1.00
C239   C     0.46603   0.47305   0.30430   0.00000  Uiso   1.00
C240   C     0.53397   0.52695   0.02903   0.00000  Uiso   1.00
Cu241  Cu    0.50000   0.50001   0.21355   0.00000  Uiso   1.00
Cu242  Cu    0.50000   0.49999   0.11978   0.00000  Uiso   1.00
H243   H     0.65931   0.49908   0.11287   0.00000  Uiso   1.00
H244   H     0.34069   0.50092   0.22046   0.00000  Uiso   1.00
N245   N     0.50001   0.50001   0.28403   0.00000  Uiso   1.00
N246   N     0.49999   0.49999   0.04931   0.00000  Uiso   1.00
O247   O     0.50000   0.43989   0.20625   0.00000  Uiso   1.00
O248   O     0.50000   0.56011   0.12709   0.00000  Uiso   1.00
O249   O     0.50000   0.43988   0.12706   0.00000  Uiso   1.00
O250   O     0.50000   0.56012   0.20628   0.00000  Uiso   1.00
O251   O     0.42495   0.50000   0.19712   0.00000  Uiso   1.00
O252   O     0.57505   0.50000   0.13621   0.00000  Uiso   1.00
O253   O     0.42494   0.49999   0.11793   0.00000  Uiso   1.00
O254   O     0.57506   0.50001   0.21540   0.00000  Uiso   1.00
C255   C     0.57117   0.37975   0.11247   0.00000  Uiso   1.00
H256   H     0.59578   0.40362   0.13502   0.00000  Uiso   1.00
H257   H     0.59722   0.35898   0.09861   0.00000  Uiso   1.00
H258   H     0.54979   0.39480   0.08244   0.00000  Uiso   1.00
C259   C     0.42883   0.62025   0.22086   0.00000  Uiso   1.00
H260   H     0.40422   0.59638   0.19831   0.00000  Uiso   1.00
H261   H     0.45021   0.60520   0.25090   0.00000  Uiso   1.00
H262   H     0.40278   0.64102   0.23472   0.00000  Uiso   1.00
H263   H     0.55669   0.63058   0.12118   0.00000  Uiso   1.00
H264   H     0.44331   0.36942   0.21215   0.00000  Uiso   1.00
C265   C     0.42767   0.44191   0.03938   0.00000  Uiso   1.00
H266   H     0.43537   0.40990   0.03056   0.00000  Uiso   1.00
H267   H     0.42783   0.44216   0.07662   0.00000  Uiso   1.00
H268   H     0.38754   0.44752   0.02468   0.00000  Uiso   1.00
C269   C     0.57233   0.55809   0.29395   0.00000  Uiso   1.00
H270   H     0.56463   0.59010   0.30278   0.00000  Uiso   1.00
H271   H     0.61246   0.55248   0.30865   0.00000  Uiso   1.00
H272   H     0.57217   0.55784   0.25671   0.00000  Uiso   1.00
C273   C     0.42707   0.44233   0.27550   0.00000  Uiso   1.00
H274   H     0.42744   0.44220   0.23833   0.00000  Uiso   1.00
H275   H     0.43388   0.41023   0.28617   0.00000  Uiso   1.00
H276   H     0.38712   0.44864   0.28018   0.00000  Uiso   1.00
C277   C     0.57293   0.55767   0.05783   0.00000  Uiso   1.00
H278   H     0.57256   0.55780   0.09500   0.00000  Uiso   1.00
H279   H     0.61288   0.55136   0.05315   0.00000  Uiso   1.00
H280   H     0.56612   0.58977   0.04716   0.00000  Uiso   1.00
C281   C     0.83407   0.42099   0.16656   0.00000  Uiso   1.00
C282   C     0.83260   0.57901   0.16677   0.00000  Uiso   1.00
C283   C     0.73476   0.49981   0.15468   0.00000  Uiso   1.00
C284   C     0.93191   0.50019   0.17865   0.00000  Uiso   1.00
C285   C     0.67934   0.49970   0.14823   0.00000  Uiso   1.00
C286   C     0.98733   0.50030   0.18510   0.00000  Uiso   1.00
C287   C     0.86685   0.35620   0.13992   0.00000  Uiso   1.00
C288   C     0.79981   0.64380   0.19341   0.00000  Uiso   1.00
C289   C     0.86502   0.64649   0.14069   0.00000  Uiso   1.00
C290   C     0.80164   0.35351   0.19264   0.00000  Uiso   1.00
C291   C     0.83213   0.62369   0.16716   0.00000  Uiso   1.00
C292   C     0.83454   0.37631   0.16617   0.00000  Uiso   1.00
C293   C     0.79943   0.47299   0.02038   0.00000  Uiso   1.00
C294   C     0.86724   0.52701   0.31296   0.00000  Uiso   1.00
C295   C     0.79936   0.47305   0.30430   0.00000  Uiso   1.00
C296   C     0.86731   0.52695   0.02903   0.00000  Uiso   1.00
Cu297  Cu    0.83333   0.50001   0.21355   0.00000  Uiso   1.00
Cu298  Cu    0.83333   0.49999   0.11978   0.00000  Uiso   1.00
H299   H     0.99265   0.49908   0.11287   0.00000  Uiso   1.00
H300   H     0.67402   0.50092   0.22046   0.00000  Uiso   1.00
N301   N     0.83335   0.50001   0.28403   0.00000  Uiso   1.00
N302   N     0.83332   0.49999   0.04931   0.00000  Uiso   1.00
O303   O     0.83333   0.43989   0.20625   0.00000  Uiso   1.00
O304   O     0.83334   0.56011   0.12709   0.00000  Uiso   1.00
O305   O     0.83333   0.43988   0.12706   0.00000  Uiso   1.00
O306   O     0.83334   0.56012   0.20628   0.00000  Uiso   1.00
O307   O     0.75828   0.50000   0.19712   0.00000  Uiso   1.00
O308   O     0.90839   0.50000   0.13621   0.00000  Uiso   1.00
O309   O     0.75828   0.49999   0.11793   0.00000  Uiso   1.00
O310   O     0.90839   0.50001   0.21540   0.00000  Uiso   1.00
C311   C     0.90450   0.37975   0.11247   0.00000  Uiso   1.00
H312   H     0.92911   0.40362   0.13502   0.00000  Uiso   1.00
H313   H     0.93056   0.35898   0.09861   0.00000  Uiso   1.00
H314   H     0.88312   0.39480   0.08244   0.00000  Uiso   1.00
C315   C     0.76217   0.62025   0.22086   0.00000  Uiso   1.00
H316   H     0.73755   0.59638   0.19831   0.00000  Uiso   1.00
H317   H     0.78354   0.60520   0.25090   0.00000  Uiso   1.00
H318   H     0.73611   0.64102   0.23472   0.00000  Uiso   1.00
H319   H     0.89002   0.63058   0.12118   0.00000  Uiso   1.00
H320   H     0.77665   0.36942   0.21215   0.00000  Uiso   1.00
C321   C     0.76101   0.44191   0.03938   0.00000  Uiso   1.00
H322   H     0.76871   0.40990   0.03056   0.00000  Uiso   1.00
H323   H     0.76117   0.44216   0.07662   0.00000  Uiso   1.00
H324   H     0.72087   0.44752   0.02468   0.00000  Uiso   1.00
C325   C     0.90566   0.55809   0.29395   0.00000  Uiso   1.00
H326   H     0.89796   0.59010   0.30278   0.00000  Uiso   1.00
H327   H     0.94580   0.55248   0.30865   0.00000  Uiso   1.00
H328   H     0.90550   0.55784   0.25671   0.00000  Uiso   1.00
C329   C     0.76040   0.44233   0.27550   0.00000  Uiso   1.00
H330   H     0.76077   0.44220   0.23833   0.00000  Uiso   1.00
H331   H     0.76721   0.41023   0.28617   0.00000  Uiso   1.00
H332   H     0.72045   0.44864   0.28018   0.00000  Uiso   1.00
C333   C     0.90627   0.55767   0.05783   0.00000  Uiso   1.00
H334   H     0.90590   0.55780   0.09500   0.00000  Uiso   1.00
H335   H     0.94621   0.55136   0.05315   0.00000  Uiso   1.00
H336   H     0.89946   0.58977   0.04716   0.00000  Uiso   1.00
C337   C     0.16740   0.75432   0.16656   0.00000  Uiso   1.00
C338   C     0.16593   0.91234   0.16677   0.00000  Uiso   1.00
C339   C     0.06809   0.83314   0.15468   0.00000  Uiso   1.00
C340   C     0.26524   0.83352   0.17865   0.00000  Uiso   1.00
C341   C     0.01267   0.83303   0.14823   0.00000  Uiso   1.00
C342   C     0.32066   0.83363   0.18510   0.00000  Uiso   1.00
C343   C     0.20019   0.68953   0.13992   0.00000  Uiso   1.00
C344   C     0.13315   0.97714   0.19341   0.00000  Uiso   1.00
C345   C     0.19836   0.97982   0.14069   0.00000  Uiso   1.00
C346   C     0.13498   0.68685   0.19264   0.00000  Uiso   1.00
C347   C     0.16546   0.95702   0.16716   0.00000  Uiso   1.00
C348   C     0.16787   0.70964   0.16617   0.00000  Uiso   1.00
C349   C     0.13276   0.80632   0.02038   0.00000  Uiso   1.00
C350   C     0.20057   0.86035   0.31296   0.00000  Uiso   1.00
C351   C     0.13269   0.80638   0.30430   0.00000  Uiso   1.00
C352   C     0.20064   0.86028   0.02903   0.00000  Uiso   1.00
Cu353  Cu    0.16667   0.83334   0.21355   0.00000  Uiso   1.00
Cu354  Cu    0.16667   0.83333   0.11978   0.00000  Uiso   1.00
H355   H     0.32598   0.83241   0.11287   0.00000  Uiso   1.00
H356   H     0.00735   0.83426   0.22046   0.00000  Uiso   1.00
N357   N     0.16668   0.83334   0.28403   0.00000  Uiso   1.00
N358   N     0.16665   0.83332   0.04931   0.00000  Uiso   1.00
O359   O     0.16666   0.77322   0.20625   0.00000  Uiso   1.00
O360   O     0.16667   0.89345   0.12709   0.00000  Uiso   1.00
O361   O     0.16666   0.77321   0.12706   0.00000  Uiso   1.00
O362   O     0.16667   0.89346   0.20628   0.00000  Uiso   1.00
O363   O     0.09161   0.83334   0.19712   0.00000  Uiso   1.00
O364   O     0.24172   0.83333   0.13621   0.00000  Uiso   1.00
O365   O     0.09161   0.83333   0.11793   0.00000  Uiso   1.00
O366   O     0.24172   0.83334   0.21540   0.00000  Uiso   1.00
C367   C     0.23783   0.71308   0.11247   0.00000  Uiso   1.00
H368   H     0.26245   0.73696   0.13502   0.00000  Uiso   1.00
H369   H     0.26389   0.69232   0.09861   0.00000  Uiso   1.00
H370   H     0.21646   0.72813   0.08244   0.00000  Uiso   1.00
C371   C     0.09550   0.95358   0.22086   0.00000  Uiso   1.00
H372   H     0.07089   0.92971   0.19831   0.00000  Uiso   1.00
H373   H     0.11688   0.93853   0.25090   0.00000  Uiso   1.00
H374   H     0.06944   0.97435   0.23472   0.00000  Uiso   1.00
H375   H     0.22335   0.96391   0.12118   0.00000  Uiso   1.00
H376   H     0.10998   0.70275   0.21215   0.00000  Uiso   1.00
C377   C     0.09434   0.77525   0.03938   0.00000  Uiso   1.00
H378   H     0.10204   0.74323   0.03056   0.00000  Uiso   1.00
H379   H     0.09450   0.77550   0.07662   0.00000  Uiso   1.00
H380   H     0.05420   0.78085   0.02468   0.00000  Uiso   1.00
C381   C     0.23899   0.89142   0.29395   0.00000  Uiso   1.00
H382   H     0.23129   0.92344   0.30278   0.00000  Uiso   1.00
H383   H     0.27913   0.88582   0.30865   0.00000  Uiso   1.00
H384   H     0.23883   0.89117   0.25671   0.00000  Uiso   1.00
C385   C     0.09373   0.77566   0.27550   0.00000  Uiso   1.00
H386   H     0.09410   0.77553   0.23833   0.00000  Uiso   1.00
H387   H     0.10054   0.74356   0.28617   0.00000  Uiso   1.00
H388   H     0.05379   0.78197   0.28018   0.00000  Uiso   1.00
C389   C     0.23960   0.89101   0.05783   0.00000  Uiso   1.00
H390   H     0.23923   0.89114   0.09500   0.00000  Uiso   1.00
H391   H     0.27955   0.88469   0.05315   0.00000  Uiso   1.00
H392   H     0.23279   0.92311   0.04716   0.00000  Uiso   1.00
C393   C     0.50074   0.75432   0.16656   0.00000  Uiso   1.00
C394   C     0.49926   0.91234   0.16677   0.00000  Uiso   1.00
C395   C     0.40142   0.83314   0.15468   0.00000  Uiso   1.00
C396   C     0.59858   0.83352   0.17865   0.00000  Uiso   1.00
C397   C     0.34600   0.83303   0.14823   0.00000  Uiso   1.00
C398   C     0.65400   0.83363   0.18510   0.00000  Uiso   1.00
C399   C     0.53352   0.68953   0.13992   0.00000  Uiso   1.00
C400   C     0.46648   0.97714   0.19341   0.00000  Uiso   1.00
C401   C     0.53169   0.97982   0.14069   0.00000  Uiso   1.00
C402   C     0.46831   0.68685   0.19264   0.00000  Uiso   1.00
C403   C     0.49879   0.95702   0.16716   0.00000  Uiso   1.00
C404   C     0.50121   0.70964   0.16617   0.00000  Uiso   1.00
C405   C     0.46609   0.80632   0.02038   0.00000  Uiso   1.00
C406   C     0.53391   0.86035   0.31296   0.00000  Uiso   1.00
C407   C     0.46603   0.80638   0.30430   0.00000  Uiso   1.00
C408   C     0.53397   0.86028   0.02903   0.00000  Uiso   1.00
Cu409  Cu    0.50000   0.83334   0.21355   0.00000  Uiso   1.00
Cu410  Cu    0.50000   0.83333   0.11978   0.00000  Uiso   1.00
H411   H     0.65931   0.83241   0.11287   0.00000  Uiso   1.00
H412   H     0.34069   0.83426   0.22046   0.00000  Uiso   1.00
N413   N     0.50001   0.83334   0.28403   0.00000  Uiso   1.00
N414   N     0.49999   0.83332   0.04931   0.00000  Uiso   1.00
O415   O     0.50000   0.77322   0.20625   0.00000  Uiso   1.00
O416   O     0.50000   0.89345   0.12709   0.00000  Uiso   1.00
O417   O     0.50000   0.77321   0.12706   0.00000  Uiso   1.00
O418   O     0.50000   0.89346   0.20628   0.00000  Uiso   1.00
O419   O     0.42495   0.83334   0.19712   0.00000  Uiso   1.00
O420   O     0.57505   0.83333   0.13621   0.00000  Uiso   1.00
O421   O     0.42494   0.83333   0.11793   0.00000  Uiso   1.00
O422   O     0.57506   0.83334   0.21540   0.00000  Uiso   1.00
C423   C     0.57117   0.71308   0.11247   0.00000  Uiso   1.00
H424   H     0.59578   0.73696   0.13502   0.00000  Uiso   1.00
H425   H     0.59722   0.69232   0.09861   0.00000  Uiso   1.00
H426   H     0.54979   0.72813   0.08244   0.00000  Uiso   1.00
C427   C     0.42883   0.95358   0.22086   0.00000  Uiso   1.00
H428   H     0.40422   0.92971   0.19831   0.00000  Uiso   1.00
H429   H     0.45021   0.93853   0.25090   0.00000  Uiso   1.00
H430   H     0.40278   0.97435   0.23472   0.00000  Uiso   1.00
H431   H     0.55669   0.96391   0.12118   0.00000  Uiso   1.00
H432   H     0.44331   0.70275   0.21215   0.00000  Uiso   1.00
C433   C     0.42767   0.77525   0.03938   0.00000  Uiso   1.00
H434   H     0.43537   0.74323   0.03056   0.00000  Uiso   1.00
H435   H     0.42783   0.77550   0.07662   0.00000  Uiso   1.00
H436   H     0.38754   0.78085   0.02468   0.00000  Uiso   1.00
C437   C     0.57233   0.89142   0.29395   0.00000  Uiso   1.00
H438   H     0.56463   0.92344   0.30278   0.00000  Uiso   1.00
H439   H     0.61246   0.88582   0.30865   0.00000  Uiso   1.00
H440   H     0.57217   0.89117   0.25671   0.00000  Uiso   1.00
C441   C     0.42707   0.77566   0.27550   0.00000  Uiso   1.00
H442   H     0.42744   0.77553   0.23833   0.00000  Uiso   1.00
H443   H     0.43388   0.74356   0.28617   0.00000  Uiso   1.00
H444   H     0.38712   0.78197   0.28018   0.00000  Uiso   1.00
C445   C     0.57293   0.89101   0.05783   0.00000  Uiso   1.00
H446   H     0.57256   0.89114   0.09500   0.00000  Uiso   1.00
H447   H     0.61288   0.88469   0.05315   0.00000  Uiso   1.00
H448   H     0.56612   0.92311   0.04716   0.00000  Uiso   1.00
C449   C     0.83407   0.75432   0.16656   0.00000  Uiso   1.00
C450   C     0.83260   0.91234   0.16677   0.00000  Uiso   1.00
C451   C     0.73476   0.83314   0.15468   0.00000  Uiso   1.00
C452   C     0.93191   0.83352   0.17865   0.00000  Uiso   1.00
C453   C     0.67934   0.83303   0.14823   0.00000  Uiso   1.00
C454   C     0.98733   0.83363   0.18510   0.00000  Uiso   1.00
C455   C     0.86685   0.68953   0.13992   0.00000  Uiso   1.00
C456   C     0.79981   0.97714   0.19341   0.00000  Uiso   1.00
C457   C     0.86502   0.97982   0.14069   0.00000  Uiso   1.00
C458   C     0.80164   0.68685   0.19264   0.00000  Uiso   1.00
C459   C     0.83213   0.95702   0.16716   0.00000  Uiso   1.00
C460   C     0.83454   0.70964   0.16617   0.00000  Uiso   1.00
C461   C     0.79943   0.80632   0.02038   0.00000  Uiso   1.00
C462   C     0.86724   0.86035   0.31296   0.00000  Uiso   1.00
C463   C     0.79936   0.80638   0.30430   0.00000  Uiso   1.00
C464   C     0.86731   0.86028   0.02903   0.00000  Uiso   1.00
Cu465  Cu    0.83333   0.83334   0.21355   0.00000  Uiso   1.00
Cu466  Cu    0.83333   0.83333   0.11978   0.00000  Uiso   1.00
H467   H     0.99265   0.83241   0.11287   0.00000  Uiso   1.00
H468   H     0.67402   0.83426   0.22046   0.00000  Uiso   1.00
N469   N     0.83335   0.83334   0.28403   0.00000  Uiso   1.00
N470   N     0.83332   0.83332   0.04931   0.00000  Uiso   1.00
O471   O     0.83333   0.77322   0.20625   0.00000  Uiso   1.00
O472   O     0.83334   0.89345   0.12709   0.00000  Uiso   1.00
O473   O     0.83333   0.77321   0.12706   0.00000  Uiso   1.00
O474   O     0.83334   0.89346   0.20628   0.00000  Uiso   1.00
O475   O     0.75828   0.83334   0.19712   0.00000  Uiso   1.00
O476   O     0.90839   0.83333   0.13621   0.00000  Uiso   1.00
O477   O     0.75828   0.83333   0.11793   0.00000  Uiso   1.00
O478   O     0.90839   0.83334   0.21540   0.00000  Uiso   1.00
C479   C     0.90450   0.71308   0.11247   0.00000  Uiso   1.00
H480   H     0.92911   0.73696   0.13502   0.00000  Uiso   1.00
H481   H     0.93056   0.69232   0.09861   0.00000  Uiso   1.00
H482   H     0.88312   0.72813   0.08244   0.00000  Uiso   1.00
C483   C     0.76217   0.95358   0.22086   0.00000  Uiso   1.00
H484   H     0.73755   0.92971   0.19831   0.00000  Uiso   1.00
H485   H     0.78354   0.93853   0.25090   0.00000  Uiso   1.00
H486   H     0.73611   0.97435   0.23472   0.00000  Uiso   1.00
H487   H     0.89002   0.96391   0.12118   0.00000  Uiso   1.00
H488   H     0.77665   0.70275   0.21215   0.00000  Uiso   1.00
C489   C     0.76101   0.77525   0.03938   0.00000  Uiso   1.00
H490   H     0.76871   0.74323   0.03056   0.00000  Uiso   1.00
H491   H     0.76117   0.77550   0.07662   0.00000  Uiso   1.00
H492   H     0.72087   0.78085   0.02468   0.00000  Uiso   1.00
C493   C     0.90566   0.89142   0.29395   0.00000  Uiso   1.00
H494   H     0.89796   0.92344   0.30278   0.00000  Uiso   1.00
H495   H     0.94580   0.88582   0.30865   0.00000  Uiso   1.00
H496   H     0.90550   0.89117   0.25671   0.00000  Uiso   1.00
C497   C     0.76040   0.77566   0.27550   0.00000  Uiso   1.00
H498   H     0.76077   0.77553   0.23833   0.00000  Uiso   1.00
H499   H     0.76721   0.74356   0.28617   0.00000  Uiso   1.00
H500   H     0.72045   0.78197   0.28018   0.00000  Uiso   1.00
C501   C     0.90627   0.89101   0.05783   0.00000  Uiso   1.00
H502   H     0.90590   0.89114   0.09500   0.00000  Uiso   1.00
H503   H     0.94621   0.88469   0.05315   0.00000  Uiso   1.00
H504   H     0.89946   0.92311   0.04716   0.00000  Uiso   1.00
C505   C     0.16740   0.08766   0.49989   0.00000  Uiso   1.00
C506   C     0.16593   0.24568   0.50011   0.00000  Uiso   1.00
C507   C     0.06809   0.16648   0.48801   0.00000  Uiso   1.00
C508   C     0.26524   0.16686   0.51199   0.00000  Uiso   1.00
C509   C     0.01267   0.16637   0.48156   0.00000  Uiso   1.00
C510   C     0.32066   0.16697   0.51844   0.00000  Uiso   1.00
C511   C     0.20019   0.02286   0.47326   0.00000  Uiso   1.00
C512   C     0.13315   0.31047   0.52674   0.00000  Uiso   1.00
C513   C     0.19836   0.31315   0.47402   0.00000  Uiso   1.00
C514   C     0.13498   0.02018   0.52598   0.00000  Uiso   1.00
C515   C     0.16546   0.29035   0.50050   0.00000  Uiso   1.00
C516   C     0.16787   0.04298   0.49950   0.00000  Uiso   1.00
C517   C     0.13276   0.13965   0.35371   0.00000  Uiso   1.00
C518   C     0.20057   0.19368   0.64629   0.00000  Uiso   1.00
C519   C     0.13269   0.13972   0.63763   0.00000  Uiso   1.00
C520   C     0.20064   0.19362   0.36237   0.00000  Uiso   1.00
Cu521  Cu    0.16667   0.16667   0.54689   0.00000  Uiso   1.00
Cu522  Cu    0.16667   0.16666   0.45311   0.00000  Uiso   1.00
H523   H     0.32598   0.16574   0.44621   0.00000  Uiso   1.00
H524   H     0.00735   0.16759   0.55379   0.00000  Uiso   1.00
N525   N     0.16668   0.16668   0.61736   0.00000  Uiso   1.00
N526   N     0.16665   0.16666   0.38264   0.00000  Uiso   1.00
O527   O     0.16666   0.10655   0.53958   0.00000  Uiso   1.00
O528   O     0.16667   0.22678   0.46042   0.00000  Uiso   1.00
O529   O     0.16666   0.10654   0.46039   0.00000  Uiso   1.00
O530   O     0.16667   0.22679   0.53961   0.00000  Uiso   1.00
O531   O     0.09161   0.16667   0.53046   0.00000  Uiso   1.00
O532   O     0.24172   0.16666   0.46954   0.00000  Uiso   1.00
O533   O     0.09161   0.16666   0.45127   0.00000  Uiso   1.00
O534   O     0.24172   0.16667   0.54873   0.00000  Uiso   1.00
C535   C     0.23783   0.04642   0.44581   0.00000  Uiso   1.00
H536   H     0.26245   0.07029   0.46836   0.00000  Uiso   1.00
H537   H     0.26389   0.02565   0.43194   0.00000  Uiso   1.00
H538   H     0.21646   0.06147   0.41577   0.00000  Uiso   1.00
C539   C     0.09550   0.28692   0.55419   0.00000  Uiso   1.00
H540   H     0.07089   0.26304   0.53164   0.00000  Uiso   1.00
H541   H     0.11688   0.27186   0.58423   0.00000  Uiso   1.00
H542   H     0.06944   0.30768   0.56806   0.00000  Uiso   1.00
H543   H     0.22335   0.29725   0.45452   0.00000  Uiso   1.00
H544   H     0.10998   0.03609   0.54548   0.00000  Uiso   1.00
C545   C     0.09434   0.10858   0.37272   0.00000  Uiso   1.00
H546   H     0.10204   0.07656   0.36389   0.00000  Uiso   1.00
H547   H     0.09450   0.10883   0.40996   0.00000  Uiso   1.00
H548   H     0.05420   0.11418   0.35801   0.00000  Uiso   1.00
C549   C     0.23899   0.22475   0.62728   0.00000  Uiso   1.00
H550   H     0.23129   0.25677   0.63611   0.00000  Uiso   1.00
H551   H     0.27913   0.21915   0.64199   0.00000  Uiso   1.00
H552   H     0.23883   0.22450   0.59004   0.00000  Uiso   1.00
C553   C     0.09373   0.10899   0.60884   0.00000  Uiso   1.00
H554   H     0.09410   0.10886   0.57167   0.00000  Uiso   1.00
H555   H     0.10054   0.07689   0.61951   0.00000  Uiso   1.00
H556   H     0.05379   0.11531   0.61351   0.00000  Uiso   1.00
C557   C     0.23960   0.22434   0.39116   0.00000  Uiso   1.00
H558   H     0.23923   0.22447   0.42833   0.00000  Uiso   1.00
H559   H     0.27955   0.21803   0.38649   0.00000  Uiso   1.00
H560   H     0.23279   0.25644   0.38049   0.00000  Uiso   1.00
C561   C     0.50074   0.08766   0.49989   0.00000  Uiso   1.00
C562   C     0.49926   0.24568   0.50011   0.00000  Uiso   1.00
C563   C     0.40142   0.16648   0.48801   0.00000  Uiso   1.00
C564   C     0.59858   0.16686   0.51199   0.00000  Uiso   1.00
C565   C     0.34600   0.16637   0.48156   0.00000  Uiso   1.00
C566   C     0.65400   0.16697   0.51844   0.00000  Uiso   1.00
C567   C     0.53352   0.02286   0.47326   0.00000  Uiso   1.00
C568   C     0.46648   0.31047   0.52674   0.00000  Uiso   1.00
C569   C     0.53169   0.31315   0.47402   0.00000  Uiso   1.00
C570   C     0.46831   0.02018   0.52598   0.00000  Uiso   1.00
C571   C     0.49879   0.29035   0.50050   0.00000  Uiso   1.00
C572   C     0.50121   0.04298   0.49950   0.00000  Uiso   1.00
C573   C     0.46609   0.13965   0.35371   0.00000  Uiso   1.00
C574   C     0.53391   0.19368   0.64629   0.00000  Uiso   1.00
C575   C     0.46603   0.13972   0.63763   0.00000  Uiso   1.00
C576   C     0.53397   0.19362   0.36237   0.00000  Uiso   1.00
Cu577  Cu    0.50000   0.16667   0.54689   0.00000  Uiso   1.00
Cu578  Cu    0.50000   0.16666   0.45311   0.00000  Uiso   1.00
H579   H     0.65931   0.16574   0.44621   0.00000  Uiso   1.00
H580   H     0.34069   0.16759   0.55379   0.00000  Uiso   1.00
N581   N     0.50001   0.16668   0.61736   0.00000  Uiso   1.00
N582   N     0.49999   0.16666   0.38264   0.00000  Uiso   1.00
O583   O     0.50000   0.10655   0.53958   0.00000  Uiso   1.00
O584   O     0.50000   0.22678   0.46042   0.00000  Uiso   1.00
O585   O     0.50000   0.10654   0.46039   0.00000  Uiso   1.00
O586   O     0.50000   0.22679   0.53961   0.00000  Uiso   1.00
O587   O     0.42495   0.16667   0.53046   0.00000  Uiso   1.00
O588   O     0.57505   0.16666   0.46954   0.00000  Uiso   1.00
O589   O     0.42494   0.16666   0.45127   0.00000  Uiso   1.00
O590   O     0.57506   0.16667   0.54873   0.00000  Uiso   1.00
C591   C     0.57117   0.04642   0.44581   0.00000  Uiso   1.00
H592   H     0.59578   0.07029   0.46836   0.00000  Uiso   1.00
H593   H     0.59722   0.02565   0.43194   0.00000  Uiso   1.00
H594   H     0.54979   0.06147   0.41577   0.00000  Uiso   1.00
C595   C     0.42883   0.28692   0.55419   0.00000  Uiso   1.00
H596   H     0.40422   0.26304   0.53164   0.00000  Uiso   1.00
H597   H     0.45021   0.27186   0.58423   0.00000  Uiso   1.00
H598   H     0.40278   0.30768   0.56806   0.00000  Uiso   1.00
H599   H     0.55669   0.29725   0.45452   0.00000  Uiso   1.00
H600   H     0.44331   0.03609   0.54548   0.00000  Uiso   1.00
C601   C     0.42767   0.10858   0.37272   0.00000  Uiso   1.00
H602   H     0.43537   0.07656   0.36389   0.00000  Uiso   1.00
H603   H     0.42783   0.10883   0.40996   0.00000  Uiso   1.00
H604   H     0.38754   0.11418   0.35801   0.00000  Uiso   1.00
C605   C     0.57233   0.22475   0.62728   0.00000  Uiso   1.00
H606   H     0.56463   0.25677   0.63611   0.00000  Uiso   1.00
H607   H     0.61246   0.21915   0.64199   0.00000  Uiso   1.00
H608   H     0.57217   0.22450   0.59004   0.00000  Uiso   1.00
C609   C     0.42707   0.10899   0.60884   0.00000  Uiso   1.00
H610   H     0.42744   0.10886   0.57167   0.00000  Uiso   1.00
H611   H     0.43388   0.07689   0.61951   0.00000  Uiso   1.00
H612   H     0.38712   0.11531   0.61351   0.00000  Uiso   1.00
C613   C     0.57293   0.22434   0.39116   0.00000  Uiso   1.00
H614   H     0.57256   0.22447   0.42833   0.00000  Uiso   1.00
H615   H     0.61288   0.21803   0.38649   0.00000  Uiso   1.00
H616   H     0.56612   0.25644   0.38049   0.00000  Uiso   1.00
C617   C     0.83407   0.08766   0.49989   0.00000  Uiso   1.00
C618   C     0.83260   0.24568   0.50011   0.00000  Uiso   1.00
C619   C     0.73476   0.16648   0.48801   0.00000  Uiso   1.00
C620   C     0.93191   0.16686   0.51199   0.00000  Uiso   1.00
C621   C     0.67934   0.16637   0.48156   0.00000  Uiso   1.00
C622   C     0.98733   0.16697   0.51844   0.00000  Uiso   1.00
C623   C     0.86685   0.02286   0.47326   0.00000  Uiso   1.00
C624   C     0.79981   0.31047   0.52674   0.00000  Uiso   1.00
C625   C     0.86502   0.31315   0.47402   0.00000  Uiso   1.00
C626   C     0.80164   0.02018   0.52598   0.00000  Uiso   1.00
C627   C     0.83213   0.29035   0.50050   0.00000  Uiso   1.00
C628   C     0.83454   0.04298   0.49950   0.00000  Uiso   1.00
C629   C     0.79943   0.13965   0.35371   0.00000  Uiso   1.00
C630   C     0.86724   0.19368   0.64629   0.00000  Uiso   1.00
C631   C     0.79936   0.13972   0.63763   0.00000  Uiso   1.00
C632   C     0.86731   0.19362   0.36237   0.00000  Uiso   1.00
Cu633  Cu    0.83333   0.16667   0.54689   0.00000  Uiso   1.00
Cu634  Cu    0.83333   0.16666   0.45311   0.00000  Uiso   1.00
H635   H     0.99265   0.16574   0.44621   0.00000  Uiso   1.00
H636   H     0.67402   0.16759   0.55379   0.00000  Uiso   1.00
N637   N     0.83335   0.16668   0.61736   0.00000  Uiso   1.00
N638   N     0.83332   0.16666   0.38264   0.00000  Uiso   1.00
O639   O     0.83333   0.10655   0.53958   0.00000  Uiso   1.00
O640   O     0.83334   0.22678   0.46042   0.00000  Uiso   1.00
O641   O     0.83333   0.10654   0.46039   0.00000  Uiso   1.00
O642   O     0.83334   0.22679   0.53961   0.00000  Uiso   1.00
O643   O     0.75828   0.16667   0.53046   0.00000  Uiso   1.00
O644   O     0.90839   0.16666   0.46954   0.00000  Uiso   1.00
O645   O     0.75828   0.16666   0.45127   0.00000  Uiso   1.00
O646   O     0.90839   0.16667   0.54873   0.00000  Uiso   1.00
C647   C     0.90450   0.04642   0.44581   0.00000  Uiso   1.00
H648   H     0.92911   0.07029   0.46836   0.00000  Uiso   1.00
H649   H     0.93056   0.02565   0.43194   0.00000  Uiso   1.00
H650   H     0.88312   0.06147   0.41577   0.00000  Uiso   1.00
C651   C     0.76217   0.28692   0.55419   0.00000  Uiso   1.00
H652   H     0.73755   0.26304   0.53164   0.00000  Uiso   1.00
H653   H     0.78354   0.27186   0.58423   0.00000  Uiso   1.00
H654   H     0.73611   0.30768   0.56806   0.00000  Uiso   1.00
H655   H     0.89002   0.29725   0.45452   0.00000  Uiso   1.00
H656   H     0.77665   0.03609   0.54548   0.00000  Uiso   1.00
C657   C     0.76101   0.10858   0.37272   0.00000  Uiso   1.00
H658   H     0.76871   0.07656   0.36389   0.00000  Uiso   1.00
H659   H     0.76117   0.10883   0.40996   0.00000  Uiso   1.00
H660   H     0.72087   0.11418   0.35801   0.00000  Uiso   1.00
C661   C     0.90566   0.22475   0.62728   0.00000  Uiso   1.00
H662   H     0.89796   0.25677   0.63611   0.00000  Uiso   1.00
H663   H     0.94580   0.21915   0.64199   0.00000  Uiso   1.00
H664   H     0.90550   0.22450   0.59004   0.00000  Uiso   1.00
C665   C     0.76040   0.10899   0.60884   0.00000  Uiso   1.00
H666   H     0.76077   0.10886   0.57167   0.00000  Uiso   1.00
H667   H     0.76721   0.07689   0.61951   0.00000  Uiso   1.00
H668   H     0.72045   0.11531   0.61351   0.00000  Uiso   1.00
C669   C     0.90627   0.22434   0.39116   0.00000  Uiso   1.00
H670   H     0.90590   0.22447   0.42833   0.00000  Uiso   1.00
H671   H     0.94621   0.21803   0.38649   0.00000  Uiso   1.00
H672   H     0.89946   0.25644   0.38049   0.00000  Uiso   1.00
C673   C     0.16740   0.42099   0.49989   0.00000  Uiso   1.00
C674   C     0.16593   0.57901   0.50011   0.00000  Uiso   1.00
C675   C     0.06809   0.49981   0.48801   0.00000  Uiso   1.00
C676   C     0.26524   0.50019   0.51199   0.00000  Uiso   1.00
C677   C     0.01267   0.49970   0.48156   0.00000  Uiso   1.00
C678   C     0.32066   0.50030   0.51844   0.00000  Uiso   1.00
C679   C     0.20019   0.35620   0.47326   0.00000  Uiso   1.00
C680   C     0.13315   0.64380   0.52674   0.00000  Uiso   1.00
C681   C     0.19836   0.64649   0.47402   0.00000  Uiso   1.00
C682   C     0.13498   0.35351   0.52598   0.00000  Uiso   1.00
C683   C     0.16546   0.62369   0.50050   0.00000  Uiso   1.00
C684   C     0.16787   0.37631   0.49950   0.00000  Uiso   1.00
C685   C     0.13276   0.47299   0.35371   0.00000  Uiso   1.00
C686   C     0.20057   0.52701   0.64629   0.00000  Uiso   1.00
C687   C     0.13269   0.47305   0.63763   0.00000  Uiso   1.00
C688   C     0.20064   0.52695   0.36237   0.00000  Uiso   1.00
Cu689  Cu    0.16667   0.50001   0.54689   0.00000  Uiso   1.00
Cu690  Cu    0.16667   0.49999   0.45311   0.00000  Uiso   1.00
H691   H     0.32598   0.49908   0.44621   0.00000  Uiso   1.00
H692   H     0.00735   0.50092   0.55379   0.00000  Uiso   1.00
N693   N     0.16668   0.50001   0.61736   0.00000  Uiso   1.00
N694   N     0.16665   0.49999   0.38264   0.00000  Uiso   1.00
O695   O     0.16666   0.43989   0.53958   0.00000  Uiso   1.00
O696   O     0.16667   0.56011   0.46042   0.00000  Uiso   1.00
O697   O     0.16666   0.43988   0.46039   0.00000  Uiso   1.00
O698   O     0.16667   0.56012   0.53961   0.00000  Uiso   1.00
O699   O     0.09161   0.50000   0.53046   0.00000  Uiso   1.00
O700   O     0.24172   0.50000   0.46954   0.00000  Uiso   1.00
O701   O     0.09161   0.49999   0.45127   0.00000  Uiso   1.00
O702   O     0.24172   0.50001   0.54873   0.00000  Uiso   1.00
C703   C     0.23783   0.37975   0.44581   0.00000  Uiso   1.00
H704   H     0.26245   0.40362   0.46836   0.00000  Uiso   1.00
H705   H     0.26389   0.35898   0.43194   0.00000  Uiso   1.00
H706   H     0.21646   0.39480   0.41577   0.00000  Uiso   1.00
C707   C     0.09550   0.62025   0.55419   0.00000  Uiso   1.00
H708   H     0.07089   0.59638   0.53164   0.00000  Uiso   1.00
H709   H     0.11688   0.60520   0.58423   0.00000  Uiso   1.00
H710   H     0.06944   0.64102   0.56806   0.00000  Uiso   1.00
H711   H     0.22335   0.63058   0.45452   0.00000  Uiso   1.00
H712   H     0.10998   0.36942   0.54548   0.00000  Uiso   1.00
C713   C     0.09434   0.44191   0.37272   0.00000  Uiso   1.00
H714   H     0.10204   0.40990   0.36389   0.00000  Uiso   1.00
H715   H     0.09450   0.44216   0.40996   0.00000  Uiso   1.00
H716   H     0.05420   0.44752   0.35801   0.00000  Uiso   1.00
C717   C     0.23899   0.55809   0.62728   0.00000  Uiso   1.00
H718   H     0.23129   0.59010   0.63611   0.00000  Uiso   1.00
H719   H     0.27913   0.55248   0.64199   0.00000  Uiso   1.00
H720   H     0.23883   0.55784   0.59004   0.00000  Uiso   1.00
C721   C     0.09373   0.44233   0.60884   0.00000  Uiso   1.00
H722   H     0.09410   0.44220   0.57167   0.00000  Uiso   1.00
H723   H     0.10054   0.41023   0.61951   0.00000  Uiso   1.00
H724   H     0.05379   0.44864   0.61351   0.00000  Uiso   1.00
C725   C     0.23960   0.55767   0.39116   0.00000  Uiso   1.00
H726   H     0.23923   0.55780   0.42833   0.00000  Uiso   1.00
H727   H     0.27955   0.55136   0.38649   0.00000  Uiso   1.00
H728   H     0.23279   0.58977   0.38049   0.00000  Uiso   1.00
C729   C     0.50074   0.42099   0.49989   0.00000  Uiso   1.00
C730   C     0.49926   0.57901   0.50011   0.00000  Uiso   1.00
C731   C     0.40142   0.49981   0.48801   0.00000  Uiso   1.00
C732   C     0.59858   0.50019   0.51199   0.00000  Uiso   1.00
C733   C     0.34600   0.49970   0.48156   0.00000  Uiso   1.00
C734   C     0.65400   0.50030   0.51844   0.00000  Uiso   1.00
C735   C     0.53352   0.35620   0.47326   0.00000  Uiso   1.00
C736   C     0.46648   0.64380   0.52674   0.00000  Uiso   1.00
C737   C     0.53169   0.64649   0.47402   0.00000  Uiso   1.00
C738   C     0.46831   0.35351   0.52598   0.00000  Uiso   1.00
C739   C     0.49879   0.62369   0.50050   0.00000  Uiso   1.00
C740   C     0.50121   0.37631   0.49950   0.00000  Uiso   1.00
C741   C     0.46609   0.47299   0.35371   0.00000  Uiso   1.00
C742   C     0.53391   0.52701   0.64629   0.00000  Uiso   1.00
C743   C     0.46603   0.47305   0.63763   0.00000  Uiso   1.00
C744   C     0.53397   0.52695   0.36237   0.00000  Uiso   1.00
Cu745  Cu    0.50000   0.50001   0.54689   0.00000  Uiso   1.00
Cu746  Cu    0.50000   0.49999   0.45311   0.00000  Uiso   1.00
H747   H     0.65931   0.49908   0.44621   0.00000  Uiso   1.00
H748   H     0.34069   0.50092   0.55379   0.00000  Uiso   1.00
N749   N     0.50001   0.50001   0.61736   0.00000  Uiso   1.00
N750   N     0.49999   0.49999   0.38264   0.00000  Uiso   1.00
O751   O     0.50000   0.43989   0.53958   0.00000  Uiso   1.00
O752   O     0.50000   0.56011   0.46042   0.00000  Uiso   1.00
O753   O     0.50000   0.43988   0.46039   0.00000  Uiso   1.00
O754   O     0.50000   0.56012   0.53961   0.00000  Uiso   1.00
O755   O     0.42495   0.50000   0.53046   0.00000  Uiso   1.00
O756   O     0.57505   0.50000   0.46954   0.00000  Uiso   1.00
O757   O     0.42494   0.49999   0.45127   0.00000  Uiso   1.00
O758   O     0.57506   0.50001   0.54873   0.00000  Uiso   1.00
C759   C     0.57117   0.37975   0.44581   0.00000  Uiso   1.00
H760   H     0.59578   0.40362   0.46836   0.00000  Uiso   1.00
H761   H     0.59722   0.35898   0.43194   0.00000  Uiso   1.00
H762   H     0.54979   0.39480   0.41577   0.00000  Uiso   1.00
C763   C     0.42883   0.62025   0.55419   0.00000  Uiso   1.00
H764   H     0.40422   0.59638   0.53164   0.00000  Uiso   1.00
H765   H     0.45021   0.60520   0.58423   0.00000  Uiso   1.00
H766   H     0.40278   0.64102   0.56806   0.00000  Uiso   1.00
H767   H     0.55669   0.63058   0.45452   0.00000  Uiso   1.00
H768   H     0.44331   0.36942   0.54548   0.00000  Uiso   1.00
C769   C     0.42767   0.44191   0.37272   0.00000  Uiso   1.00
H770   H     0.43537   0.40990   0.36389   0.00000  Uiso   1.00
H771   H     0.42783   0.44216   0.40996   0.00000  Uiso   1.00
H772   H     0.38754   0.44752   0.35801   0.00000  Uiso   1.00
C773   C     0.57233   0.55809   0.62728   0.00000  Uiso   1.00
H774   H     0.56463   0.59010   0.63611   0.00000  Uiso   1.00
H775   H     0.61246   0.55248   0.64199   0.00000  Uiso   1.00
H776   H     0.57217   0.55784   0.59004   0.00000  Uiso   1.00
C777   C     0.42707   0.44233   0.60884   0.00000  Uiso   1.00
H778   H     0.42744   0.44220   0.57167   0.00000  Uiso   1.00
H779   H     0.43388   0.41023   0.61951   0.00000  Uiso   1.00
H780   H     0.38712   0.44864   0.61351   0.00000  Uiso   1.00
C781   C     0.57293   0.55767   0.39116   0.00000  Uiso   1.00
H782   H     0.57256   0.55780   0.42833   0.00000  Uiso   1.00
H783   H     0.61288   0.55136   0.38649   0.00000  Uiso   1.00
H784   H     0.56612   0.58977   0.38049   0.00000  Uiso   1.00
C785   C     0.83407   0.42099   0.49989   0.00000  Uiso   1.00
C786   C     0.83260   0.57901   0.50011   0.00000  Uiso   1.00
C787   C     0.73476   0.49981   0.48801   0.00000  Uiso   1.00
C788   C     0.93191   0.50019   0.51199   0.00000  Uiso   1.00
C789   C     0.67934   0.49970   0.48156   0.00000  Uiso   1.00
C790   C     0.98733   0.50030   0.51844   0.00000  Uiso   1.00
C791   C     0.86685   0.35620   0.47326   0.00000  Uiso   1.00
C792   C     0.79981   0.64380   0.52674   0.00000  Uiso   1.00
C793   C     0.86502   0.64649   0.47402   0.00000  Uiso   1.00
C794   C     0.80164   0.35351   0.52598   0.00000  Uiso   1.00
C795   C     0.83213   0.62369   0.50050   0.00000  Uiso   1.00
C796   C     0.83454   0.37631   0.49950   0.00000  Uiso   1.00
C797   C     0.79943   0.47299   0.35371   0.00000  Uiso   1.00
C798   C     0.86724   0.52701   0.64629   0.00000  Uiso   1.00
C799   C     0.79936   0.47305   0.63763   0.00000  Uiso   1.00
C800   C     0.86731   0.52695   0.36237   0.00000  Uiso   1.00
Cu801  Cu    0.83333   0.50001   0.54689   0.00000  Uiso   1.00
Cu802  Cu    0.83333   0.49999   0.45311   0.00000  Uiso   1.00
H803   H     0.99265   0.49908   0.44621   0.00000  Uiso   1.00
H804   H     0.67402   0.50092   0.55379   0.00000  Uiso   1.00
N805   N     0.83335   0.50001   0.61736   0.00000  Uiso   1.00
N806   N     0.83332   0.49999   0.38264   0.00000  Uiso   1.00
O807   O     0.83333   0.43989   0.53958   0.00000  Uiso   1.00
O808   O     0.83334   0.56011   0.46042   0.00000  Uiso   1.00
O809   O     0.83333   0.43988   0.46039   0.00000  Uiso   1.00
O810   O     0.83334   0.56012   0.53961   0.00000  Uiso   1.00
O811   O     0.75828   0.50000   0.53046   0.00000  Uiso   1.00
O812   O     0.90839   0.50000   0.46954   0.00000  Uiso   1.00
O813   O     0.75828   0.49999   0.45127   0.00000  Uiso   1.00
O814   O     0.90839   0.50001   0.54873   0.00000  Uiso   1.00
C815   C     0.90450   0.37975   0.44581   0.00000  Uiso   1.00
H816   H     0.92911   0.40362   0.46836   0.00000  Uiso   1.00
H817   H     0.93056   0.35898   0.43194   0.00000  Uiso   1.00
H818   H     0.88312   0.39480   0.41577   0.00000  Uiso   1.00
C819   C     0.76217   0.62025   0.55419   0.00000  Uiso   1.00
H820   H     0.73755   0.59638   0.53164   0.00000  Uiso   1.00
H821   H     0.78354   0.60520   0.58423   0.00000  Uiso   1.00
H822   H     0.73611   0.64102   0.56806   0.00000  Uiso   1.00
H823   H     0.89002   0.63058   0.45452   0.00000  Uiso   1.00
H824   H     0.77665   0.36942   0.54548   0.00000  Uiso   1.00
C825   C     0.76101   0.44191   0.37272   0.00000  Uiso   1.00
H826   H     0.76871   0.40990   0.36389   0.00000  Uiso   1.00
H827   H     0.76117   0.44216   0.40996   0.00000  Uiso   1.00
H828   H     0.72087   0.44752   0.35801   0.00000  Uiso   1.00
C829   C     0.90566   0.55809   0.62728   0.00000  Uiso   1.00
H830   H     0.89796   0.59010   0.63611   0.00000  Uiso   1.00
H831   H     0.94580   0.55248   0.64199   0.00000  Uiso   1.00
H832   H     0.90550   0.55784   0.59004   0.00000  Uiso   1.00
C833   C     0.76040   0.44233   0.60884   0.00000  Uiso   1.00
H834   H     0.76077   0.44220   0.57167   0.00000  Uiso   1.00
H835   H     0.76721   0.41023   0.61951   0.00000  Uiso   1.00
H836   H     0.72045   0.44864   0.61351   0.00000  Uiso   1.00
C837   C     0.90627   0.55767   0.39116   0.00000  Uiso   1.00
H838   H     0.90590   0.55780   0.42833   0.00000  Uiso   1.00
H839   H     0.94621   0.55136   0.38649   0.00000  Uiso   1.00
H840   H     0.89946   0.58977   0.38049   0.00000  Uiso   1.00
C841   C     0.16740   0.75432   0.49989   0.00000  Uiso   1.00
C842   C     0.16593   0.91234   0.50011   0.00000  Uiso   1.00
C843   C     0.06809   0.83314   0.48801   0.00000  Uiso   1.00
C844   C     0.26524   0.83352   0.51199   0.00000  Uiso   1.00
C845   C     0.01267   0.83303   0.48156   0.00000  Uiso   1.00
C846   C     0.32066   0.83363   0.51844   0.00000  Uiso   1.00
C847   C     0.20019   0.68953   0.47326   0.00000  Uiso   1.00
C848   C     0.13315   0.97714   0.52674   0.00000  Uiso   1.00
C849   C     0.19836   0.97982   0.47402   0.00000  Uiso   1.00
C850   C     0.13498   0.68685   0.52598   0.00000  Uiso   1.00
C851   C     0.16546   0.95702   0.50050   0.00000  Uiso   1.00
C852   C     0.16787   0.70964   0.49950   0.00000  Uiso   1.00
C853   C     0.13276   0.80632   0.35371   0.00000  Uiso   1.00
C854   C     0.20057   0.86035   0.64629   0.00000  Uiso   1.00
C855   C     0.13269   0.80638   0.63763   0.00000  Uiso   1.00
C856   C     0.20064   0.86028   0.36237   0.00000  Uiso   1.00
Cu857  Cu    0.16667   0.83334   0.54689   0.00000  Uiso   1.00
Cu858  Cu    0.16667   0.83333   0.45311   0.00000  Uiso   1.00
H859   H     0.32598   0.83241   0.44621   0.00000  Uiso   1.00
H860   H     0.00735   0.83426   0.55379   0.00000  Uiso   1.00
N861   N     0.16668   0.83334   0.61736   0.00000  Uiso   1.00
N862   N     0.16665   0.83332   0.38264   0.00000  Uiso   1.00
O863   O     0.16666   0.77322   0.53958   0.00000  Uiso   1.00
O864   O     0.16667   0.89345   0.46042   0.00000  Uiso   1.00
O865   O     0.16666   0.77321   0.46039   0.00000  Uiso   1.00
O866   O     0.16667   0.89346   0.53961   0.00000  Uiso   1.00
O867   O     0.09161   0.83334   0.53046   0.00000  Uiso   1.00
O868   O     0.24172   0.83333   0.46954   0.00000  Uiso   1.00
O869   O     0.09161   0.83333   0.45127   0.00000  Uiso   1.00
O870   O     0.24172   0.83334   0.54873   0.00000  Uiso   1.00
C871   C     0.23783   0.71308   0.44581   0.00000  Uiso   1.00
H872   H     0.26245   0.73696   0.46836   0.00000  Uiso   1.00
H873   H     0.26389   0.69232   0.43194   0.00000  Uiso   1.00
H874   H     0.21646   0.72813   0.41577   0.00000  Uiso   1.00
C875   C     0.09550   0.95358   0.55419   0.00000  Uiso   1.00
H876   H     0.07089   0.92971   0.53164   0.00000  Uiso   1.00
H877   H     0.11688   0.93853   0.58423   0.00000  Uiso   1.00
H878   H     0.06944   0.97435   0.56806   0.00000  Uiso   1.00
H879   H     0.22335   0.96391   0.45452   0.00000  Uiso   1.00
H880   H     0.10998   0.70275   0.54548   0.00000  Uiso   1.00
C881   C     0.09434   0.77525   0.37272   0.00000  Uiso   1.00
H882   H     0.10204   0.74323   0.36389   0.00000  Uiso   1.00
H883   H     0.09450   0.77550   0.40996   0.00000  Uiso   1.00
H884   H     0.05420   0.78085   0.35801   0.00000  Uiso   1.00
C885   C     0.23899   0.89142   0.62728   0.00000  Uiso   1.00
H886   H     0.23129   0.92344   0.63611   0.00000  Uiso   1.00
H887   H     0.27913   0.88582   0.64199   0.00000  Uiso   1.00
H888   H     0.23883   0.89117   0.59004   0.00000  Uiso   1.00
C889   C     0.09373   0.77566   0.60884   0.00000  Uiso   1.00
H890   H     0.09410   0.77553   0.57167   0.00000  Uiso   1.00
H891   H     0.10054   0.74356   0.61951   0.00000  Uiso   1.00
H892   H     0.05379   0.78197   0.61351   0.00000  Uiso   1.00
C893   C     0.23960   0.89101   0.39116   0.00000  Uiso   1.00
H894   H     0.23923   0.89114   0.42833   0.00000  Uiso   1.00
H895   H     0.27955   0.88469   0.38649   0.00000  Uiso   1.00
H896   H     0.23279   0.92311   0.38049   0.00000  Uiso   1.00
C897   C     0.50074   0.75432   0.49989   0.00000  Uiso   1.00
C898   C     0.49926   0.91234   0.50011   0.00000  Uiso   1.00
C899   C     0.40142   0.83314   0.48801   0.00000  Uiso   1.00
C900   C     0.59858   0.83352   0.51199   0.00000  Uiso   1.00
C901   C     0.34600   0.83303   0.48156   0.00000  Uiso   1.00
C902   C     0.65400   0.83363   0.51844   0.00000  Uiso   1.00
C903   C     0.53352   0.68953   0.47326   0.00000  Uiso   1.00
C904   C     0.46648   0.97714   0.52674   0.00000  Uiso   1.00
C905   C     0.53169   0.97982   0.47402   0.00000  Uiso   1.00
C906   C     0.46831   0.68685   0.52598   0.00000  Uiso   1.00
C907   C     0.49879   0.95702   0.50050   0.00000  Uiso   1.00
C908   C     0.50121   0.70964   0.49950   0.00000  Uiso   1.00
C909   C     0.46609   0.80632   0.35371   0.00000  Uiso   1.00
C910   C     0.53391   0.86035   0.64629   0.00000  Uiso   1.00
C911   C     0.46603   0.80638   0.63763   0.00000  Uiso   1.00
C912   C     0.53397   0.86028   0.36237   0.00000  Uiso   1.00
Cu913  Cu    0.50000   0.83334   0.54689   0.00000  Uiso   1.00
Cu914  Cu    0.50000   0.83333   0.45311   0.00000  Uiso   1.00
H915   H     0.65931   0.83241   0.44621   0.00000  Uiso   1.00
H916   H     0.34069   0.83426   0.55379   0.00000  Uiso   1.00
N917   N     0.50001   0.83334   0.61736   0.00000  Uiso   1.00
N918   N     0.49999   0.83332   0.38264   0.00000  Uiso   1.00
O919   O     0.50000   0.77322   0.53958   0.00000  Uiso   1.00
O920   O     0.50000   0.89345   0.46042   0.00000  Uiso   1.00
O921   O     0.50000   0.77321   0.46039   0.00000  Uiso   1.00
O922   O     0.50000   0.89346   0.53961   0.00000  Uiso   1.00
O923   O     0.42495   0.83334   0.53046   0.00000  Uiso   1.00
O924   O     0.57505   0.83333   0.46954   0.00000  Uiso   1.00
O925   O     0.42494   0.83333   0.45127   0.00000  Uiso   1.00
O926   O     0.57506   0.83334   0.54873   0.00000  Uiso   1.00
C927   C     0.57117   0.71308   0.44581   0.00000  Uiso   1.00
H928   H     0.59578   0.73696   0.46836   0.00000  Uiso   1.00
H929   H     0.59722   0.69232   0.43194   0.00000  Uiso   1.00
H930   H     0.54979   0.72813   0.41577   0.00000  Uiso   1.00
C931   C     0.42883   0.95358   0.55419   0.00000  Uiso   1.00
H932   H     0.40422   0.92971   0.53164   0.00000  Uiso   1.00
H933   H     0.45021   0.93853   0.58423   0.00000  Uiso   1.00
H934   H     0.40278   0.97435   0.56806   0.00000  Uiso   1.00
H935   H     0.55669   0.96391   0.45452   0.00000  Uiso   1.00
H936   H     0.44331   0.70275   0.54548   0.00000  Uiso   1.00
C937   C     0.42767   0.77525   0.37272   0.00000  Uiso   1.00
H938   H     0.43537   0.74323   0.36389   0.00000  Uiso   1.00
H939   H     0.42783   0.77550   0.40996   0.00000  Uiso   1.00
H940   H     0.38754   0.78085   0.35801   0.00000  Uiso   1.00
C941   C     0.57233   0.89142   0.62728   0.00000  Uiso   1.00
H942   H     0.56463   0.92344   0.63611   0.00000  Uiso   1.00
H943   H     0.61246   0.88582   0.64199   0.00000  Uiso   1.00
H944   H     0.57217   0.89117   0.59004   0.00000  Uiso   1.00
C945   C     0.42707   0.77566   0.60884   0.00000  Uiso   1.00
H946   H     0.42744   0.77553   0.57167   0.00000  Uiso   1.00
H947   H     0.43388   0.74356   0.61951   0.00000  Uiso   1.00
H948   H     0.38712   0.78197   0.61351   0.00000  Uiso   1.00
C949   C     0.57293   0.89101   0.39116   0.00000  Uiso   1.00
H950   H     0.57256   0.89114   0.42833   0.00000  Uiso   1.00
H951   H     0.61288   0.88469   0.38649   0.00000  Uiso   1.00
H952   H     0.56612   0.92311   0.38049   0.00000  Uiso   1.00
C953   C     0.83407   0.75432   0.49989   0.00000  Uiso   1.00
C954   C     0.83260   0.91234   0.50011   0.00000  Uiso   1.00
C955   C     0.73476   0.83314   0.48801   0.00000  Uiso   1.00
C956   C     0.93191   0.83352   0.51199   0.00000  Uiso   1.00
C957   C     0.67934   0.83303   0.48156   0.00000  Uiso   1.00
C958   C     0.98733   0.83363   0.51844   0.00000  Uiso   1.00
C959   C     0.86685   0.68953   0.47326   0.00000  Uiso   1.00
C960   C     0.79981   0.97714   0.52674   0.00000  Uiso   1.00
C961   C     0.86502   0.97982   0.47402   0.00000  Uiso   1.00
C962   C     0.80164   0.68685   0.52598   0.00000  Uiso   1.00
C963   C     0.83213   0.95702   0.50050   0.00000  Uiso   1.00
C964   C     0.83454   0.70964   0.49950   0.00000  Uiso   1.00
C965   C     0.79943   0.80632   0.35371   0.00000  Uiso   1.00
C966   C     0.86724   0.86035   0.64629   0.00000  Uiso   1.00
C967   C     0.79936   0.80638   0.63763   0.00000  Uiso   1.00
C968   C     0.86731   0.86028   0.36237   0.00000  Uiso   1.00
Cu969  Cu    0.83333   0.83334   0.54689   0.00000  Uiso   1.00
Cu970  Cu    0.83333   0.83333   0.45311   0.00000  Uiso   1.00
H971   H     0.99265   0.83241   0.44621   0.00000  Uiso   1.00
H972   H     0.67402   0.83426   0.55379   0.00000  Uiso   1.00
N973   N     0.83335   0.83334   0.61736   0.00000  Uiso   1.00
N974   N     0.83332   0.83332   0.38264   0.00000  Uiso   1.00
O975   O     0.83333   0.77322   0.53958   0.00000  Uiso   1.00
O976   O     0.83334   0.89345   0.46042   0.00000  Uiso   1.00
O977   O     0.83333   0.77321   0.46039   0.00000  Uiso   1.00
O978   O     0.83334   0.89346   0.53961   0.00000  Uiso   1.00
O979   O     0.75828   0.83334   0.53046   0.00000  Uiso   1.00
O980   O     0.90839   0.83333   0.46954   0.00000  Uiso   1.00
O981   O     0.75828   0.83333   0.45127   0.00000  Uiso   1.00
O982   O     0.90839   0.83334   0.54873   0.00000  Uiso   1.00
C983   C     0.90450   0.71308   0.44581   0.00000  Uiso   1.00
H984   H     0.92911   0.73696   0.46836   0.00000  Uiso   1.00
H985   H     0.93056   0.69232   0.43194   0.00000  Uiso   1.00
H986   H     0.88312   0.72813   0.41577   0.00000  Uiso   1.00
C987   C     0.76217   0.95358   0.55419   0.00000  Uiso   1.00
H988   H     0.73755   0.92971   0.53164   0.00000  Uiso   1.00
H989   H     0.78354   0.93853   0.58423   0.00000  Uiso   1.00
H990   H     0.73611   0.97435   0.56806   0.00000  Uiso   1.00
H991   H     0.89002   0.96391   0.45452   0.00000  Uiso   1.00
H992   H     0.77665   0.70275   0.54548   0.00000  Uiso   1.00
C993   C     0.76101   0.77525   0.37272   0.00000  Uiso   1.00
H994   H     0.76871   0.74323   0.36389   0.00000  Uiso   1.00
H995   H     0.76117   0.77550   0.40996   0.00000  Uiso   1.00
H996   H     0.72087   0.78085   0.35801   0.00000  Uiso   1.00
C997   C     0.90566   0.89142   0.62728   0.00000  Uiso   1.00
H998   H     0.89796   0.92344   0.63611   0.00000  Uiso   1.00
H999   H     0.94580   0.88582   0.64199   0.00000  Uiso   1.00
H1000  H     0.90550   0.89117   0.59004   0.00000  Uiso   1.00
C1001  C     0.76040   0.77566   0.60884   0.00000  Uiso   1.00
H1002  H     0.76077   0.77553   0.57167   0.00000  Uiso   1.00
H1003  H     0.76721   0.74356   0.61951   0.00000  Uiso   1.00
H1004  H     0.72045   0.78197   0.61351   0.00000  Uiso   1.00
C1005  C     0.90627   0.89101   0.39116   0.00000  Uiso   1.00
H1006  H     0.90590   0.89114   0.42833   0.00000  Uiso   1.00
H1007  H     0.94621   0.88469   0.38649   0.00000  Uiso   1.00
H1008  H     0.89946   0.92311   0.38049   0.00000  Uiso   1.00
C1009  C     0.16740   0.08766   0.83322   0.00000  Uiso   1.00
C1010  C     0.16593   0.24568   0.83344   0.00000  Uiso   1.00
C1011  C     0.06809   0.16648   0.82135   0.00000  Uiso   1.00
C1012  C     0.26524   0.16686   0.84532   0.00000  Uiso   1.00
C1013  C     0.01267   0.16637   0.81490   0.00000  Uiso   1.00
C1014  C     0.32066   0.16697   0.85177   0.00000  Uiso   1.00
C1015  C     0.20019   0.02286   0.80659   0.00000  Uiso   1.00
C1016  C     0.13315   0.31047   0.86008   0.00000  Uiso   1.00
C1017  C     0.19836   0.31315   0.80736   0.00000  Uiso   1.00
C1018  C     0.13498   0.02018   0.85931   0.00000  Uiso   1.00
C1019  C     0.16546   0.29035   0.83383   0.00000  Uiso   1.00
C1020  C     0.16787   0.04298   0.83284   0.00000  Uiso   1.00
C1021  C     0.13276   0.13965   0.68704   0.00000  Uiso   1.00
C1022  C     0.20057   0.19368   0.97962   0.00000  Uiso   1.00
C1023  C     0.13269   0.13972   0.97096   0.00000  Uiso   1.00
C1024  C     0.20064   0.19362   0.69570   0.00000  Uiso   1.00
Cu1025 Cu    0.16667   0.16667   0.88022   0.00000  Uiso   1.00
Cu1026 Cu    0.16667   0.16666   0.78645   0.00000  Uiso   1.00
H1027  H     0.32598   0.16574   0.77954   0.00000  Uiso   1.00
H1028  H     0.00735   0.16759   0.88713   0.00000  Uiso   1.00
N1029  N     0.16668   0.16668   0.95069   0.00000  Uiso   1.00
N1030  N     0.16665   0.16666   0.71597   0.00000  Uiso   1.00
O1031  O     0.16666   0.10655   0.87291   0.00000  Uiso   1.00
O1032  O     0.16667   0.22678   0.79375   0.00000  Uiso   1.00
O1033  O     0.16666   0.10654   0.79372   0.00000  Uiso   1.00
O1034  O     0.16667   0.22679   0.87294   0.00000  Uiso   1.00
O1035  O     0.09161   0.16667   0.86379   0.00000  Uiso   1.00
O1036  O     0.24172   0.16666   0.80288   0.00000  Uiso   1.00
O1037  O     0.09161   0.16666   0.78460   0.00000  Uiso   1.00
O1038  O     0.24172   0.16667   0.88207   0.00000  Uiso   1.00
C1039  C     0.23783   0.04642   0.77914   0.00000  Uiso   1.00
H1040  H     0.26245   0.07029   0.80169   0.00000  Uiso   1.00
H1041  H     0.26389   0.02565   0.76528   0.00000  Uiso   1.00
H1042  H     0.21646   0.06147   0.74910   0.00000  Uiso   1.00
C1043  C     0.09550   0.28692   0.88753   0.00000  Uiso   1.00
H1044  H     0.07089   0.26304   0.86498   0.00000  Uiso   1.00
H1045  H     0.11688   0.27186   0.91756   0.00000  Uiso   1.00
H1046  H     0.06944   0.30768   0.90139   0.00000  Uiso   1.00
H1047  H     0.22335   0.29725   0.78785   0.00000  Uiso   1.00
H1048  H     0.10998   0.03609   0.87882   0.00000  Uiso   1.00
C1049  C     0.09434   0.10858   0.70605   0.00000  Uiso   1.00
H1050  H     0.10204   0.07656   0.69722   0.00000  Uiso   1.00
H1051  H     0.09450   0.10883   0.74329   0.00000  Uiso   1.00
H1052  H     0.05420   0.11418   0.69135   0.00000  Uiso   1.00
C1053  C     0.23899   0.22475   0.96062   0.00000  Uiso   1.00
H1054  H     0.23129   0.25677   0.96944   0.00000  Uiso   1.00
H1055  H     0.27913   0.21915   0.97532   0.00000  Uiso   1.00
H1056  H     0.23883   0.22450   0.92338   0.00000  Uiso   1.00
C1057  C     0.09373   0.10899   0.94217   0.00000  Uiso   1.00
H1058  H     0.09410   0.10886   0.90500   0.00000  Uiso   1.00
H1059  H     0.10054   0.07689   0.95284   0.00000  Uiso   1.00
H1060  H     0.05379   0.11531   0.94685   0.00000  Uiso   1.00
C1061  C     0.23960   0.22434   0.72450   0.00000  Uiso   1.00
H1062  H     0.23923   0.22447   0.76167   0.00000  Uiso   1.00
H1063  H     0.27955   0.21803   0.71982   0.00000  Uiso   1.00
H1064  H     0.23279   0.25644   0.71383   0.00000  Uiso   1.00
C1065  C     0.50074   0.08766   0.83322   0.00000  Uiso   1.00
C1066  C     0.49926   0.24568   0.83344   0.00000  Uiso   1.00
C1067  C     0.40142   0.16648   0.82135   0.00000  Uiso   1.00
C1068  C     0.59858   0.16686   0.84532   0.00000  Uiso   1.00
C1069  C     0.34600   0.16637   0.81490   0.00000  Uiso   1.00
C1070  C     0.65400   0.16697   0.85177   0.00000  Uiso   1.00
C1071  C     0.53352   0.02286   0.80659   0.00000  Uiso   1.00
C1072  C     0.46648   0.31047   0.86008   0.00000  Uiso   1.00
C1073  C     0.53169   0.31315   0.80736   0.00000  Uiso   1.00
C1074  C     0.46831   0.02018   0.85931   0.00000  Uiso   1.00
C1075  C     0.49879   0.29035   0.83383   0.00000  Uiso   1.00
C1076  C     0.50121   0.04298   0.83284   0.00000  Uiso   1.00
C1077  C     0.46609   0.13965   0.68704   0.00000  Uiso   1.00
C1078  C     0.53391   0.19368   0.97962   0.00000  Uiso   1.00
C1079  C     0.46603   0.13972   0.97096   0.00000  Uiso   1.00
C1080  C     0.53397   0.19362   0.69570   0.00000  Uiso   1.00
Cu1081 Cu    0.50000   0.16667   0.88022   0.00000  Uiso   1.00
Cu1082 Cu    0.50000   0.16666   0.78645   0.00000  Uiso   1.00
H1083  H     0.65931   0.16574   0.77954   0.00000  Uiso   1.00
H1084  H     0.34069   0.16759   0.88713   0.00000  Uiso   1.00
N1085  N     0.50001   0.16668   0.95069   0.00000  Uiso   1.00
N1086  N     0.49999   0.16666   0.71597   0.00000  Uiso   1.00
O1087  O     0.50000   0.10655   0.87291   0.00000  Uiso   1.00
O1088  O     0.50000   0.22678   0.79375   0.00000  Uiso   1.00
O1089  O     0.50000   0.10654   0.79372   0.00000  Uiso   1.00
O1090  O     0.50000   0.22679   0.87294   0.00000  Uiso   1.00
O1091  O     0.42495   0.16667   0.86379   0.00000  Uiso   1.00
O1092  O     0.57505   0.16666   0.80288   0.00000  Uiso   1.00
O1093  O     0.42494   0.16666   0.78460   0.00000  Uiso   1.00
O1094  O     0.57506   0.16667   0.88207   0.00000  Uiso   1.00
C1095  C     0.57117   0.04642   0.77914   0.00000  Uiso   1.00
H1096  H     0.59578   0.07029   0.80169   0.00000  Uiso   1.00
H1097  H     0.59722   0.02565   0.76528   0.00000  Uiso   1.00
H1098  H     0.54979   0.06147   0.74910   0.00000  Uiso   1.00
C1099  C     0.42883   0.28692   0.88753   0.00000  Uiso   1.00
H1100  H     0.40422   0.26304   0.86498   0.00000  Uiso   1.00
H1101  H     0.45021   0.27186   0.91756   0.00000  Uiso   1.00
H1102  H     0.40278   0.30768   0.90139   0.00000  Uiso   1.00
H1103  H     0.55669   0.29725   0.78785   0.00000  Uiso   1.00
H1104  H     0.44331   0.03609   0.87882   0.00000  Uiso   1.00
C1105  C     0.42767   0.10858   0.70605   0.00000  Uiso   1.00
H1106  H     0.43537   0.07656   0.69722   0.00000  Uiso   1.00
H1107  H     0.42783   0.10883   0.74329   0.00000  Uiso   1.00
H1108  H     0.38754   0.11418   0.69135   0.00000  Uiso   1.00
C1109  C     0.57233   0.22475   0.96062   0.00000  Uiso   1.00
H1110  H     0.56463   0.25677   0.96944   0.00000  Uiso   1.00
H1111  H     0.61246   0.21915   0.97532   0.00000  Uiso   1.00
H1112  H     0.57217   0.22450   0.92338   0.00000  Uiso   1.00
C1113  C     0.42707   0.10899   0.94217   0.00000  Uiso   1.00
H1114  H     0.42744   0.10886   0.90500   0.00000  Uiso   1.00
H1115  H     0.43388   0.07689   0.95284   0.00000  Uiso   1.00
H1116  H     0.38712   0.11531   0.94685   0.00000  Uiso   1.00
C1117  C     0.57293   0.22434   0.72450   0.00000  Uiso   1.00
H1118  H     0.57256   0.22447   0.76167   0.00000  Uiso   1.00
H1119  H     0.61288   0.21803   0.71982   0.00000  Uiso   1.00
H1120  H     0.56612   0.25644   0.71383   0.00000  Uiso   1.00
C1121  C     0.83407   0.08766   0.83322   0.00000  Uiso   1.00
C1122  C     0.83260   0.24568   0.83344   0.00000  Uiso   1.00
C1123  C     0.73476   0.16648   0.82135   0.00000  Uiso   1.00
C1124  C     0.93191   0.16686   0.84532   0.00000  Uiso   1.00
C1125  C     0.67934   0.16637   0.81490   0.00000  Uiso   1.00
C1126  C     0.98733   0.16697   0.85177   0.00000  Uiso   1.00
C1127  C     0.86685   0.02286   0.80659   0.00000  Uiso   1.00
C1128  C     0.79981   0.31047   0.86008   0.00000  Uiso   1.00
C1129  C     0.86502   0.31315   0.80736   0.00000  Uiso   1.00
C1130  C     0.80164   0.02018   0.85931   0.00000  Uiso   1.00
C1131  C     0.83213   0.29035   0.83383   0.00000  Uiso   1.00
C1132  C     0.83454   0.04298   0.83284   0.00000  Uiso   1.00
C1133  C     0.79943   0.13965   0.68704   0.00000  Uiso   1.00
C1134  C     0.86724   0.19368   0.97962   0.00000  Uiso   1.00
C1135  C     0.79936   0.13972   0.97096   0.00000  Uiso   1.00
C1136  C     0.86731   0.19362   0.69570   0.00000  Uiso   1.00
Cu1137 Cu    0.83333   0.16667   0.88022   0.00000  Uiso   1.00
Cu1138 Cu    0.83333   0.16666   0.78645   0.00000  Uiso   1.00
H1139  H     0.99265   0.16574   0.77954   0.00000  Uiso   1.00
H1140  H     0.67402   0.16759   0.88713   0.00000  Uiso   1.00
N1141  N     0.83335   0.16668   0.95069   0.00000  Uiso   1.00
N1142  N     0.83332   0.16666   0.71597   0.00000  Uiso   1.00
O1143  O     0.83333   0.10655   0.87291   0.00000  Uiso   1.00
O1144  O     0.83334   0.22678   0.79375   0.00000  Uiso   1.00
O1145  O     0.83333   0.10654   0.79372   0.00000  Uiso   1.00
O1146  O     0.83334   0.22679   0.87294   0.00000  Uiso   1.00
O1147  O     0.75828   0.16667   0.86379   0.00000  Uiso   1.00
O1148  O     0.90839   0.16666   0.80288   0.00000  Uiso   1.00
O1149  O     0.75828   0.16666   0.78460   0.00000  Uiso   1.00
O1150  O     0.90839   0.16667   0.88207   0.00000  Uiso   1.00
C1151  C     0.90450   0.04642   0.77914   0.00000  Uiso   1.00
H1152  H     0.92911   0.07029   0.80169   0.00000  Uiso   1.00
H1153  H     0.93056   0.02565   0.76528   0.00000  Uiso   1.00
H1154  H     0.88312   0.06147   0.74910   0.00000  Uiso   1.00
C1155  C     0.76217   0.28692   0.88753   0.00000  Uiso   1.00
H1156  H     0.73755   0.26304   0.86498   0.00000  Uiso   1.00
H1157  H     0.78354   0.27186   0.91756   0.00000  Uiso   1.00
H1158  H     0.73611   0.30768   0.90139   0.00000  Uiso   1.00
H1159  H     0.89002   0.29725   0.78785   0.00000  Uiso   1.00
H1160  H     0.77665   0.03609   0.87882   0.00000  Uiso   1.00
C1161  C     0.76101   0.10858   0.70605   0.00000  Uiso   1.00
H1162  H     0.76871   0.07656   0.69722   0.00000  Uiso   1.00
H1163  H     0.76117   0.10883   0.74329   0.00000  Uiso   1.00
H1164  H     0.72087   0.11418   0.69135   0.00000  Uiso   1.00
C1165  C     0.90566   0.22475   0.96062   0.00000  Uiso   1.00
H1166  H     0.89796   0.25677   0.96944   0.00000  Uiso   1.00
H1167  H     0.94580   0.21915   0.97532   0.00000  Uiso   1.00
H1168  H     0.90550   0.22450   0.92338   0.00000  Uiso   1.00
C1169  C     0.76040   0.10899   0.94217   0.00000  Uiso   1.00
H1170  H     0.76077   0.10886   0.90500   0.00000  Uiso   1.00
H1171  H     0.76721   0.07689   0.95284   0.00000  Uiso   1.00
H1172  H     0.72045   0.11531   0.94685   0.00000  Uiso   1.00
C1173  C     0.90627   0.22434   0.72450   0.00000  Uiso   1.00
H1174  H     0.90590   0.22447   0.76167   0.00000  Uiso   1.00
H1175  H     0.94621   0.21803   0.71982   0.00000  Uiso   1.00
H1176  H     0.89946   0.25644   0.71383   0.00000  Uiso   1.00
C1177  C     0.16740   0.42099   0.83322   0.00000  Uiso   1.00
C1178  C     0.16593   0.57901   0.83344   0.00000  Uiso   1.00
C1179  C     0.06809   0.49981   0.82135   0.00000  Uiso   1.00
C1180  C     0.26524   0.50019   0.84532   0.00000  Uiso   1.00
C1181  C     0.01267   0.49970   0.81490   0.00000  Uiso   1.00
C1182  C     0.32066   0.50030   0.85177   0.00000  Uiso   1.00
C1183  C     0.20019   0.35620   0.80659   0.00000  Uiso   1.00
C1184  C     0.13315   0.64380   0.86008   0.00000  Uiso   1.00
C1185  C     0.19836   0.64649   0.80736   0.00000  Uiso   1.00
C1186  C     0.13498   0.35351   0.85931   0.00000  Uiso   1.00
C1187  C     0.16546   0.62369   0.83383   0.00000  Uiso   1.00
C1188  C     0.16787   0.37631   0.83284   0.00000  Uiso   1.00
C1189  C     0.13276   0.47299   0.68704   0.00000  Uiso   1.00
C1190  C     0.20057   0.52701   0.97962   0.00000  Uiso   1.00
C1191  C     0.13269   0.47305   0.97096   0.00000  Uiso   1.00
C1192  C     0.20064   0.52695   0.69570   0.00000  Uiso   1.00
Cu1193 Cu    0.16667   0.50001   0.88022   0.00000  Uiso   1.00
Cu1194 Cu    0.16667   0.49999   0.78645   0.00000  Uiso   1.00
H1195  H     0.32598   0.49908   0.77954   0.00000  Uiso   1.00
H1196  H     0.00735   0.50092   0.88713   0.00000  Uiso   1.00
N1197  N     0.16668   0.50001   0.95069   0.00000  Uiso   1.00
N1198  N     0.16665   0.49999   0.71597   0.00000  Uiso   1.00
O1199  O     0.16666   0.43989   0.87291   0.00000  Uiso   1.00
O1200  O     0.16667   0.56011   0.79375   0.00000  Uiso   1.00
O1201  O     0.16666   0.43988   0.79372   0.00000  Uiso   1.00
O1202  O     0.16667   0.56012   0.87294   0.00000  Uiso   1.00
O1203  O     0.09161   0.50000   0.86379   0.00000  Uiso   1.00
O1204  O     0.24172   0.50000   0.80288   0.00000  Uiso   1.00
O1205  O     0.09161   0.49999   0.78460   0.00000  Uiso   1.00
O1206  O     0.24172   0.50001   0.88207   0.00000  Uiso   1.00
C1207  C     0.23783   0.37975   0.77914   0.00000  Uiso   1.00
H1208  H     0.26245   0.40362   0.80169   0.00000  Uiso   1.00
H1209  H     0.26389   0.35898   0.76528   0.00000  Uiso   1.00
H1210  H     0.21646   0.39480   0.74910   0.00000  Uiso   1.00
C1211  C     0.09550   0.62025   0.88753   0.00000  Uiso   1.00
H1212  H     0.07089   0.59638   0.86498   0.00000  Uiso   1.00
H1213  H     0.11688   0.60520   0.91756   0.00000  Uiso   1.00
H1214  H     0.06944   0.64102   0.90139   0.00000  Uiso   1.00
H1215  H     0.22335   0.63058   0.78785   0.00000  Uiso   1.00
H1216  H     0.10998   0.36942   0.87882   0.00000  Uiso   1.00
C1217  C     0.09434   0.44191   0.70605   0.00000  Uiso   1.00
H1218  H     0.10204   0.40990   0.69722   0.00000  Uiso   1.00
H1219  H     0.09450   0.44216   0.74329   0.00000  Uiso   1.00
H1220  H     0.05420   0.44752   0.69135   0.00000  Uiso   1.00
C1221  C     0.23899   0.55809   0.96062   0.00000  Uiso   1.00
H1222  H     0.23129   0.59010   0.96944   0.00000  Uiso   1.00
H1223  H     0.27913   0.55248   0.97532   0.00000  Uiso   1.00
H1224  H     0.23883   0.55784   0.92338   0.00000  Uiso   1.00
C1225  C     0.09373   0.44233   0.94217   0.00000  Uiso   1.00
H1226  H     0.09410   0.44220   0.90500   0.00000  Uiso   1.00
H1227  H     0.10054   0.41023   0.95284   0.00000  Uiso   1.00
H1228  H     0.05379   0.44864   0.94685   0.00000  Uiso   1.00
C1229  C     0.23960   0.55767   0.72450   0.00000  Uiso   1.00
H1230  H     0.23923   0.55780   0.76167   0.00000  Uiso   1.00
H1231  H     0.27955   0.55136   0.71982   0.00000  Uiso   1.00
H1232  H     0.23279   0.58977   0.71383   0.00000  Uiso   1.00
C1233  C     0.50074   0.42099   0.83322   0.00000  Uiso   1.00
C1234  C     0.49926   0.57901   0.83344   0.00000  Uiso   1.00
C1235  C     0.40142   0.49981   0.82135   0.00000  Uiso   1.00
C1236  C     0.59858   0.50019   0.84532   0.00000  Uiso   1.00
C1237  C     0.34600   0.49970   0.81490   0.00000  Uiso   1.00
C1238  C     0.65400   0.50030   0.85177   0.00000  Uiso   1.00
C1239  C     0.53352   0.35620   0.80659   0.00000  Uiso   1.00
C1240  C     0.46648   0.64380   0.86008   0.00000  Uiso   1.00
C1241  C     0.53169   0.64649   0.80736   0.00000  Uiso   1.00
C1242  C     0.46831   0.35351   0.85931   0.00000  Uiso   1.00
C1243  C     0.49879   0.62369   0.83383   0.00000  Uiso   1.00
C1244  C     0.50121   0.37631   0.83284   0.00000  Uiso   1.00
C1245  C     0.46609   0.47299   0.68704   0.00000  Uiso   1.00
C1246  C     0.53391   0.52701   0.97962   0.00000  Uiso   1.00
C1247  C     0.46603   0.47305   0.97096   0.00000  Uiso   1.00
C1248  C     0.53397   0.52695   0.69570   0.00000  Uiso   1.00
Cu1249 Cu    0.50000   0.50001   0.88022   0.00000  Uiso   1.00
Cu1250 Cu    0.50000   0.49999   0.78645   0.00000  Uiso   1.00
H1251  H     0.65931   0.49908   0.77954   0.00000  Uiso   1.00
H1252  H     0.34069   0.50092   0.88713   0.00000  Uiso   1.00
N1253  N     0.50001   0.50001   0.95069   0.00000  Uiso   1.00
N1254  N     0.49999   0.49999   0.71597   0.00000  Uiso   1.00
O1255  O     0.50000   0.43989   0.87291   0.00000  Uiso   1.00
O1256  O     0.50000   0.56011   0.79375   0.00000  Uiso   1.00
O1257  O     0.50000   0.43988   0.79372   0.00000  Uiso   1.00
O1258  O     0.50000   0.56012   0.87294   0.00000  Uiso   1.00
O1259  O     0.42495   0.50000   0.86379   0.00000  Uiso   1.00
O1260  O     0.57505   0.50000   0.80288   0.00000  Uiso   1.00
O1261  O     0.42494   0.49999   0.78460   0.00000  Uiso   1.00
O1262  O     0.57506   0.50001   0.88207   0.00000  Uiso   1.00
C1263  C     0.57117   0.37975   0.77914   0.00000  Uiso   1.00
H1264  H     0.59578   0.40362   0.80169   0.00000  Uiso   1.00
H1265  H     0.59722   0.35898   0.76528   0.00000  Uiso   1.00
H1266  H     0.54979   0.39480   0.74910   0.00000  Uiso   1.00
C1267  C     0.42883   0.62025   0.88753   0.00000  Uiso   1.00
H1268  H     0.40422   0.59638   0.86498   0.00000  Uiso   1.00
H1269  H     0.45021   0.60520   0.91756   0.00000  Uiso   1.00
H1270  H     0.40278   0.64102   0.90139   0.00000  Uiso   1.00
H1271  H     0.55669   0.63058   0.78785   0.00000  Uiso   1.00
H1272  H     0.44331   0.36942   0.87882   0.00000  Uiso   1.00
C1273  C     0.42767   0.44191   0.70605   0.00000  Uiso   1.00
H1274  H     0.43537   0.40990   0.69722   0.00000  Uiso   1.00
H1275  H     0.42783   0.44216   0.74329   0.00000  Uiso   1.00
H1276  H     0.38754   0.44752   0.69135   0.00000  Uiso   1.00
C1277  C     0.57233   0.55809   0.96062   0.00000  Uiso   1.00
H1278  H     0.56463   0.59010   0.96944   0.00000  Uiso   1.00
H1279  H     0.61246   0.55248   0.97532   0.00000  Uiso   1.00
H1280  H     0.57217   0.55784   0.92338   0.00000  Uiso   1.00
C1281  C     0.42707   0.44233   0.94217   0.00000  Uiso   1.00
H1282  H     0.42744   0.44220   0.90500   0.00000  Uiso   1.00
H1283  H     0.43388   0.41023   0.95284   0.00000  Uiso   1.00
H1284  H     0.38712   0.44864   0.94685   0.00000  Uiso   1.00
C1285  C     0.57293   0.55767   0.72450   0.00000  Uiso   1.00
H1286  H     0.57256   0.55780   0.76167   0.00000  Uiso   1.00
H1287  H     0.61288   0.55136   0.71982   0.00000  Uiso   1.00
H1288  H     0.56612   0.58977   0.71383   0.00000  Uiso   1.00
C1289  C     0.83407   0.42099   0.83322   0.00000  Uiso   1.00
C1290  C     0.83260   0.57901   0.83344   0.00000  Uiso   1.00
C1291  C     0.73476   0.49981   0.82135   0.00000  Uiso   1.00
C1292  C     0.93191   0.50019   0.84532   0.00000  Uiso   1.00
C1293  C     0.67934   0.49970   0.81490   0.00000  Uiso   1.00
C1294  C     0.98733   0.50030   0.85177   0.00000  Uiso   1.00
C1295  C     0.86685   0.35620   0.80659   0.00000  Uiso   1.00
C1296  C     0.79981   0.64380   0.86008   0.00000  Uiso   1.00
C1297  C     0.86502   0.64649   0.80736   0.00000  Uiso   1.00
C1298  C     0.80164   0.35351   0.85931   0.00000  Uiso   1.00
C1299  C     0.83213   0.62369   0.83383   0.00000  Uiso   1.00
C1300  C     0.83454   0.37631   0.83284   0.00000  Uiso   1.00
C1301  C     0.79943   0.47299   0.68704   0.00000  Uiso   1.00
C1302  C     0.86724   0.52701   0.97962   0.00000  Uiso   1.00
C1303  C     0.79936   0.47305   0.97096   0.00000  Uiso   1.00
C1304  C     0.86731   0.52695   0.69570   0.00000  Uiso   1.00
Cu1305 Cu    0.83333   0.50001   0.88022   0.00000  Uiso   1.00
Cu1306 Cu    0.83333   0.49999   0.78645   0.00000  Uiso   1.00
H1307  H     0.99265   0.49908   0.77954   0.00000  Uiso   1.00
H1308  H     0.67402   0.50092   0.88713   0.00000  Uiso   1.00
N1309  N     0.83335   0.50001   0.95069   0.00000  Uiso   1.00
N1310  N     0.83332   0.49999   0.71597   0.00000  Uiso   1.00
O1311  O     0.83333   0.43989   0.87291   0.00000  Uiso   1.00
O1312  O     0.83334   0.56011   0.79375   0.00000  Uiso   1.00
O1313  O     0.83333   0.43988   0.79372   0.00000  Uiso   1.00
O1314  O     0.83334   0.56012   0.87294   0.00000  Uiso   1.00
O1315  O     0.75828   0.50000   0.86379   0.00000  Uiso   1.00
O1316  O     0.90839   0.50000   0.80288   0.00000  Uiso   1.00
O1317  O     0.75828   0.49999   0.78460   0.00000  Uiso   1.00
O1318  O     0.90839   0.50001   0.88207   0.00000  Uiso   1.00
C1319  C     0.90450   0.37975   0.77914   0.00000  Uiso   1.00
H1320  H     0.92911   0.40362   0.80169   0.00000  Uiso   1.00
H1321  H     0.93056   0.35898   0.76528   0.00000  Uiso   1.00
H1322  H     0.88312   0.39480   0.74910   0.00000  Uiso   1.00
C1323  C     0.76217   0.62025   0.88753   0.00000  Uiso   1.00
H1324  H     0.73755   0.59638   0.86498   0.00000  Uiso   1.00
H1325  H     0.78354   0.60520   0.91756   0.00000  Uiso   1.00
H1326  H     0.73611   0.64102   0.90139   0.00000  Uiso   1.00
H1327  H     0.89002   0.63058   0.78785   0.00000  Uiso   1.00
H1328  H     0.77665   0.36942   0.87882   0.00000  Uiso   1.00
C1329  C     0.76101   0.44191   0.70605   0.00000  Uiso   1.00
H1330  H     0.76871   0.40990   0.69722   0.00000  Uiso   1.00
H1331  H     0.76117   0.44216   0.74329   0.00000  Uiso   1.00
H1332  H     0.72087   0.44752   0.69135   0.00000  Uiso   1.00
C1333  C     0.90566   0.55809   0.96062   0.00000  Uiso   1.00
H1334  H     0.89796   0.59010   0.96944   0.00000  Uiso   1.00
H1335  H     0.94580   0.55248   0.97532   0.00000  Uiso   1.00
H1336  H     0.90550   0.55784   0.92338   0.00000  Uiso   1.00
C1337  C     0.76040   0.44233   0.94217   0.00000  Uiso   1.00
H1338  H     0.76077   0.44220   0.90500   0.00000  Uiso   1.00
H1339  H     0.76721   0.41023   0.95284   0.00000  Uiso   1.00
H1340  H     0.72045   0.44864   0.94685   0.00000  Uiso   1.00
C1341  C     0.90627   0.55767   0.72450   0.00000  Uiso   1.00
H1342  H     0.90590   0.55780   0.76167   0.00000  Uiso   1.00
H1343  H     0.94621   0.55136   0.71982   0.00000  Uiso   1.00
H1344  H     0.89946   0.58977   0.71383   0.00000  Uiso   1.00
C1345  C     0.16740   0.75432   0.83322   0.00000  Uiso   1.00
C1346  C     0.16593   0.91234   0.83344   0.00000  Uiso   1.00
C1347  C     0.06809   0.83314   0.82135   0.00000  Uiso   1.00
C1348  C     0.26524   0.83352   0.84532   0.00000  Uiso   1.00
C1349  C     0.01267   0.83303   0.81490   0.00000  Uiso   1.00
C1350  C     0.32066   0.83363   0.85177   0.00000  Uiso   1.00
C1351  C     0.20019   0.68953   0.80659   0.00000  Uiso   1.00
C1352  C     0.13315   0.97714   0.86008   0.00000  Uiso   1.00
C1353  C     0.19836   0.97982   0.80736   0.00000  Uiso   1.00
C1354  C     0.13498   0.68685   0.85931   0.00000  Uiso   1.00
C1355  C     0.16546   0.95702   0.83383   0.00000  Uiso   1.00
C1356  C     0.16787   0.70964   0.83284   0.00000  Uiso   1.00
C1357  C     0.13276   0.80632   0.68704   0.00000  Uiso   1.00
C1358  C     0.20057   0.86035   0.97962   0.00000  Uiso   1.00
C1359  C     0.13269   0.80638   0.97096   0.00000  Uiso   1.00
C1360  C     0.20064   0.86028   0.69570   0.00000  Uiso   1.00
Cu1361 Cu    0.16667   0.83334   0.88022   0.00000  Uiso   1.00
Cu1362 Cu    0.16667   0.83333   0.78645   0.00000  Uiso   1.00
H1363  H     0.32598   0.83241   0.77954   0.00000  Uiso   1.00
H1364  H     0.00735   0.83426   0.88713   0.00000  Uiso   1.00
N1365  N     0.16668   0.83334   0.95069   0.00000  Uiso   1.00
N1366  N     0.16665   0.83332   0.71597   0.00000  Uiso   1.00
O1367  O     0.16666   0.77322   0.87291   0.00000  Uiso   1.00
O1368  O     0.16667   0.89345   0.79375   0.00000  Uiso   1.00
O1369  O     0.16666   0.77321   0.79372   0.00000  Uiso   1.00
O1370  O     0.16667   0.89346   0.87294   0.00000  Uiso   1.00
O1371  O     0.09161   0.83334   0.86379   0.00000  Uiso   1.00
O1372  O     0.24172   0.83333   0.80288   0.00000  Uiso   1.00
O1373  O     0.09161   0.83333   0.78460   0.00000  Uiso   1.00
O1374  O     0.24172   0.83334   0.88207   0.00000  Uiso   1.00
C1375  C     0.23783   0.71308   0.77914   0.00000  Uiso   1.00
H1376  H     0.26245   0.73696   0.80169   0.00000  Uiso   1.00
H1377  H     0.26389   0.69232   0.76528   0.00000  Uiso   1.00
H1378  H     0.21646   0.72813   0.74910   0.00000  Uiso   1.00
C1379  C     0.09550   0.95358   0.88753   0.00000  Uiso   1.00
H1380  H     0.07089   0.92971   0.86498   0.00000  Uiso   1.00
H1381  H     0.11688   0.93853   0.91756   0.00000  Uiso   1.00
H1382  H     0.06944   0.97435   0.90139   0.00000  Uiso   1.00
H1383  H     0.22335   0.96391   0.78785   0.00000  Uiso   1.00
H1384  H     0.10998   0.70275   0.87882   0.00000  Uiso   1.00
C1385  C     0.09434   0.77525   0.70605   0.00000  Uiso   1.00
H1386  H     0.10204   0.74323   0.69722   0.00000  Uiso   1.00
H1387  H     0.09450   0.77550   0.74329   0.00000  Uiso   1.00
H1388  H     0.05420   0.78085   0.69135   0.00000  Uiso   1.00
C1389  C     0.23899   0.89142   0.96062   0.00000  Uiso   1.00
H1390  H     0.23129   0.92344   0.96944   0.00000  Uiso   1.00
H1391  H     0.27913   0.88582   0.97532   0.00000  Uiso   1.00
H1392  H     0.23883   0.89117   0.92338   0.00000  Uiso   1.00
C1393  C     0.09373   0.77566   0.94217   0.00000  Uiso   1.00
H1394  H     0.09410   0.77553   0.90500   0.00000  Uiso   1.00
H1395  H     0.10054   0.74356   0.95284   0.00000  Uiso   1.00
H1396  H     0.05379   0.78197   0.94685   0.00000  Uiso   1.00
C1397  C     0.23960   0.89101   0.72450   0.00000  Uiso   1.00
H1398  H     0.23923   0.89114   0.76167   0.00000  Uiso   1.00
H1399  H     0.27955   0.88469   0.71982   0.00000  Uiso   1.00
H1400  H     0.23279   0.92311   0.71383   0.00000  Uiso   1.00
C1401  C     0.50074   0.75432   0.83322   0.00000  Uiso   1.00
C1402  C     0.49926   0.91234   0.83344   0.00000  Uiso   1.00
C1403  C     0.40142   0.83314   0.82135   0.00000  Uiso   1.00
C1404  C     0.59858   0.83352   0.84532   0.00000  Uiso   1.00
C1405  C     0.34600   0.83303   0.81490   0.00000  Uiso   1.00
C1406  C     0.65400   0.83363   0.85177   0.00000  Uiso   1.00
C1407  C     0.53352   0.68953   0.80659   0.00000  Uiso   1.00
C1408  C     0.46648   0.97714   0.86008   0.00000  Uiso   1.00
C1409  C     0.53169   0.97982   0.80736   0.00000  Uiso   1.00
C1410  C     0.46831   0.68685   0.85931   0.00000  Uiso   1.00
C1411  C     0.49879   0.95702   0.83383   0.00000  Uiso   1.00
C1412  C     0.50121   0.70964   0.83284   0.00000  Uiso   1.00
C1413  C     0.46609   0.80632   0.68704   0.00000  Uiso   1.00
C1414  C     0.53391   0.86035   0.97962   0.00000  Uiso   1.00
C1415  C     0.46603   0.80638   0.97096   0.00000  Uiso   1.00
C1416  C     0.53397   0.86028   0.69570   0.00000  Uiso   1.00
Cu1417 Cu    0.50000   0.83334   0.88022   0.00000  Uiso   1.00
Cu1418 Cu    0.50000   0.83333   0.78645   0.00000  Uiso   1.00
H1419  H     0.65931   0.83241   0.77954   0.00000  Uiso   1.00
H1420  H     0.34069   0.83426   0.88713   0.00000  Uiso   1.00
N1421  N     0.50001   0.83334   0.95069   0.00000  Uiso   1.00
N1422  N     0.49999   0.83332   0.71597   0.00000  Uiso   1.00
O1423  O     0.50000   0.77322   0.87291   0.00000  Uiso   1.00
O1424  O     0.50000   0.89345   0.79375   0.00000  Uiso   1.00
O1425  O     0.50000   0.77321   0.79372   0.00000  Uiso   1.00
O1426  O     0.50000   0.89346   0.87294   0.00000  Uiso   1.00
O1427  O     0.42495   0.83334   0.86379   0.00000  Uiso   1.00
O1428  O     0.57505   0.83333   0.80288   0.00000  Uiso   1.00
O1429  O     0.42494   0.83333   0.78460   0.00000  Uiso   1.00
O1430  O     0.57506   0.83334   0.88207   0.00000  Uiso   1.00
C1431  C     0.57117   0.71308   0.77914   0.00000  Uiso   1.00
H1432  H     0.59578   0.73696   0.80169   0.00000  Uiso   1.00
H1433  H     0.59722   0.69232   0.76528   0.00000  Uiso   1.00
H1434  H     0.54979   0.72813   0.74910   0.00000  Uiso   1.00
C1435  C     0.42883   0.95358   0.88753   0.00000  Uiso   1.00
H1436  H     0.40422   0.92971   0.86498   0.00000  Uiso   1.00
H1437  H     0.45021   0.93853   0.91756   0.00000  Uiso   1.00
H1438  H     0.40278   0.97435   0.90139   0.00000  Uiso   1.00
H1439  H     0.55669   0.96391   0.78785   0.00000  Uiso   1.00
H1440  H     0.44331   0.70275   0.87882   0.00000  Uiso   1.00
C1441  C     0.42767   0.77525   0.70605   0.00000  Uiso   1.00
H1442  H     0.43537   0.74323   0.69722   0.00000  Uiso   1.00
H1443  H     0.42783   0.77550   0.74329   0.00000  Uiso   1.00
H1444  H     0.38754   0.78085   0.69135   0.00000  Uiso   1.00
C1445  C     0.57233   0.89142   0.96062   0.00000  Uiso   1.00
H1446  H     0.56463   0.92344   0.96944   0.00000  Uiso   1.00
H1447  H     0.61246   0.88582   0.97532   0.00000  Uiso   1.00
H1448  H     0.57217   0.89117   0.92338   0.00000  Uiso   1.00
C1449  C     0.42707   0.77566   0.94217   0.00000  Uiso   1.00
H1450  H     0.42744   0.77553   0.90500   0.00000  Uiso   1.00
H1451  H     0.43388   0.74356   0.95284   0.00000  Uiso   1.00
H1452  H     0.38712   0.78197   0.94685   0.00000  Uiso   1.00
C1453  C     0.57293   0.89101   0.72450   0.00000  Uiso   1.00
H1454  H     0.57256   0.89114   0.76167   0.00000  Uiso   1.00
H1455  H     0.61288   0.88469   0.71982   0.00000  Uiso   1.00
H1456  H     0.56612   0.92311   0.71383   0.00000  Uiso   1.00
C1457  C     0.83407   0.75432   0.83322   0.00000  Uiso   1.00
C1458  C     0.83260   0.91234   0.83344   0.00000  Uiso   1.00
C1459  C     0.73476   0.83314   0.82135   0.00000  Uiso   1.00
C1460  C     0.93191   0.83352   0.84532   0.00000  Uiso   1.00
C1461  C     0.67934   0.83303   0.81490   0.00000  Uiso   1.00
C1462  C     0.98733   0.83363   0.85177   0.00000  Uiso   1.00
C1463  C     0.86685   0.68953   0.80659   0.00000  Uiso   1.00
C1464  C     0.79981   0.97714   0.86008   0.00000  Uiso   1.00
C1465  C     0.86502   0.97982   0.80736   0.00000  Uiso   1.00
C1466  C     0.80164   0.68685   0.85931   0.00000  Uiso   1.00
C1467  C     0.83213   0.95702   0.83383   0.00000  Uiso   1.00
C1468  C     0.83454   0.70964   0.83284   0.00000  Uiso   1.00
C1469  C     0.79943   0.80632   0.68704   0.00000  Uiso   1.00
C1470  C     0.86724   0.86035   0.97962   0.00000  Uiso   1.00
C1471  C     0.79936   0.80638   0.97096   0.00000  Uiso   1.00
C1472  C     0.86731   0.86028   0.69570   0.00000  Uiso   1.00
Cu1473 Cu    0.83333   0.83334   0.88022   0.00000  Uiso   1.00
Cu1474 Cu    0.83333   0.83333   0.78645   0.00000  Uiso   1.00
H1475  H     0.99265   0.83241   0.77954   0.00000  Uiso   1.00
H1476  H     0.67402   0.83426   0.88713   0.00000  Uiso   1.00
N1477  N     0.83335   0.83334   0.95069   0.00000  Uiso   1.00
N1478  N     0.83332   0.83332   0.71597   0.00000  Uiso   1.00
O1479  O     0.83333   0.77322   0.87291   0.00000  Uiso   1.00
O1480  O     0.83334   0.89345   0.79375   0.00000  Uiso   1.00
O1481  O     0.83333   0.77321   0.79372   0.00000  Uiso   1.00
O1482  O     0.83334   0.89346   0.87294   0.00000  Uiso   1.00
O1483  O     0.75828   0.83334   0.86379   0.00000  Uiso   1.00
O1484  O     0.90839   0.83333   0.80288   0.00000  Uiso   1.00
O1485  O     0.75828   0.83333   0.78460   0.00000  Uiso   1.00
O1486  O     0.90839   0.83334   0.88207   0.00000  Uiso   1.00
C1487  C     0.90450   0.71308   0.77914   0.00000  Uiso   1.00
H1488  H     0.92911   0.73696   0.80169   0.00000  Uiso   1.00
H1489  H     0.93056   0.69232   0.76528   0.00000  Uiso   1.00
H1490  H     0.88312   0.72813   0.74910   0.00000  Uiso   1.00
C1491  C     0.76217   0.95358   0.88753   0.00000  Uiso   1.00
H1492  H     0.73755   0.92971   0.86498   0.00000  Uiso   1.00
H1493  H     0.78354   0.93853   0.91756   0.00000  Uiso   1.00
H1494  H     0.73611   0.97435   0.90139   0.00000  Uiso   1.00
H1495  H     0.89002   0.96391   0.78785   0.00000  Uiso   1.00
H1496  H     0.77665   0.70275   0.87882   0.00000  Uiso   1.00
C1497  C     0.76101   0.77525   0.70605   0.00000  Uiso   1.00
H1498  H     0.76871   0.74323   0.69722   0.00000  Uiso   1.00
H1499  H     0.76117   0.77550   0.74329   0.00000  Uiso   1.00
H1500  H     0.72087   0.78085   0.69135   0.00000  Uiso   1.00
C1501  C     0.90566   0.89142   0.96062   0.00000  Uiso   1.00
H1502  H     0.89796   0.92344   0.96944   0.00000  Uiso   1.00
H1503  H     0.94580   0.88582   0.97532   0.00000  Uiso   1.00
H1504  H     0.90550   0.89117   0.92338   0.00000  Uiso   1.00
C1505  C     0.76040   0.77566   0.94217   0.00000  Uiso   1.00
H1506  H     0.76077   0.77553   0.90500   0.00000  Uiso   1.00
H1507  H     0.76721   0.74356   0.95284   0.00000  Uiso   1.00
H1508  H     0.72045   0.78197   0.94685   0.00000  Uiso   1.00
C1509  C     0.90627   0.89101   0.72450   0.00000  Uiso   1.00
H1510  H     0.90590   0.89114   0.76167   0.00000  Uiso   1.00
H1511  H     0.94621   0.88469   0.71982   0.00000  Uiso   1.00
H1512  H     0.89946   0.92311   0.71383   0.00000  Uiso   1.00
loop_
_geom_bond_atom_site_label_1
_geom_bond_atom_site_label_2
_geom_bond_distance
_geom_bond_site_symmetry_2
_ccdc_geom_bond_type
C1     C12     1.448   .     S
C1     O25     1.303   .     A
C1     O23     1.307   .     A
C2     O26     1.303   .     A
C2     O24     1.307   .     A
C2     C11     1.448   .     S
C3     O29     1.304   .     A
C3     O27     1.301   .     A
C3     C5      1.437   .     S
C4     C6      1.437   .     S
C4     O28     1.301   .     A
C4     O30     1.304   .     A
C5     C118    1.337   1_455 S
C5     H131    1.087   1_455 S
C6     C61     1.337   .     S
C6     H76     1.087   .     S
C7     C12     1.411   .     A
C7     C31     1.510   .     S
C7     C345    1.391   1_545 S
C8     C11     1.411   .     A
C8     C35     1.510   .     S
C8     C178    1.391   .     S
C9     C11     1.398   .     A
C9     H39     1.083   .     S
C9     C175    1.391   .     S
C10    C12     1.398   .     A
C10    H40     1.083   .     S
C10    C344    1.391   1_545 S
C13    C41     1.520   .     S
C13    N22     1.382   .     A
C13    C1023   1.436   1_554 S
C14    N21     1.382   .     A
C14    C45     1.520   .     S
C14    C520    1.436   .     S
C15    N21     1.383   .     A
C15    C49     1.520   .     S
C15    C517    1.436   .     S
C16    C53     1.520   .     S
C16    N22     1.383   .     A
C16    C1022   1.436   1_554 S
Cu17   Cu18    2.726   .     S
Cu17   O30     1.958   .     S
Cu17   O23     1.958   .     S
Cu17   O26     1.960   .     S
Cu17   O27     1.957   .     S
Cu17   N21     2.049   .     S
Cu18   O29     1.958   .     S
Cu18   N22     2.049   .     S
Cu18   O25     1.960   .     S
Cu18   O24     1.958   .     S
Cu18   O28     1.957   .     S
H19    C61     1.087   .     S
H20    C118    1.087   1_455 S
C31    H33     1.111   .     S
C31    H32     1.111   .     S
C31    H34     1.110   .     S
C35    H37     1.110   .     S
C35    H38     1.111   .     S
C35    H36     1.111   .     S
C41    H42     1.109   .     S
C41    H43     1.082   .     S
C41    H44     1.109   .     S
C45    H47     1.109   .     S
C45    H48     1.082   .     S
C45    H46     1.109   .     S
C49    H52     1.109   .     S
C49    H51     1.109   .     S
C49    H50     1.082   .     S
C53    H55     1.109   .     S
C53    H54     1.082   .     S
C53    H56     1.109   .     S
C57    C68     1.448   .     S
C57    O81     1.303   .     A
C57    O79     1.307   .     A
C58    O82     1.303   .     A
C58    O80     1.307   .     A
C58    C67     1.448   .     S
C59    O85     1.304   .     A
C59    O83     1.301   .     A
C59    C61     1.437   .     S
C60    C62     1.437   .     S
C60    O84     1.301   .     A
C60    O86     1.304   .     A
C62    C117    1.337   .     S
C62    H132    1.087   .     S
C63    C68     1.411   .     A
C63    C87     1.510   .     S
C63    C401    1.391   1_545 S
C64    C67     1.411   .     A
C64    C91     1.510   .     S
C64    C234    1.391   .     S
C65    C67     1.398   .     A
C65    H95     1.083   .     S
C65    C231    1.391   .     S
C66    C68     1.398   .     A
C66    H96     1.083   .     S
C66    C400    1.391   1_545 S
C69    C97     1.520   .     S
C69    N78     1.382   .     A
C69    C1079   1.436   1_554 S
C70    N77     1.382   .     A
C70    C101    1.520   .     S
C70    C576    1.436   .     S
C71    N77     1.383   .     A
C71    C105    1.520   .     S
C71    C573    1.436   .     S
C72    C109    1.520   .     S
C72    N78     1.383   .     A
C72    C1078   1.436   1_554 S
Cu73   Cu74    2.726   .     S
Cu73   O86     1.958   .     S
Cu73   O79     1.958   .     S
Cu73   O82     1.960   .     S
Cu73   O83     1.957   .     S
Cu73   N77     2.049   .     S
Cu74   O85     1.958   .     S
Cu74   N78     2.049   .     S
Cu74   O81     1.960   .     S
Cu74   O80     1.958   .     S
Cu74   O84     1.957   .     S
H75    C117    1.087   .     S
C87    H89     1.111   .     S
C87    H88     1.111   .     S
C87    H90     1.110   .     S
C91    H93     1.110   .     S
C91    H94     1.111   .     S
C91    H92     1.111   .     S
C97    H98     1.109   .     S
C97    H99     1.082   .     S
C97    H100    1.109   .     S
C101   H103    1.109   .     S
C101   H104    1.082   .     S
C101   H102    1.109   .     S
C105   H108    1.109   .     S
C105   H107    1.109   .     S
C105   H106    1.082   .     S
C109   H111    1.109   .     S
C109   H110    1.082   .     S
C109   H112    1.109   .     S
C113   C124    1.448   .     S
C113   O137    1.303   .     A
C113   O135    1.307   .     A
C114   O138    1.303   .     A
C114   O136    1.307   .     A
C114   C123    1.448   .     S
C115   O141    1.304   .     A
C115   O139    1.301   .     A
C115   C117    1.437   .     S
C116   C118    1.437   .     S
C116   O140    1.301   .     A
C116   O142    1.304   .     A
C118   C5      1.337   1_655 S
C118   H20     1.087   1_655 S
C119   C124    1.411   .     A
C119   C143    1.510   .     S
C119   C457    1.391   1_545 S
C120   C123    1.411   .     A
C120   C147    1.510   .     S
C120   C290    1.391   .     S
C121   C123    1.398   .     A
C121   H151    1.083   .     S
C121   C287    1.391   .     S
C122   C124    1.398   .     A
C122   H152    1.083   .     S
C122   C456    1.391   1_545 S
C125   C153    1.520   .     S
C125   N134    1.382   .     A
C125   C1135   1.436   1_554 S
C126   N133    1.382   .     A
C126   C157    1.520   .     S
C126   C632    1.436   .     S
C127   N133    1.383   .     A
C127   C161    1.520   .     S
C127   C629    1.436   .     S
C128   C165    1.520   .     S
C128   N134    1.383   .     A
C128   C1134   1.436   1_554 S
Cu129  Cu130   2.726   .     S
Cu129  O142    1.958   .     S
Cu129  O135    1.958   .     S
Cu129  O138    1.960   .     S
Cu129  O139    1.957   .     S
Cu129  N133    2.049   .     S
Cu130  O141    1.958   .     S
Cu130  N134    2.049   .     S
Cu130  O137    1.960   .     S
Cu130  O136    1.958   .     S
Cu130  O140    1.957   .     S
H131   C5      1.087   1_655 S
C143   H145    1.111   .     S
C143   H144    1.111   .     S
C143   H146    1.110   .     S
C147   H149    1.110   .     S
C147   H150    1.111   .     S
C147   H148    1.111   .     S
C153   H154    1.109   .     S
C153   H155    1.082   .     S
C153   H156    1.109   .     S
C157   H159    1.109   .     S
C157   H160    1.082   .     S
C157   H158    1.109   .     S
C161   H164    1.109   .     S
C161   H163    1.109   .     S
C161   H162    1.082   .     S
C165   H167    1.109   .     S
C165   H166    1.082   .     S
C165   H168    1.109   .     S
C169   C180    1.448   .     S
C169   O193    1.303   .     A
C169   O191    1.307   .     A
C170   O194    1.303   .     A
C170   O192    1.307   .     A
C170   C179    1.448   .     S
C171   O197    1.304   .     A
C171   O195    1.301   .     A
C171   C173    1.437   .     S
C172   C174    1.437   .     S
C172   O196    1.301   .     A
C172   O198    1.304   .     A
C173   C286    1.337   1_455 S
C173   H299    1.087   1_455 S
C174   C229    1.337   .     S
C174   H244    1.087   .     S
C175   C180    1.411   .     A
C175   C199    1.510   .     S
C176   C179    1.411   .     A
C176   C203    1.510   .     S
C176   C346    1.391   .     S
C177   C179    1.398   .     A
C177   H207    1.083   .     S
C177   C343    1.391   .     S
C178   C180    1.398   .     A
C178   H208    1.083   .     S
C181   C209    1.520   .     S
C181   N190    1.382   .     A
C181   C1191   1.436   1_554 S
C182   N189    1.382   .     A
C182   C213    1.520   .     S
C182   C688    1.436   .     S
C183   N189    1.383   .     A
C183   C217    1.520   .     S
C183   C685    1.436   .     S
C184   C221    1.520   .     S
C184   N190    1.383   .     A
C184   C1190   1.436   1_554 S
Cu185  Cu186   2.726   .     S
Cu185  O198    1.958   .     S
Cu185  O191    1.958   .     S
Cu185  O194    1.960   .     S
Cu185  O195    1.957   .     S
Cu185  N189    2.049   .     S
Cu186  O197    1.958   .     S
Cu186  N190    2.049   .     S
Cu186  O193    1.960   .     S
Cu186  O192    1.958   .     S
Cu186  O196    1.957   .     S
H187   C229    1.087   .     S
H188   C286    1.087   1_455 S
C199   H201    1.111   .     S
C199   H200    1.111   .     S
C199   H202    1.110   .     S
C203   H205    1.110   .     S
C203   H206    1.111   .     S
C203   H204    1.111   .     S
C209   H210    1.109   .     S
C209   H211    1.082   .     S
C209   H212    1.109   .     S
C213   H215    1.109   .     S
C213   H216    1.082   .     S
C213   H214    1.109   .     S
C217   H220    1.109   .     S
C217   H219    1.109   .     S
C217   H218    1.082   .     S
C221   H223    1.109   .     S
C221   H222    1.082   .     S
C221   H224    1.109   .     S
C225   C236    1.448   .     S
C225   O249    1.303   .     A
C225   O247    1.307   .     A
C226   O250    1.303   .     A
C226   O248    1.307   .     A
C226   C235    1.448   .     S
C227   O253    1.304   .     A
C227   O251    1.301   .     A
C227   C229    1.437   .     S
C228   C230    1.437   .     S
C228   O252    1.301   .     A
C228   O254    1.304   .     A
C230   C285    1.337   .     S
C230   H300    1.087   .     S
C231   C236    1.411   .     A
C231   C255    1.510   .     S
C232   C235    1.411   .     A
C232   C259    1.510   .     S
C232   C402    1.391   .     S
C233   C235    1.398   .     A
C233   H263    1.083   .     S
C233   C399    1.391   .     S
C234   C236    1.398   .     A
C234   H264    1.083   .     S
C237   C265    1.520   .     S
C237   N246    1.382   .     A
C237   C1247   1.436   1_554 S
C238   N245    1.382   .     A
C238   C269    1.520   .     S
C238   C744    1.436   .     S
C239   N245    1.383   .     A
C239   C273    1.520   .     S
C239   C741    1.436   .     S
C240   C277    1.520   .     S
C240   N246    1.383   .     A
C240   C1246   1.436   1_554 S
Cu241  Cu242   2.726   .     S
Cu241  O254    1.958   .     S
Cu241  O247    1.958   .     S
Cu241  O250    1.960   .     S
Cu241  O251    1.957   .     S
Cu241  N245    2.049   .     S
Cu242  O253    1.958   .     S
Cu242  N246    2.049   .     S
Cu242  O249    1.960   .     S
Cu242  O248    1.958   .     S
Cu242  O252    1.957   .     S
H243   C285    1.087   .     S
C255   H257    1.111   .     S
C255   H256    1.111   .     S
C255   H258    1.110   .     S
C259   H261    1.110   .     S
C259   H262    1.111   .     S
C259   H260    1.111   .     S
C265   H266    1.109   .     S
C265   H267    1.082   .     S
C265   H268    1.109   .     S
C269   H271    1.109   .     S
C269   H272    1.082   .     S
C269   H270    1.109   .     S
C273   H276    1.109   .     S
C273   H275    1.109   .     S
C273   H274    1.082   .     S
C277   H279    1.109   .     S
C277   H278    1.082   .     S
C277   H280    1.109   .     S
C281   C292    1.448   .     S
C281   O305    1.303   .     A
C281   O303    1.307   .     A
C282   O306    1.303   .     A
C282   O304    1.307   .     A
C282   C291    1.448   .     S
C283   O309    1.304   .     A
C283   O307    1.301   .     A
C283   C285    1.437   .     S
C284   C286    1.437   .     S
C284   O308    1.301   .     A
C284   O310    1.304   .     A
C286   C173    1.337   1_655 S
C286   H188    1.087   1_655 S
C287   C292    1.411   .     A
C287   C311    1.510   .     S
C288   C291    1.411   .     A
C288   C315    1.510   .     S
C288   C458    1.391   .     S
C289   C291    1.398   .     A
C289   H319    1.083   .     S
C289   C455    1.391   .     S
C290   C292    1.398   .     A
C290   H320    1.083   .     S
C293   C321    1.520   .     S
C293   N302    1.382   .     A
C293   C1303   1.436   1_554 S
C294   N301    1.382   .     A
C294   C325    1.520   .     S
C294   C800    1.436   .     S
C295   N301    1.383   .     A
C295   C329    1.520   .     S
C295   C797    1.436   .     S
C296   C333    1.520   .     S
C296   N302    1.383   .     A
C296   C1302   1.436   1_554 S
Cu297  Cu298   2.726   .     S
Cu297  O310    1.958   .     S
Cu297  O303    1.958   .     S
Cu297  O306    1.960   .     S
Cu297  O307    1.957   .     S
Cu297  N301    2.049   .     S
Cu298  O309    1.958   .     S
Cu298  N302    2.049   .     S
Cu298  O305    1.960   .     S
Cu298  O304    1.958   .     S
Cu298  O308    1.957   .     S
H299   C173    1.087   1_655 S
C311   H313    1.111   .     S
C311   H312    1.111   .     S
C311   H314    1.110   .     S
C315   H317    1.110   .     S
C315   H318    1.111   .     S
C315   H316    1.111   .     S
C321   H322    1.109   .     S
C321   H323    1.082   .     S
C321   H324    1.109   .     S
C325   H327    1.109   .     S
C325   H328    1.082   .     S
C325   H326    1.109   .     S
C329   H332    1.109   .     S
C329   H331    1.109   .     S
C329   H330    1.082   .     S
C333   H335    1.109   .     S
C333   H334    1.082   .     S
C333   H336    1.109   .     S
C337   C348    1.448   .     S
C337   O361    1.303   .     A
C337   O359    1.307   .     A
C338   O362    1.303   .     A
C338   O360    1.307   .     A
C338   C347    1.448   .     S
C339   O365    1.304   .     A
C339   O363    1.301   .     A
C339   C341    1.437   .     S
C340   C342    1.437   .     S
C340   O364    1.301   .     A
C340   O366    1.304   .     A
C341   C454    1.337   1_455 S
C341   H467    1.087   1_455 S
C342   C397    1.337   .     S
C342   H412    1.087   .     S
C343   C348    1.411   .     A
C343   C367    1.510   .     S
C344   C347    1.411   .     A
C344   C371    1.510   .     S
C344   C10     1.391   1_565 S
C345   C347    1.398   .     A
C345   H375    1.083   .     S
C345   C7      1.391   1_565 S
C346   C348    1.398   .     A
C346   H376    1.083   .     S
C349   C377    1.520   .     S
C349   N358    1.382   .     A
C349   C1359   1.436   1_554 S
C350   N357    1.382   .     A
C350   C381    1.520   .     S
C350   C856    1.436   .     S
C351   N357    1.383   .     A
C351   C385    1.520   .     S
C351   C853    1.436   .     S
C352   C389    1.520   .     S
C352   N358    1.383   .     A
C352   C1358   1.436   1_554 S
Cu353  Cu354   2.726   .     S
Cu353  O366    1.958   .     S
Cu353  O359    1.958   .     S
Cu353  O362    1.960   .     S
Cu353  O363    1.957   .     S
Cu353  N357    2.049   .     S
Cu354  O365    1.958   .     S
Cu354  N358    2.049   .     S
Cu354  O361    1.960   .     S
Cu354  O360    1.958   .     S
Cu354  O364    1.957   .     S
H355   C397    1.087   .     S
H356   C454    1.087   1_455 S
C367   H369    1.111   .     S
C367   H368    1.111   .     S
C367   H370    1.110   .     S
C371   H373    1.110   .     S
C371   H374    1.111   .     S
C371   H372    1.111   .     S
C377   H378    1.109   .     S
C377   H379    1.082   .     S
C377   H380    1.109   .     S
C381   H383    1.109   .     S
C381   H384    1.082   .     S
C381   H382    1.109   .     S
C385   H388    1.109   .     S
C385   H387    1.109   .     S
C385   H386    1.082   .     S
C389   H391    1.109   .     S
C389   H390    1.082   .     S
C389   H392    1.109   .     S
C393   C404    1.448   .     S
C393   O417    1.303   .     A
C393   O415    1.307   .     A
C394   O418    1.303   .     A
C394   O416    1.307   .     A
C394   C403    1.448   .     S
C395   O421    1.304   .     A
C395   O419    1.301   .     A
C395   C397    1.437   .     S
C396   C398    1.437   .     S
C396   O420    1.301   .     A
C396   O422    1.304   .     A
C398   C453    1.337   .     S
C398   H468    1.087   .     S
C399   C404    1.411   .     A
C399   C423    1.510   .     S
C400   C403    1.411   .     A
C400   C427    1.510   .     S
C400   C66     1.391   1_565 S
C401   C403    1.398   .     A
C401   H431    1.083   .     S
C401   C63     1.391   1_565 S
C402   C404    1.398   .     A
C402   H432    1.083   .     S
C405   C433    1.520   .     S
C405   N414    1.382   .     A
C405   C1415   1.436   1_554 S
C406   N413    1.382   .     A
C406   C437    1.520   .     S
C406   C912    1.436   .     S
C407   N413    1.383   .     A
C407   C441    1.520   .     S
C407   C909    1.436   .     S
C408   C445    1.520   .     S
C408   N414    1.383   .     A
C408   C1414   1.436   1_554 S
Cu409  Cu410   2.726   .     S
Cu409  O422    1.958   .     S
Cu409  O415    1.958   .     S
Cu409  O418    1.960   .     S
Cu409  O419    1.957   .     S
Cu409  N413    2.049   .     S
Cu410  O421    1.958   .     S
Cu410  N414    2.049   .     S
Cu410  O417    1.960   .     S
Cu410  O416    1.958   .     S
Cu410  O420    1.957   .     S
H411   C453    1.087   .     S
C423   H425    1.111   .     S
C423   H424    1.111   .     S
C423   H426    1.110   .     S
C427   H429    1.110   .     S
C427   H430    1.111   .     S
C427   H428    1.111   .     S
C433   H434    1.109   .     S
C433   H435    1.082   .     S
C433   H436    1.109   .     S
C437   H439    1.109   .     S
C437   H440    1.082   .     S
C437   H438    1.109   .     S
C441   H444    1.109   .     S
C441   H443    1.109   .     S
C441   H442    1.082   .     S
C445   H447    1.109   .     S
C445   H446    1.082   .     S
C445   H448    1.109   .     S
C449   C460    1.448   .     S
C449   O473    1.303   .     A
C449   O471    1.307   .     A
C450   O474    1.303   .     A
C450   O472    1.307   .     A
C450   C459    1.448   .     S
C451   O477    1.304   .     A
C451   O475    1.301   .     A
C451   C453    1.437   .     S
C452   C454    1.437   .     S
C452   O476    1.301   .     A
C452   O478    1.304   .     A
C454   C341    1.337   1_655 S
C454   H356    1.087   1_655 S
C455   C460    1.411   .     A
C455   C479    1.510   .     S
C456   C459    1.411   .     A
C456   C483    1.510   .     S
C456   C122    1.391   1_565 S
C457   C459    1.398   .     A
C457   H487    1.083   .     S
C457   C119    1.391   1_565 S
C458   C460    1.398   .     A
C458   H488    1.083   .     S
C461   C489    1.520   .     S
C461   N470    1.382   .     A
C461   C1471   1.436   1_554 S
C462   N469    1.382   .     A
C462   C493    1.520   .     S
C462   C968    1.436   .     S
C463   N469    1.383   .     A
C463   C497    1.520   .     S
C463   C965    1.436   .     S
C464   C501    1.520   .     S
C464   N470    1.383   .     A
C464   C1470   1.436   1_554 S
Cu465  Cu466   2.726   .     S
Cu465  O478    1.958   .     S
Cu465  O471    1.958   .     S
Cu465  O474    1.960   .     S
Cu465  O475    1.957   .     S
Cu465  N469    2.049   .     S
Cu466  O477    1.958   .     S
Cu466  N470    2.049   .     S
Cu466  O473    1.960   .     S
Cu466  O472    1.958   .     S
Cu466  O476    1.957   .     S
H467   C341    1.087   1_655 S
C479   H481    1.111   .     S
C479   H480    1.111   .     S
C479   H482    1.110   .     S
C483   H485    1.110   .     S
C483   H486    1.111   .     S
C483   H484    1.111   .     S
C489   H490    1.109   .     S
C489   H491    1.082   .     S
C489   H492    1.109   .     S
C493   H495    1.109   .     S
C493   H496    1.082   .     S
C493   H494    1.109   .     S
C497   H500    1.109   .     S
C497   H499    1.109   .     S
C497   H498    1.082   .     S
C501   H503    1.109   .     S
C501   H502    1.082   .     S
C501   H504    1.109   .     S
C505   C516    1.448   .     S
C505   O529    1.303   .     A
C505   O527    1.307   .     A
C506   O530    1.303   .     A
C506   O528    1.307   .     A
C506   C515    1.448   .     S
C507   O533    1.304   .     A
C507   O531    1.301   .     A
C507   C509    1.437   .     S
C508   C510    1.437   .     S
C508   O532    1.301   .     A
C508   O534    1.304   .     A
C509   C622    1.337   1_455 S
C509   H635    1.087   1_455 S
C510   C565    1.337   .     S
C510   H580    1.087   .     S
C511   C516    1.411   .     A
C511   C535    1.510   .     S
C511   C849    1.391   1_545 S
C512   C515    1.411   .     A
C512   C539    1.510   .     S
C512   C682    1.391   .     S
C513   C515    1.398   .     A
C513   H543    1.083   .     S
C513   C679    1.391   .     S
C514   C516    1.398   .     A
C514   H544    1.083   .     S
C514   C848    1.391   1_545 S
C517   C545    1.520   .     S
C517   N526    1.382   .     A
C518   N525    1.382   .     A
C518   C549    1.520   .     S
C518   C1024   1.436   .     S
C519   N525    1.383   .     A
C519   C553    1.520   .     S
C519   C1021   1.436   .     S
C520   C557    1.520   .     S
C520   N526    1.383   .     A
Cu521  Cu522   2.726   .     S
Cu521  O534    1.958   .     S
Cu521  O527    1.958   .     S
Cu521  O530    1.960   .     S
Cu521  O531    1.957   .     S
Cu521  N525    2.049   .     S
Cu522  O533    1.958   .     S
Cu522  N526    2.049   .     S
Cu522  O529    1.960   .     S
Cu522  O528    1.958   .     S
Cu522  O532    1.957   .     S
H523   C565    1.087   .     S
H524   C622    1.087   1_455 S
C535   H537    1.111   .     S
C535   H536    1.111   .     S
C535   H538    1.110   .     S
C539   H541    1.110   .     S
C539   H542    1.111   .     S
C539   H540    1.111   .     S
C545   H546    1.109   .     S
C545   H547    1.082   .     S
C545   H548    1.109   .     S
C549   H551    1.109   .     S
C549   H552    1.082   .     S
C549   H550    1.109   .     S
C553   H556    1.109   .     S
C553   H555    1.109   .     S
C553   H554    1.082   .     S
C557   H559    1.109   .     S
C557   H558    1.082   .     S
C557   H560    1.109   .     S
C561   C572    1.448   .     S
C561   O585    1.303   .     A
C561   O583    1.307   .     A
C562   O586    1.303   .     A
C562   O584    1.307   .     A
C562   C571    1.448   .     S
C563   O589    1.304   .     A
C563   O587    1.301   .     A
C563   C565    1.437   .     S
C564   C566    1.437   .     S
C564   O588    1.301   .     A
C564   O590    1.304   .     A
C566   C621    1.337   .     S
C566   H636    1.087   .     S
C567   C572    1.411   .     A
C567   C591    1.510   .     S
C567   C905    1.391   1_545 S
C568   C571    1.411   .     A
C568   C595    1.510   .     S
C568   C738    1.391   .     S
C569   C571    1.398   .     A
C569   H599    1.083   .     S
C569   C735    1.391   .     S
C570   C572    1.398   .     A
C570   H600    1.083   .     S
C570   C904    1.391   1_545 S
C573   C601    1.520   .     S
C573   N582    1.382   .     A
C574   N581    1.382   .     A
C574   C605    1.520   .     S
C574   C1080   1.436   .     S
C575   N581    1.383   .     A
C575   C609    1.520   .     S
C575   C1077   1.436   .     S
C576   C613    1.520   .     S
C576   N582    1.383   .     A
Cu577  Cu578   2.726   .     S
Cu577  O590    1.958   .     S
Cu577  O583    1.958   .     S
Cu577  O586    1.960   .     S
Cu577  O587    1.957   .     S
Cu577  N581    2.049   .     S
Cu578  O589    1.958   .     S
Cu578  N582    2.049   .     S
Cu578  O585    1.960   .     S
Cu578  O584    1.958   .     S
Cu578  O588    1.957   .     S
H579   C621    1.087   .     S
C591   H593    1.111   .     S
C591   H592    1.111   .     S
C591   H594    1.110   .     S
C595   H597    1.110   .     S
C595   H598    1.111   .     S
C595   H596    1.111   .     S
C601   H602    1.109   .     S
C601   H603    1.082   .     S
C601   H604    1.109   .     S
C605   H607    1.109   .     S
C605   H608    1.082   .     S
C605   H606    1.109   .     S
C609   H612    1.109   .     S
C609   H611    1.109   .     S
C609   H610    1.082   .     S
C613   H615    1.109   .     S
C613   H614    1.082   .     S
C613   H616    1.109   .     S
C617   C628    1.448   .     S
C617   O641    1.303   .     A
C617   O639    1.307   .     A
C618   O642    1.303   .     A
C618   O640    1.307   .     A
C618   C627    1.448   .     S
C619   O645    1.304   .     A
C619   O643    1.301   .     A
C619   C621    1.437   .     S
C620   C622    1.437   .     S
C620   O644    1.301   .     A
C620   O646    1.304   .     A
C622   C509    1.337   1_655 S
C622   H524    1.087   1_655 S
C623   C628    1.411   .     A
C623   C647    1.510   .     S
C623   C961    1.391   1_545 S
C624   C627    1.411   .     A
C624   C651    1.510   .     S
C624   C794    1.391   .     S
C625   C627    1.398   .     A
C625   H655    1.083   .     S
C625   C791    1.391   .     S
C626   C628    1.398   .     A
C626   H656    1.083   .     S
C626   C960    1.391   1_545 S
C629   C657    1.520   .     S
C629   N638    1.382   .     A
C630   N637    1.382   .     A
C630   C661    1.520   .     S
C630   C1136   1.436   .     S
C631   N637    1.383   .     A
C631   C665    1.520   .     S
C631   C1133   1.436   .     S
C632   C669    1.520   .     S
C632   N638    1.383   .     A
Cu633  Cu634   2.726   .     S
Cu633  O646    1.958   .     S
Cu633  O639    1.958   .     S
Cu633  O642    1.960   .     S
Cu633  O643    1.957   .     S
Cu633  N637    2.049   .     S
Cu634  O645    1.958   .     S
Cu634  N638    2.049   .     S
Cu634  O641    1.960   .     S
Cu634  O640    1.958   .     S
Cu634  O644    1.957   .     S
H635   C509    1.087   1_655 S
C647   H649    1.111   .     S
C647   H648    1.111   .     S
C647   H650    1.110   .     S
C651   H653    1.110   .     S
C651   H654    1.111   .     S
C651   H652    1.111   .     S
C657   H658    1.109   .     S
C657   H659    1.082   .     S
C657   H660    1.109   .     S
C661   H663    1.109   .     S
C661   H664    1.082   .     S
C661   H662    1.109   .     S
C665   H668    1.109   .     S
C665   H667    1.109   .     S
C665   H666    1.082   .     S
C669   H671    1.109   .     S
C669   H670    1.082   .     S
C669   H672    1.109   .     S
C673   C684    1.448   .     S
C673   O697    1.303   .     A
C673   O695    1.307   .     A
C674   O698    1.303   .     A
C674   O696    1.307   .     A
C674   C683    1.448   .     S
C675   O701    1.304   .     A
C675   O699    1.301   .     A
C675   C677    1.437   .     S
C676   C678    1.437   .     S
C676   O700    1.301   .     A
C676   O702    1.304   .     A
C677   C790    1.337   1_455 S
C677   H803    1.087   1_455 S
C678   C733    1.337   .     S
C678   H748    1.087   .     S
C679   C684    1.411   .     A
C679   C703    1.510   .     S
C680   C683    1.411   .     A
C680   C707    1.510   .     S
C680   C850    1.391   .     S
C681   C683    1.398   .     A
C681   H711    1.083   .     S
C681   C847    1.391   .     S
C682   C684    1.398   .     A
C682   H712    1.083   .     S
C685   C713    1.520   .     S
C685   N694    1.382   .     A
C686   N693    1.382   .     A
C686   C717    1.520   .     S
C686   C1192   1.436   .     S
C687   N693    1.383   .     A
C687   C721    1.520   .     S
C687   C1189   1.436   .     S
C688   C725    1.520   .     S
C688   N694    1.383   .     A
Cu689  Cu690   2.726   .     S
Cu689  O702    1.958   .     S
Cu689  O695    1.958   .     S
Cu689  O698    1.960   .     S
Cu689  O699    1.957   .     S
Cu689  N693    2.049   .     S
Cu690  O701    1.958   .     S
Cu690  N694    2.049   .     S
Cu690  O697    1.960   .     S
Cu690  O696    1.958   .     S
Cu690  O700    1.957   .     S
H691   C733    1.087   .     S
H692   C790    1.087   1_455 S
C703   H705    1.111   .     S
C703   H704    1.111   .     S
C703   H706    1.110   .     S
C707   H709    1.110   .     S
C707   H710    1.111   .     S
C707   H708    1.111   .     S
C713   H714    1.109   .     S
C713   H715    1.082   .     S
C713   H716    1.109   .     S
C717   H719    1.109   .     S
C717   H720    1.082   .     S
C717   H718    1.109   .     S
C721   H724    1.109   .     S
C721   H723    1.109   .     S
C721   H722    1.082   .     S
C725   H727    1.109   .     S
C725   H726    1.082   .     S
C725   H728    1.109   .     S
C729   C740    1.448   .     S
C729   O753    1.303   .     A
C729   O751    1.307   .     A
C730   O754    1.303   .     A
C730   O752    1.307   .     A
C730   C739    1.448   .     S
C731   O757    1.304   .     A
C731   O755    1.301   .     A
C731   C733    1.437   .     S
C732   C734    1.437   .     S
C732   O756    1.301   .     A
C732   O758    1.304   .     A
C734   C789    1.337   .     S
C734   H804    1.087   .     S
C735   C740    1.411   .     A
C735   C759    1.510   .     S
C736   C739    1.411   .     A
C736   C763    1.510   .     S
C736   C906    1.391   .     S
C737   C739    1.398   .     A
C737   H767    1.083   .     S
C737   C903    1.391   .     S
C738   C740    1.398   .     A
C738   H768    1.083   .     S
C741   C769    1.520   .     S
C741   N750    1.382   .     A
C742   N749    1.382   .     A
C742   C773    1.520   .     S
C742   C1248   1.436   .     S
C743   N749    1.383   .     A
C743   C777    1.520   .     S
C743   C1245   1.436   .     S
C744   C781    1.520   .     S
C744   N750    1.383   .     A
Cu745  Cu746   2.726   .     S
Cu745  O758    1.958   .     S
Cu745  O751    1.958   .     S
Cu745  O754    1.960   .     S
Cu745  O755    1.957   .     S
Cu745  N749    2.049   .     S
Cu746  O757    1.958   .     S
Cu746  N750    2.049   .     S
Cu746  O753    1.960   .     S
Cu746  O752    1.958   .     S
Cu746  O756    1.957   .     S
H747   C789    1.087   .     S
C759   H761    1.111   .     S
C759   H760    1.111   .     S
C759   H762    1.110   .     S
C763   H765    1.110   .     S
C763   H766    1.111   .     S
C763   H764    1.111   .     S
C769   H770    1.109   .     S
C769   H771    1.082   .     S
C769   H772    1.109   .     S
C773   H775    1.109   .     S
C773   H776    1.082   .     S
C773   H774    1.109   .     S
C777   H780    1.109   .     S
C777   H779    1.109   .     S
C777   H778    1.082   .     S
C781   H783    1.109   .     S
C781   H782    1.082   .     S
C781   H784    1.109   .     S
C785   C796    1.448   .     S
C785   O809    1.303   .     A
C785   O807    1.307   .     A
C786   O810    1.303   .     A
C786   O808    1.307   .     A
C786   C795    1.448   .     S
C787   O813    1.304   .     A
C787   O811    1.301   .     A
C787   C789    1.437   .     S
C788   C790    1.437   .     S
C788   O812    1.301   .     A
C788   O814    1.304   .     A
C790   C677    1.337   1_655 S
C790   H692    1.087   1_655 S
C791   C796    1.411   .     A
C791   C815    1.510   .     S
C792   C795    1.411   .     A
C792   C819    1.510   .     S
C792   C962    1.391   .     S
C793   C795    1.398   .     A
C793   H823    1.083   .     S
C793   C959    1.391   .     S
C794   C796    1.398   .     A
C794   H824    1.083   .     S
C797   C825    1.520   .     S
C797   N806    1.382   .     A
C798   N805    1.382   .     A
C798   C829    1.520   .     S
C798   C1304   1.436   .     S
C799   N805    1.383   .     A
C799   C833    1.520   .     S
C799   C1301   1.436   .     S
C800   C837    1.520   .     S
C800   N806    1.383   .     A
Cu801  Cu802   2.726   .     S
Cu801  O814    1.958   .     S
Cu801  O807    1.958   .     S
Cu801  O810    1.960   .     S
Cu801  O811    1.957   .     S
Cu801  N805    2.049   .     S
Cu802  O813    1.958   .     S
Cu802  N806    2.049   .     S
Cu802  O809    1.960   .     S
Cu802  O808    1.958   .     S
Cu802  O812    1.957   .     S
H803   C677    1.087   1_655 S
C815   H817    1.111   .     S
C815   H816    1.111   .     S
C815   H818    1.110   .     S
C819   H821    1.110   .     S
C819   H822    1.111   .     S
C819   H820    1.111   .     S
C825   H826    1.109   .     S
C825   H827    1.082   .     S
C825   H828    1.109   .     S
C829   H831    1.109   .     S
C829   H832    1.082   .     S
C829   H830    1.109   .     S
C833   H836    1.109   .     S
C833   H835    1.109   .     S
C833   H834    1.082   .     S
C837   H839    1.109   .     S
C837   H838    1.082   .     S
C837   H840    1.109   .     S
C841   C852    1.448   .     S
C841   O865    1.303   .     A
C841   O863    1.307   .     A
C842   O866    1.303   .     A
C842   O864    1.307   .     A
C842   C851    1.448   .     S
C843   O869    1.304   .     A
C843   O867    1.301   .     A
C843   C845    1.437   .     S
C844   C846    1.437   .     S
C844   O868    1.301   .     A
C844   O870    1.304   .     A
C845   C958    1.337   1_455 S
C845   H971    1.087   1_455 S
C846   C901    1.337   .     S
C846   H916    1.087   .     S
C847   C852    1.411   .     A
C847   C871    1.510   .     S
C848   C851    1.411   .     A
C848   C875    1.510   .     S
C848   C514    1.391   1_565 S
C849   C851    1.398   .     A
C849   H879    1.083   .     S
C849   C511    1.391   1_565 S
C850   C852    1.398   .     A
C850   H880    1.083   .     S
C853   C881    1.520   .     S
C853   N862    1.382   .     A
C854   N861    1.382   .     A
C854   C885    1.520   .     S
C854   C1360   1.436   .     S
C855   N861    1.383   .     A
C855   C889    1.520   .     S
C855   C1357   1.436   .     S
C856   C893    1.520   .     S
C856   N862    1.383   .     A
Cu857  Cu858   2.726   .     S
Cu857  O870    1.958   .     S
Cu857  O863    1.958   .     S
Cu857  O866    1.960   .     S
Cu857  O867    1.957   .     S
Cu857  N861    2.049   .     S
Cu858  O869    1.958   .     S
Cu858  N862    2.049   .     S
Cu858  O865    1.960   .     S
Cu858  O864    1.958   .     S
Cu858  O868    1.957   .     S
H859   C901    1.087   .     S
H860   C958    1.087   1_455 S
C871   H873    1.111   .     S
C871   H872    1.111   .     S
C871   H874    1.110   .     S
C875   H877    1.110   .     S
C875   H878    1.111   .     S
C875   H876    1.111   .     S
C881   H882    1.109   .     S
C881   H883    1.082   .     S
C881   H884    1.109   .     S
C885   H887    1.109   .     S
C885   H888    1.082   .     S
C885   H886    1.109   .     S
C889   H892    1.109   .     S
C889   H891    1.109   .     S
C889   H890    1.082   .     S
C893   H895    1.109   .     S
C893   H894    1.082   .     S
C893   H896    1.109   .     S
C897   C908    1.448   .     S
C897   O921    1.303   .     A
C897   O919    1.307   .     A
C898   O922    1.303   .     A
C898   O920    1.307   .     A
C898   C907    1.448   .     S
C899   O925    1.304   .     A
C899   O923    1.301   .     A
C899   C901    1.437   .     S
C900   C902    1.437   .     S
C900   O924    1.301   .     A
C900   O926    1.304   .     A
C902   C957    1.337   .     S
C902   H972    1.087   .     S
C903   C908    1.411   .     A
C903   C927    1.510   .     S
C904   C907    1.411   .     A
C904   C931    1.510   .     S
C904   C570    1.391   1_565 S
C905   C907    1.398   .     A
C905   H935    1.083   .     S
C905   C567    1.391   1_565 S
C906   C908    1.398   .     A
C906   H936    1.083   .     S
C909   C937    1.520   .     S
C909   N918    1.382   .     A
C910   N917    1.382   .     A
C910   C941    1.520   .     S
C910   C1416   1.436   .     S
C911   N917    1.383   .     A
C911   C945    1.520   .     S
C911   C1413   1.436   .     S
C912   C949    1.520   .     S
C912   N918    1.383   .     A
Cu913  Cu914   2.726   .     S
Cu913  O926    1.958   .     S
Cu913  O919    1.958   .     S
Cu913  O922    1.960   .     S
Cu913  O923    1.957   .     S
Cu913  N917    2.049   .     S
Cu914  O925    1.958   .     S
Cu914  N918    2.049   .     S
Cu914  O921    1.960   .     S
Cu914  O920    1.958   .     S
Cu914  O924    1.957   .     S
H915   C957    1.087   .     S
C927   H929    1.111   .     S
C927   H928    1.111   .     S
C927   H930    1.110   .     S
C931   H933    1.110   .     S
C931   H934    1.111   .     S
C931   H932    1.111   .     S
C937   H938    1.109   .     S
C937   H939    1.082   .     S
C937   H940    1.109   .     S
C941   H943    1.109   .     S
C941   H944    1.082   .     S
C941   H942    1.109   .     S
C945   H948    1.109   .     S
C945   H947    1.109   .     S
C945   H946    1.082   .     S
C949   H951    1.109   .     S
C949   H950    1.082   .     S
C949   H952    1.109   .     S
C953   C964    1.448   .     S
C953   O977    1.303   .     A
C953   O975    1.307   .     A
C954   O978    1.303   .     A
C954   O976    1.307   .     A
C954   C963    1.448   .     S
C955   O981    1.304   .     A
C955   O979    1.301   .     A
C955   C957    1.437   .     S
C956   C958    1.437   .     S
C956   O980    1.301   .     A
C956   O982    1.304   .     A
C958   C845    1.337   1_655 S
C958   H860    1.087   1_655 S
C959   C964    1.411   .     A
C959   C983    1.510   .     S
C960   C963    1.411   .     A
C960   C987    1.510   .     S
C960   C626    1.391   1_565 S
C961   C963    1.398   .     A
C961   H991    1.083   .     S
C961   C623    1.391   1_565 S
C962   C964    1.398   .     A
C962   H992    1.083   .     S
C965   C993    1.520   .     S
C965   N974    1.382   .     A
C966   N973    1.382   .     A
C966   C997    1.520   .     S
C966   C1472   1.436   .     S
C967   N973    1.383   .     A
C967   C1001   1.520   .     S
C967   C1469   1.436   .     S
C968   C1005   1.520   .     S
C968   N974    1.383   .     A
Cu969  Cu970   2.726   .     S
Cu969  O982    1.958   .     S
Cu969  O975    1.958   .     S
Cu969  O978    1.960   .     S
Cu969  O979    1.957   .     S
Cu969  N973    2.049   .     S
Cu970  O981    1.958   .     S
Cu970  N974    2.049   .     S
Cu970  O977    1.960   .     S
Cu970  O976    1.958   .     S
Cu970  O980    1.957   .     S
H971   C845    1.087   1_655 S
C983   H985    1.111   .     S
C983   H984    1.111   .     S
C983   H986    1.110   .     S
C987   H989    1.110   .     S
C987   H990    1.111   .     S
C987   H988    1.111   .     S
C993   H994    1.109   .     S
C993   H995    1.082   .     S
C993   H996    1.109   .     S
C997   H999    1.109   .     S
C997   H1000   1.082   .     S
C997   H998    1.109   .     S
C1001  H1004   1.109   .     S
C1001  H1003   1.109   .     S
C1001  H1002   1.082   .     S
C1005  H1007   1.109   .     S
C1005  H1006   1.082   .     S
C1005  H1008   1.109   .     S
C1009  C1020   1.448   .     S
C1009  O1033   1.303   .     A
C1009  O1031   1.307   .     A
C1010  O1034   1.303   .     A
C1010  O1032   1.307   .     A
C1010  C1019   1.448   .     S
C1011  O1037   1.304   .     A
C1011  O1035   1.301   .     A
C1011  C1013   1.437   .     S
C1012  C1014   1.437   .     S
C1012  O1036   1.301   .     A
C1012  O1038   1.304   .     A
C1013  C1126   1.337   1_455 S
C1013  H1139   1.087   1_455 S
C1014  C1069   1.337   .     S
C1014  H1084   1.087   .     S
C1015  C1020   1.411   .     A
C1015  C1039   1.510   .     S
C1015  C1353   1.391   1_545 S
C1016  C1019   1.411   .     A
C1016  C1043   1.510   .     S
C1016  C1186   1.391   .     S
C1017  C1019   1.398   .     A
C1017  H1047   1.083   .     S
C1017  C1183   1.391   .     S
C1018  C1020   1.398   .     A
C1018  H1048   1.083   .     S
C1018  C1352   1.391   1_545 S
C1021  C1049   1.520   .     S
C1021  N1030   1.382   .     A
C1022  N1029   1.382   .     A
C1022  C1053   1.520   .     S
C1022  C16     1.436   1_556 S
C1023  N1029   1.383   .     A
C1023  C1057   1.520   .     S
C1023  C13     1.436   1_556 S
C1024  C1061   1.520   .     S
C1024  N1030   1.383   .     A
Cu1025 Cu1026  2.726   .     S
Cu1025 O1038   1.958   .     S
Cu1025 O1031   1.958   .     S
Cu1025 O1034   1.960   .     S
Cu1025 O1035   1.957   .     S
Cu1025 N1029   2.049   .     S
Cu1026 O1037   1.958   .     S
Cu1026 N1030   2.049   .     S
Cu1026 O1033   1.960   .     S
Cu1026 O1032   1.958   .     S
Cu1026 O1036   1.957   .     S
H1027  C1069   1.087   .     S
H1028  C1126   1.087   1_455 S
C1039  H1041   1.111   .     S
C1039  H1040   1.111   .     S
C1039  H1042   1.110   .     S
C1043  H1045   1.110   .     S
C1043  H1046   1.111   .     S
C1043  H1044   1.111   .     S
C1049  H1050   1.109   .     S
C1049  H1051   1.082   .     S
C1049  H1052   1.109   .     S
C1053  H1055   1.109   .     S
C1053  H1056   1.082   .     S
C1053  H1054   1.109   .     S
C1057  H1060   1.109   .     S
C1057  H1059   1.109   .     S
C1057  H1058   1.082   .     S
C1061  H1063   1.109   .     S
C1061  H1062   1.082   .     S
C1061  H1064   1.109   .     S
C1065  C1076   1.448   .     S
C1065  O1089   1.303   .     A
C1065  O1087   1.307   .     A
C1066  O1090   1.303   .     A
C1066  O1088   1.307   .     A
C1066  C1075   1.448   .     S
C1067  O1093   1.304   .     A
C1067  O1091   1.301   .     A
C1067  C1069   1.437   .     S
C1068  C1070   1.437   .     S
C1068  O1092   1.301   .     A
C1068  O1094   1.304   .     A
C1070  C1125   1.337   .     S
C1070  H1140   1.087   .     S
C1071  C1076   1.411   .     A
C1071  C1095   1.510   .     S
C1071  C1409   1.391   1_545 S
C1072  C1075   1.411   .     A
C1072  C1099   1.510   .     S
C1072  C1242   1.391   .     S
C1073  C1075   1.398   .     A
C1073  H1103   1.083   .     S
C1073  C1239   1.391   .     S
C1074  C1076   1.398   .     A
C1074  H1104   1.083   .     S
C1074  C1408   1.391   1_545 S
C1077  C1105   1.520   .     S
C1077  N1086   1.382   .     A
C1078  N1085   1.382   .     A
C1078  C1109   1.520   .     S
C1078  C72     1.436   1_556 S
C1079  N1085   1.383   .     A
C1079  C1113   1.520   .     S
C1079  C69     1.436   1_556 S
C1080  C1117   1.520   .     S
C1080  N1086   1.383   .     A
Cu1081 Cu1082  2.726   .     S
Cu1081 O1094   1.958   .     S
Cu1081 O1087   1.958   .     S
Cu1081 O1090   1.960   .     S
Cu1081 O1091   1.957   .     S
Cu1081 N1085   2.049   .     S
Cu1082 O1093   1.958   .     S
Cu1082 N1086   2.049   .     S
Cu1082 O1089   1.960   .     S
Cu1082 O1088   1.958   .     S
Cu1082 O1092   1.957   .     S
H1083  C1125   1.087   .     S
C1095  H1097   1.111   .     S
C1095  H1096   1.111   .     S
C1095  H1098   1.110   .     S
C1099  H1101   1.110   .     S
C1099  H1102   1.111   .     S
C1099  H1100   1.111   .     S
C1105  H1106   1.109   .     S
C1105  H1107   1.082   .     S
C1105  H1108   1.109   .     S
C1109  H1111   1.109   .     S
C1109  H1112   1.082   .     S
C1109  H1110   1.109   .     S
C1113  H1116   1.109   .     S
C1113  H1115   1.109   .     S
C1113  H1114   1.082   .     S
C1117  H1119   1.109   .     S
C1117  H1118   1.082   .     S
C1117  H1120   1.109   .     S
C1121  C1132   1.448   .     S
C1121  O1145   1.303   .     A
C1121  O1143   1.307   .     A
C1122  O1146   1.303   .     A
C1122  O1144   1.307   .     A
C1122  C1131   1.448   .     S
C1123  O1149   1.304   .     A
C1123  O1147   1.301   .     A
C1123  C1125   1.437   .     S
C1124  C1126   1.437   .     S
C1124  O1148   1.301   .     A
C1124  O1150   1.304   .     A
C1126  C1013   1.337   1_655 S
C1126  H1028   1.087   1_655 S
C1127  C1132   1.411   .     A
C1127  C1151   1.510   .     S
C1127  C1465   1.391   1_545 S
C1128  C1131   1.411   .     A
C1128  C1155   1.510   .     S
C1128  C1298   1.391   .     S
C1129  C1131   1.398   .     A
C1129  H1159   1.083   .     S
C1129  C1295   1.391   .     S
C1130  C1132   1.398   .     A
C1130  H1160   1.083   .     S
C1130  C1464   1.391   1_545 S
C1133  C1161   1.520   .     S
C1133  N1142   1.382   .     A
C1134  N1141   1.382   .     A
C1134  C1165   1.520   .     S
C1134  C128    1.436   1_556 S
C1135  N1141   1.383   .     A
C1135  C1169   1.520   .     S
C1135  C125    1.436   1_556 S
C1136  C1173   1.520   .     S
C1136  N1142   1.383   .     A
Cu1137 Cu1138  2.726   .     S
Cu1137 O1150   1.958   .     S
Cu1137 O1143   1.958   .     S
Cu1137 O1146   1.960   .     S
Cu1137 O1147   1.957   .     S
Cu1137 N1141   2.049   .     S
Cu1138 O1149   1.958   .     S
Cu1138 N1142   2.049   .     S
Cu1138 O1145   1.960   .     S
Cu1138 O1144   1.958   .     S
Cu1138 O1148   1.957   .     S
H1139  C1013   1.087   1_655 S
C1151  H1153   1.111   .     S
C1151  H1152   1.111   .     S
C1151  H1154   1.110   .     S
C1155  H1157   1.110   .     S
C1155  H1158   1.111   .     S
C1155  H1156   1.111   .     S
C1161  H1162   1.109   .     S
C1161  H1163   1.082   .     S
C1161  H1164   1.109   .     S
C1165  H1167   1.109   .     S
C1165  H1168   1.082   .     S
C1165  H1166   1.109   .     S
C1169  H1172   1.109   .     S
C1169  H1171   1.109   .     S
C1169  H1170   1.082   .     S
C1173  H1175   1.109   .     S
C1173  H1174   1.082   .     S
C1173  H1176   1.109   .     S
C1177  C1188   1.448   .     S
C1177  O1201   1.303   .     A
C1177  O1199   1.307   .     A
C1178  O1202   1.303   .     A
C1178  O1200   1.307   .     A
C1178  C1187   1.448   .     S
C1179  O1205   1.304   .     A
C1179  O1203   1.301   .     A
C1179  C1181   1.437   .     S
C1180  C1182   1.437   .     S
C1180  O1204   1.301   .     A
C1180  O1206   1.304   .     A
C1181  C1294   1.337   1_455 S
C1181  H1307   1.087   1_455 S
C1182  C1237   1.337   .     S
C1182  H1252   1.087   .     S
C1183  C1188   1.411   .     A
C1183  C1207   1.510   .     S
C1184  C1187   1.411   .     A
C1184  C1211   1.510   .     S
C1184  C1354   1.391   .     S
C1185  C1187   1.398   .     A
C1185  H1215   1.083   .     S
C1185  C1351   1.391   .     S
C1186  C1188   1.398   .     A
C1186  H1216   1.083   .     S
C1189  C1217   1.520   .     S
C1189  N1198   1.382   .     A
C1190  N1197   1.382   .     A
C1190  C1221   1.520   .     S
C1190  C184    1.436   1_556 S
C1191  N1197   1.383   .     A
C1191  C1225   1.520   .     S
C1191  C181    1.436   1_556 S
C1192  C1229   1.520   .     S
C1192  N1198   1.383   .     A
Cu1193 Cu1194  2.726   .     S
Cu1193 O1206   1.958   .     S
Cu1193 O1199   1.958   .     S
Cu1193 O1202   1.960   .     S
Cu1193 O1203   1.957   .     S
Cu1193 N1197   2.049   .     S
Cu1194 O1205   1.958   .     S
Cu1194 N1198   2.049   .     S
Cu1194 O1201   1.960   .     S
Cu1194 O1200   1.958   .     S
Cu1194 O1204   1.957   .     S
H1195  C1237   1.087   .     S
H1196  C1294   1.087   1_455 S
C1207  H1209   1.111   .     S
C1207  H1208   1.111   .     S
C1207  H1210   1.110   .     S
C1211  H1213   1.110   .     S
C1211  H1214   1.111   .     S
C1211  H1212   1.111   .     S
C1217  H1218   1.109   .     S
C1217  H1219   1.082   .     S
C1217  H1220   1.109   .     S
C1221  H1223   1.109   .     S
C1221  H1224   1.082   .     S
C1221  H1222   1.109   .     S
C1225  H1228   1.109   .     S
C1225  H1227   1.109   .     S
C1225  H1226   1.082   .     S
C1229  H1231   1.109   .     S
C1229  H1230   1.082   .     S
C1229  H1232   1.109   .     S
C1233  C1244   1.448   .     S
C1233  O1257   1.303   .     A
C1233  O1255   1.307   .     A
C1234  O1258   1.303   .     A
C1234  O1256   1.307   .     A
C1234  C1243   1.448   .     S
C1235  O1261   1.304   .     A
C1235  O1259   1.301   .     A
C1235  C1237   1.437   .     S
C1236  C1238   1.437   .     S
C1236  O1260   1.301   .     A
C1236  O1262   1.304   .     A
C1238  C1293   1.337   .     S
C1238  H1308   1.087   .     S
C1239  C1244   1.411   .     A
C1239  C1263   1.510   .     S
C1240  C1243   1.411   .     A
C1240  C1267   1.510   .     S
C1240  C1410   1.391   .     S
C1241  C1243   1.398   .     A
C1241  H1271   1.083   .     S
C1241  C1407   1.391   .     S
C1242  C1244   1.398   .     A
C1242  H1272   1.083   .     S
C1245  C1273   1.520   .     S
C1245  N1254   1.382   .     A
C1246  N1253   1.382   .     A
C1246  C1277   1.520   .     S
C1246  C240    1.436   1_556 S
C1247  N1253   1.383   .     A
C1247  C1281   1.520   .     S
C1247  C237    1.436   1_556 S
C1248  C1285   1.520   .     S
C1248  N1254   1.383   .     A
Cu1249 Cu1250  2.726   .     S
Cu1249 O1262   1.958   .     S
Cu1249 O1255   1.958   .     S
Cu1249 O1258   1.960   .     S
Cu1249 O1259   1.957   .     S
Cu1249 N1253   2.049   .     S
Cu1250 O1261   1.958   .     S
Cu1250 N1254   2.049   .     S
Cu1250 O1257   1.960   .     S
Cu1250 O1256   1.958   .     S
Cu1250 O1260   1.957   .     S
H1251  C1293   1.087   .     S
C1263  H1265   1.111   .     S
C1263  H1264   1.111   .     S
C1263  H1266   1.110   .     S
C1267  H1269   1.110   .     S
C1267  H1270   1.111   .     S
C1267  H1268   1.111   .     S
C1273  H1274   1.109   .     S
C1273  H1275   1.082   .     S
C1273  H1276   1.109   .     S
C1277  H1279   1.109   .     S
C1277  H1280   1.082   .     S
C1277  H1278   1.109   .     S
C1281  H1284   1.109   .     S
C1281  H1283   1.109   .     S
C1281  H1282   1.082   .     S
C1285  H1287   1.109   .     S
C1285  H1286   1.082   .     S
C1285  H1288   1.109   .     S
C1289  C1300   1.448   .     S
C1289  O1313   1.303   .     A
C1289  O1311   1.307   .     A
C1290  O1314   1.303   .     A
C1290  O1312   1.307   .     A
C1290  C1299   1.448   .     S
C1291  O1317   1.304   .     A
C1291  O1315   1.301   .     A
C1291  C1293   1.437   .     S
C1292  C1294   1.437   .     S
C1292  O1316   1.301   .     A
C1292  O1318   1.304   .     A
C1294  C1181   1.337   1_655 S
C1294  H1196   1.087   1_655 S
C1295  C1300   1.411   .     A
C1295  C1319   1.510   .     S
C1296  C1299   1.411   .     A
C1296  C1323   1.510   .     S
C1296  C1466   1.391   .     S
C1297  C1299   1.398   .     A
C1297  H1327   1.083   .     S
C1297  C1463   1.391   .     S
C1298  C1300   1.398   .     A
C1298  H1328   1.083   .     S
C1301  C1329   1.520   .     S
C1301  N1310   1.382   .     A
C1302  N1309   1.382   .     A
C1302  C1333   1.520   .     S
C1302  C296    1.436   1_556 S
C1303  N1309   1.383   .     A
C1303  C1337   1.520   .     S
C1303  C293    1.436   1_556 S
C1304  C1341   1.520   .     S
C1304  N1310   1.383   .     A
Cu1305 Cu1306  2.726   .     S
Cu1305 O1318   1.958   .     S
Cu1305 O1311   1.958   .     S
Cu1305 O1314   1.960   .     S
Cu1305 O1315   1.957   .     S
Cu1305 N1309   2.049   .     S
Cu1306 O1317   1.958   .     S
Cu1306 N1310   2.049   .     S
Cu1306 O1313   1.960   .     S
Cu1306 O1312   1.958   .     S
Cu1306 O1316   1.957   .     S
H1307  C1181   1.087   1_655 S
C1319  H1321   1.111   .     S
C1319  H1320   1.111   .     S
C1319  H1322   1.110   .     S
C1323  H1325   1.110   .     S
C1323  H1326   1.111   .     S
C1323  H1324   1.111   .     S
C1329  H1330   1.109   .     S
C1329  H1331   1.082   .     S
C1329  H1332   1.109   .     S
C1333  H1335   1.109   .     S
C1333  H1336   1.082   .     S
C1333  H1334   1.109   .     S
C1337  H1340   1.109   .     S
C1337  H1339   1.109   .     S
C1337  H1338   1.082   .     S
C1341  H1343   1.109   .     S
C1341  H1342   1.082   .     S
C1341  H1344   1.109   .     S
C1345  C1356   1.448   .     S
C1345  O1369   1.303   .     A
C1345  O1367   1.307   .     A
C1346  O1370   1.303   .     A
C1346  O1368   1.307   .     A
C1346  C1355   1.448   .     S
C1347  O1373   1.304   .     A
C1347  O1371   1.301   .     A
C1347  C1349   1.437   .     S
C1348  C1350   1.437   .     S
C1348  O1372   1.301   .     A
C1348  O1374   1.304   .     A
C1349  C1462   1.337   1_455 S
C1349  H1475   1.087   1_455 S
C1350  C1405   1.337   .     S
C1350  H1420   1.087   .     S
C1351  C1356   1.411   .     A
C1351  C1375   1.510   .     S
C1352  C1355   1.411   .     A
C1352  C1379   1.510   .     S
C1352  C1018   1.391   1_565 S
C1353  C1355   1.398   .     A
C1353  H1383   1.083   .     S
C1353  C1015   1.391   1_565 S
C1354  C1356   1.398   .     A
C1354  H1384   1.083   .     S
C1357  C1385   1.520   .     S
C1357  N1366   1.382   .     A
C1358  N1365   1.382   .     A
C1358  C1389   1.520   .     S
C1358  C352    1.436   1_556 S
C1359  N1365   1.383   .     A
C1359  C1393   1.520   .     S
C1359  C349    1.436   1_556 S
C1360  C1397   1.520   .     S
C1360  N1366   1.383   .     A
Cu1361 Cu1362  2.726   .     S
Cu1361 O1374   1.958   .     S
Cu1361 O1367   1.958   .     S
Cu1361 O1370   1.960   .     S
Cu1361 O1371   1.957   .     S
Cu1361 N1365   2.049   .     S
Cu1362 O1373   1.958   .     S
Cu1362 N1366   2.049   .     S
Cu1362 O1369   1.960   .     S
Cu1362 O1368   1.958   .     S
Cu1362 O1372   1.957   .     S
H1363  C1405   1.087   .     S
H1364  C1462   1.087   1_455 S
C1375  H1377   1.111   .     S
C1375  H1376   1.111   .     S
C1375  H1378   1.110   .     S
C1379  H1381   1.110   .     S
C1379  H1382   1.111   .     S
C1379  H1380   1.111   .     S
C1385  H1386   1.109   .     S
C1385  H1387   1.082   .     S
C1385  H1388   1.109   .     S
C1389  H1391   1.109   .     S
C1389  H1392   1.082   .     S
C1389  H1390   1.109   .     S
C1393  H1396   1.109   .     S
C1393  H1395   1.109   .     S
C1393  H1394   1.082   .     S
C1397  H1399   1.109   .     S
C1397  H1398   1.082   .     S
C1397  H1400   1.109   .     S
C1401  C1412   1.448   .     S
C1401  O1425   1.303   .     A
C1401  O1423   1.307   .     A
C1402  O1426   1.303   .     A
C1402  O1424   1.307   .     A
C1402  C1411   1.448   .     S
C1403  O1429   1.304   .     A
C1403  O1427   1.301   .     A
C1403  C1405   1.437   .     S
C1404  C1406   1.437   .     S
C1404  O1428   1.301   .     A
C1404  O1430   1.304   .     A
C1406  C1461   1.337   .     S
C1406  H1476   1.087   .     S
C1407  C1412   1.411   .     A
C1407  C1431   1.510   .     S
C1408  C1411   1.411   .     A
C1408  C1435   1.510   .     S
C1408  C1074   1.391   1_565 S
C1409  C1411   1.398   .     A
C1409  H1439   1.083   .     S
C1409  C1071   1.391   1_565 S
C1410  C1412   1.398   .     A
C1410  H1440   1.083   .     S
C1413  C1441   1.520   .     S
C1413  N1422   1.382   .     A
C1414  N1421   1.382   .     A
C1414  C1445   1.520   .     S
C1414  C408    1.436   1_556 S
C1415  N1421   1.383   .     A
C1415  C1449   1.520   .     S
C1415  C405    1.436   1_556 S
C1416  C1453   1.520   .     S
C1416  N1422   1.383   .     A
Cu1417 Cu1418  2.726   .     S
Cu1417 O1430   1.958   .     S
Cu1417 O1423   1.958   .     S
Cu1417 O1426   1.960   .     S
Cu1417 O1427   1.957   .     S
Cu1417 N1421   2.049   .     S
Cu1418 O1429   1.958   .     S
Cu1418 N1422   2.049   .     S
Cu1418 O1425   1.960   .     S
Cu1418 O1424   1.958   .     S
Cu1418 O1428   1.957   .     S
H1419  C1461   1.087   .     S
C1431  H1433   1.111   .     S
C1431  H1432   1.111   .     S
C1431  H1434   1.110   .     S
C1435  H1437   1.110   .     S
C1435  H1438   1.111   .     S
C1435  H1436   1.111   .     S
C1441  H1442   1.109   .     S
C1441  H1443   1.082   .     S
C1441  H1444   1.109   .     S
C1445  H1447   1.109   .     S
C1445  H1448   1.082   .     S
C1445  H1446   1.109   .     S
C1449  H1452   1.109   .     S
C1449  H1451   1.109   .     S
C1449  H1450   1.082   .     S
C1453  H1455   1.109   .     S
C1453  H1454   1.082   .     S
C1453  H1456   1.109   .     S
C1457  C1468   1.448   .     S
C1457  O1481   1.303   .     A
C1457  O1479   1.307   .     A
C1458  O1482   1.303   .     A
C1458  O1480   1.307   .     A
C1458  C1467   1.448   .     S
C1459  O1485   1.304   .     A
C1459  O1483   1.301   .     A
C1459  C1461   1.437   .     S
C1460  C1462   1.437   .     S
C1460  O1484   1.301   .     A
C1460  O1486   1.304   .     A
C1462  C1349   1.337   1_655 S
C1462  H1364   1.087   1_655 S
C1463  C1468   1.411   .     A
C1463  C1487   1.510   .     S
C1464  C1467   1.411   .     A
C1464  C1491   1.510   .     S
C1464  C1130   1.391   1_565 S
C1465  C1467   1.398   .     A
C1465  H1495   1.083   .     S
C1465  C1127   1.391   1_565 S
C1466  C1468   1.398   .     A
C1466  H1496   1.083   .     S
C1469  C1497   1.520   .     S
C1469  N1478   1.382   .     A
C1470  N1477   1.382   .     A
C1470  C1501   1.520   .     S
C1470  C464    1.436   1_556 S
C1471  N1477   1.383   .     A
C1471  C1505   1.520   .     S
C1471  C461    1.436   1_556 S
C1472  C1509   1.520   .     S
C1472  N1478   1.383   .     A
Cu1473 Cu1474  2.726   .     S
Cu1473 O1486   1.958   .     S
Cu1473 O1479   1.958   .     S
Cu1473 O1482   1.960   .     S
Cu1473 O1483   1.957   .     S
Cu1473 N1477   2.049   .     S
Cu1474 O1485   1.958   .     S
Cu1474 N1478   2.049   .     S
Cu1474 O1481   1.960   .     S
Cu1474 O1480   1.958   .     S
Cu1474 O1484   1.957   .     S
H1475  C1349   1.087   1_655 S
C1487  H1489   1.111   .     S
C1487  H1488   1.111   .     S
C1487  H1490   1.110   .     S
C1491  H1493   1.110   .     S
C1491  H1494   1.111   .     S
C1491  H1492   1.111   .     S
C1497  H1498   1.109   .     S
C1497  H1499   1.082   .     S
C1497  H1500   1.109   .     S
C1501  H1503   1.109   .     S
C1501  H1504   1.082   .     S
C1501  H1502   1.109   .     S
C1505  H1508   1.109   .     S
C1505  H1507   1.109   .     S
C1505  H1506   1.082   .     S
C1509  H1511   1.109   .     S
C1509  H1510   1.082   .     S
C1509  H1512   1.109   .     S
