data_str_m3_o10_o18_pcu_sym.50
_audit_creation_date              2020-01-03
_audit_creation_method            'Materials Studio'
_symmetry_space_group_name_H-M    'P1'
_symmetry_Int_Tables_number       1
_symmetry_cell_setting            triclinic
loop_
_symmetry_equiv_pos_as_xyz
  x,y,z
_cell_length_a                    23.4744
_cell_length_b                    26.0287
_cell_length_c                    27.4148
_cell_angle_alpha                 91.2879
_cell_angle_beta                  94.0060
_cell_angle_gamma                 93.9144
loop_
_atom_site_label
_atom_site_type_symbol
_atom_site_fract_x
_atom_site_fract_y
_atom_site_fract_z
_atom_site_U_iso_or_equiv
_atom_site_adp_type
_atom_site_occupancy
C1     C     0.01417   0.26468   0.24612   0.00000  Uiso   1.00
C2     C     0.31210   0.16221   0.15889   0.00000  Uiso   1.00
C3     C     0.03117   0.18025   0.39351   0.00000  Uiso   1.00
C4     C     0.30216   0.15308   0.10649   0.00000  Uiso   1.00
C5     C     0.02733   0.23567   0.46493   0.00000  Uiso   1.00
C6     C     0.30600   0.09767   0.03507   0.00000  Uiso   1.00
C7     C     0.00640   0.22032   0.41763   0.00000  Uiso   1.00
C8     C     0.32693   0.11302   0.08237   0.00000  Uiso   1.00
C9     C     0.06999   0.15162   0.41886   0.00000  Uiso   1.00
C10    C     0.26334   0.18171   0.08113   0.00000  Uiso   1.00
C11    C     0.09982   0.17308   0.46097   0.00000  Uiso   1.00
C12    C     0.31917   0.06865   0.25388   0.00000  Uiso   1.00
C13    C     0.23352   0.16025   0.03903   0.00000  Uiso   1.00
C14    C     0.07576   0.21366   0.48604   0.00000  Uiso   1.00
C15    C     0.25757   0.11968   0.01396   0.00000  Uiso   1.00
C16    C     0.15347   0.15637   0.47764   0.00000  Uiso   1.00
C17    C     0.17986   0.17696   0.02236   0.00000  Uiso   1.00
C18    C     0.07116   0.33211   0.29356   0.00000  Uiso   1.00
C19    C     0.07256   0.30563   0.33777   0.00000  Uiso   1.00
C20    C     0.12189   0.30797   0.36962   0.00000  Uiso   1.00
C21    C     0.16987   0.00563   0.35887   0.00000  Uiso   1.00
C22    C     0.16903   0.03278   0.31559   0.00000  Uiso   1.00
C23    C     0.15056   0.21159   0.05037   0.00000  Uiso   1.00
C24    C     0.12103   0.02769   0.28209   0.00000  Uiso   1.00
C25    C     0.26217   0.00123   0.20644   0.00000  Uiso   1.00
C26    C     0.21230   0.30565   0.21791   0.00000  Uiso   1.00
C27    C     0.16430   0.30055   0.18441   0.00000  Uiso   1.00
C28    C     0.16346   0.32770   0.14113   0.00000  Uiso   1.00
C29    C     0.21145   0.02537   0.13038   0.00000  Uiso   1.00
C30    C     0.26077   0.02770   0.16223   0.00000  Uiso   1.00
C31    C     0.18277   0.12174   0.44963   0.00000  Uiso   1.00
C32    C     0.10028   0.23117   0.03155   0.00000  Uiso   1.00
C33    C     0.23305   0.10216   0.46845   0.00000  Uiso   1.00
C34    C     0.02223   0.31834   0.25615   0.00000  Uiso   1.00
C35    C     0.31111   0.01500   0.24385   0.00000  Uiso   1.00
C36    C     0.02123   0.17113   0.34111   0.00000  Uiso   1.00
H37    H     0.08067   0.26000   0.05258   0.00000  Uiso   1.00
H38    H     0.17052   0.20691   0.28635   0.00000  Uiso   1.00
H39    H     0.03544   0.28202   0.34659   0.00000  Uiso   1.00
H40    H     0.12244   0.28656   0.40303   0.00000  Uiso   1.00
H41    H     0.20782   0.00830   0.38383   0.00000  Uiso   1.00
H42    H     0.20653   0.05614   0.30728   0.00000  Uiso   1.00
H43    H     0.12387   0.04468   0.24668   0.00000  Uiso   1.00
H44    H     0.20946   0.28865   0.25332   0.00000  Uiso   1.00
H45    H     0.12680   0.27719   0.19272   0.00000  Uiso   1.00
H46    H     0.12552   0.32504   0.11617   0.00000  Uiso   1.00
H47    H     0.21089   0.04677   0.09697   0.00000  Uiso   1.00
H48    H     0.25267   0.07333   0.44742   0.00000  Uiso   1.00
H49    H     0.29790   0.05131   0.15341   0.00000  Uiso   1.00
H50    H     0.02731   0.09258   0.10059   0.00000  Uiso   1.00
H51    H     0.30602   0.24075   0.39941   0.00000  Uiso   1.00
H52    H     0.00849   0.26691   0.48331   0.00000  Uiso   1.00
H53    H     0.32484   0.06642   0.01669   0.00000  Uiso   1.00
H54    H     0.16637   0.22424   0.08692   0.00000  Uiso   1.00
H55    H     0.16697   0.10909   0.41308   0.00000  Uiso   1.00
H56    H     0.16281   0.12642   0.21365   0.00000  Uiso   1.00
I57    I     0.28364   0.26217   0.08591   0.00000  Uiso   1.00
I58    I     0.04970   0.07117   0.41409   0.00000  Uiso   1.00
N59    N     0.14695   0.15216   0.23739   0.00000  Uiso   1.00
N60    N     0.18638   0.18117   0.26260   0.00000  Uiso   1.00
O61    O     0.29719   0.24631   0.25309   0.00000  Uiso   1.00
O62    O     0.03614   0.08702   0.24690   0.00000  Uiso   1.00
O63    O     0.05822   0.23702   0.24501   0.00000  Uiso   1.00
O64    O     0.27512   0.09632   0.25498   0.00000  Uiso   1.00
O65    O     0.30328   0.17397   0.32247   0.00000  Uiso   1.00
O66    O     0.03005   0.15937   0.17753   0.00000  Uiso   1.00
O67    O     0.06431   0.16467   0.31439   0.00000  Uiso   1.00
O68    O     0.26902   0.16866   0.18561   0.00000  Uiso   1.00
Zn69   Zn    0.27033   0.17287   0.25539   0.00000  Uiso   1.00
Zn70   Zn    0.06300   0.16046   0.24460   0.00000  Uiso   1.00
C71    C     0.34750   0.26468   0.24612   0.00000  Uiso   1.00
C72    C     0.64543   0.16221   0.15889   0.00000  Uiso   1.00
C73    C     0.36450   0.18025   0.39351   0.00000  Uiso   1.00
C74    C     0.63550   0.15308   0.10649   0.00000  Uiso   1.00
C75    C     0.36067   0.23567   0.46493   0.00000  Uiso   1.00
C76    C     0.63933   0.09767   0.03507   0.00000  Uiso   1.00
C77    C     0.33973   0.22032   0.41763   0.00000  Uiso   1.00
C78    C     0.66027   0.11302   0.08237   0.00000  Uiso   1.00
C79    C     0.40332   0.15162   0.41886   0.00000  Uiso   1.00
C80    C     0.59668   0.18171   0.08113   0.00000  Uiso   1.00
C81    C     0.43315   0.17308   0.46097   0.00000  Uiso   1.00
C82    C     0.65250   0.06865   0.25388   0.00000  Uiso   1.00
C83    C     0.56685   0.16025   0.03903   0.00000  Uiso   1.00
C84    C     0.40910   0.21366   0.48604   0.00000  Uiso   1.00
C85    C     0.59090   0.11968   0.01396   0.00000  Uiso   1.00
C86    C     0.48680   0.15637   0.47764   0.00000  Uiso   1.00
C87    C     0.51319   0.17696   0.02236   0.00000  Uiso   1.00
C88    C     0.40450   0.33211   0.29356   0.00000  Uiso   1.00
C89    C     0.40589   0.30563   0.33777   0.00000  Uiso   1.00
C90    C     0.45522   0.30797   0.36962   0.00000  Uiso   1.00
C91    C     0.50321   0.00563   0.35887   0.00000  Uiso   1.00
C92    C     0.50237   0.03278   0.31559   0.00000  Uiso   1.00
C93    C     0.48389   0.21159   0.05037   0.00000  Uiso   1.00
C94    C     0.45436   0.02769   0.28209   0.00000  Uiso   1.00
C95    C     0.59550   0.00123   0.20644   0.00000  Uiso   1.00
C96    C     0.54563   0.30565   0.21791   0.00000  Uiso   1.00
C97    C     0.49763   0.30055   0.18441   0.00000  Uiso   1.00
C98    C     0.49679   0.32770   0.14113   0.00000  Uiso   1.00
C99    C     0.54478   0.02537   0.13038   0.00000  Uiso   1.00
C100   C     0.59410   0.02770   0.16223   0.00000  Uiso   1.00
C101   C     0.51611   0.12174   0.44963   0.00000  Uiso   1.00
C102   C     0.43362   0.23117   0.03155   0.00000  Uiso   1.00
C103   C     0.56638   0.10216   0.46845   0.00000  Uiso   1.00
C104   C     0.35556   0.31834   0.25615   0.00000  Uiso   1.00
C105   C     0.64444   0.01500   0.24385   0.00000  Uiso   1.00
C106   C     0.35457   0.17113   0.34111   0.00000  Uiso   1.00
H107   H     0.41400   0.26000   0.05258   0.00000  Uiso   1.00
H108   H     0.50385   0.20691   0.28635   0.00000  Uiso   1.00
H109   H     0.36877   0.28202   0.34659   0.00000  Uiso   1.00
H110   H     0.45577   0.28656   0.40303   0.00000  Uiso   1.00
H111   H     0.54115   0.00830   0.38383   0.00000  Uiso   1.00
H112   H     0.53986   0.05614   0.30728   0.00000  Uiso   1.00
H113   H     0.45720   0.04468   0.24668   0.00000  Uiso   1.00
H114   H     0.54280   0.28865   0.25332   0.00000  Uiso   1.00
H115   H     0.46014   0.27719   0.19272   0.00000  Uiso   1.00
H116   H     0.45885   0.32504   0.11617   0.00000  Uiso   1.00
H117   H     0.54423   0.04677   0.09697   0.00000  Uiso   1.00
H118   H     0.58600   0.07333   0.44742   0.00000  Uiso   1.00
H119   H     0.63123   0.05131   0.15341   0.00000  Uiso   1.00
H120   H     0.36065   0.09258   0.10059   0.00000  Uiso   1.00
H121   H     0.63935   0.24075   0.39941   0.00000  Uiso   1.00
H122   H     0.34183   0.26691   0.48331   0.00000  Uiso   1.00
H123   H     0.65817   0.06642   0.01669   0.00000  Uiso   1.00
H124   H     0.49970   0.22424   0.08692   0.00000  Uiso   1.00
H125   H     0.50030   0.10909   0.41308   0.00000  Uiso   1.00
H126   H     0.49615   0.12642   0.21365   0.00000  Uiso   1.00
I127   I     0.61697   0.26217   0.08591   0.00000  Uiso   1.00
I128   I     0.38303   0.07117   0.41409   0.00000  Uiso   1.00
N129   N     0.48029   0.15216   0.23739   0.00000  Uiso   1.00
N130   N     0.51971   0.18117   0.26260   0.00000  Uiso   1.00
O131   O     0.63052   0.24631   0.25309   0.00000  Uiso   1.00
O132   O     0.36948   0.08702   0.24690   0.00000  Uiso   1.00
O133   O     0.39155   0.23702   0.24501   0.00000  Uiso   1.00
O134   O     0.60845   0.09632   0.25498   0.00000  Uiso   1.00
O135   O     0.63662   0.17397   0.32247   0.00000  Uiso   1.00
O136   O     0.36338   0.15937   0.17753   0.00000  Uiso   1.00
O137   O     0.39764   0.16467   0.31439   0.00000  Uiso   1.00
O138   O     0.60236   0.16866   0.18561   0.00000  Uiso   1.00
Zn139  Zn    0.60366   0.17287   0.25539   0.00000  Uiso   1.00
Zn140  Zn    0.39634   0.16046   0.24460   0.00000  Uiso   1.00
C141   C     0.68083   0.26468   0.24612   0.00000  Uiso   1.00
C142   C     0.97877   0.16221   0.15889   0.00000  Uiso   1.00
C143   C     0.69784   0.18025   0.39351   0.00000  Uiso   1.00
C144   C     0.96883   0.15308   0.10649   0.00000  Uiso   1.00
C145   C     0.69400   0.23567   0.46493   0.00000  Uiso   1.00
C146   C     0.97267   0.09767   0.03507   0.00000  Uiso   1.00
C147   C     0.67307   0.22032   0.41763   0.00000  Uiso   1.00
C148   C     0.99360   0.11302   0.08237   0.00000  Uiso   1.00
C149   C     0.73666   0.15162   0.41886   0.00000  Uiso   1.00
C150   C     0.93001   0.18171   0.08113   0.00000  Uiso   1.00
C151   C     0.76648   0.17308   0.46097   0.00000  Uiso   1.00
C152   C     0.98583   0.06865   0.25388   0.00000  Uiso   1.00
C153   C     0.90018   0.16025   0.03903   0.00000  Uiso   1.00
C154   C     0.74243   0.21366   0.48604   0.00000  Uiso   1.00
C155   C     0.92424   0.11968   0.01396   0.00000  Uiso   1.00
C156   C     0.82014   0.15637   0.47764   0.00000  Uiso   1.00
C157   C     0.84653   0.17696   0.02236   0.00000  Uiso   1.00
C158   C     0.73783   0.33211   0.29356   0.00000  Uiso   1.00
C159   C     0.73923   0.30563   0.33777   0.00000  Uiso   1.00
C160   C     0.78855   0.30797   0.36962   0.00000  Uiso   1.00
C161   C     0.83654   0.00563   0.35887   0.00000  Uiso   1.00
C162   C     0.83570   0.03278   0.31559   0.00000  Uiso   1.00
C163   C     0.81722   0.21159   0.05037   0.00000  Uiso   1.00
C164   C     0.78770   0.02769   0.28209   0.00000  Uiso   1.00
C165   C     0.92884   0.00123   0.20644   0.00000  Uiso   1.00
C166   C     0.87897   0.30565   0.21791   0.00000  Uiso   1.00
C167   C     0.83097   0.30055   0.18441   0.00000  Uiso   1.00
C168   C     0.83013   0.32770   0.14113   0.00000  Uiso   1.00
C169   C     0.87811   0.02537   0.13038   0.00000  Uiso   1.00
C170   C     0.92744   0.02770   0.16223   0.00000  Uiso   1.00
C171   C     0.84944   0.12174   0.44963   0.00000  Uiso   1.00
C172   C     0.76695   0.23117   0.03155   0.00000  Uiso   1.00
C173   C     0.89971   0.10216   0.46845   0.00000  Uiso   1.00
C174   C     0.68889   0.31834   0.25615   0.00000  Uiso   1.00
C175   C     0.97777   0.01500   0.24385   0.00000  Uiso   1.00
C176   C     0.68790   0.17113   0.34111   0.00000  Uiso   1.00
H177   H     0.74733   0.26000   0.05258   0.00000  Uiso   1.00
H178   H     0.83719   0.20691   0.28635   0.00000  Uiso   1.00
H179   H     0.70210   0.28202   0.34659   0.00000  Uiso   1.00
H180   H     0.78911   0.28656   0.40303   0.00000  Uiso   1.00
H181   H     0.87448   0.00830   0.38383   0.00000  Uiso   1.00
H182   H     0.87320   0.05614   0.30728   0.00000  Uiso   1.00
H183   H     0.79054   0.04468   0.24668   0.00000  Uiso   1.00
H184   H     0.87613   0.28865   0.25332   0.00000  Uiso   1.00
H185   H     0.79347   0.27719   0.19272   0.00000  Uiso   1.00
H186   H     0.79218   0.32504   0.11617   0.00000  Uiso   1.00
H187   H     0.87756   0.04677   0.09697   0.00000  Uiso   1.00
H188   H     0.91933   0.07333   0.44742   0.00000  Uiso   1.00
H189   H     0.96456   0.05131   0.15341   0.00000  Uiso   1.00
H190   H     0.69398   0.09258   0.10059   0.00000  Uiso   1.00
H191   H     0.97268   0.24075   0.39941   0.00000  Uiso   1.00
H192   H     0.67516   0.26691   0.48331   0.00000  Uiso   1.00
H193   H     0.99151   0.06642   0.01669   0.00000  Uiso   1.00
H194   H     0.83303   0.22424   0.08692   0.00000  Uiso   1.00
H195   H     0.83363   0.10909   0.41308   0.00000  Uiso   1.00
H196   H     0.82948   0.12642   0.21365   0.00000  Uiso   1.00
I197   I     0.95030   0.26217   0.08591   0.00000  Uiso   1.00
I198   I     0.71636   0.07117   0.41409   0.00000  Uiso   1.00
N199   N     0.81362   0.15216   0.23739   0.00000  Uiso   1.00
N200   N     0.85305   0.18117   0.26260   0.00000  Uiso   1.00
O201   O     0.96386   0.24631   0.25309   0.00000  Uiso   1.00
O202   O     0.70281   0.08702   0.24690   0.00000  Uiso   1.00
O203   O     0.72488   0.23702   0.24501   0.00000  Uiso   1.00
O204   O     0.94178   0.09632   0.25498   0.00000  Uiso   1.00
O205   O     0.96995   0.17397   0.32247   0.00000  Uiso   1.00
O206   O     0.69672   0.15937   0.17753   0.00000  Uiso   1.00
O207   O     0.73098   0.16467   0.31439   0.00000  Uiso   1.00
O208   O     0.93569   0.16866   0.18561   0.00000  Uiso   1.00
Zn209  Zn    0.93700   0.17287   0.25539   0.00000  Uiso   1.00
Zn210  Zn    0.72967   0.16046   0.24460   0.00000  Uiso   1.00
C211   C     0.01417   0.59801   0.24612   0.00000  Uiso   1.00
C212   C     0.31210   0.49554   0.15889   0.00000  Uiso   1.00
C213   C     0.03117   0.51358   0.39351   0.00000  Uiso   1.00
C214   C     0.30216   0.48642   0.10649   0.00000  Uiso   1.00
C215   C     0.02733   0.56900   0.46493   0.00000  Uiso   1.00
C216   C     0.30600   0.43100   0.03507   0.00000  Uiso   1.00
C217   C     0.00640   0.55365   0.41763   0.00000  Uiso   1.00
C218   C     0.32693   0.44635   0.08237   0.00000  Uiso   1.00
C219   C     0.06999   0.48495   0.41886   0.00000  Uiso   1.00
C220   C     0.26334   0.51504   0.08113   0.00000  Uiso   1.00
C221   C     0.09982   0.50641   0.46097   0.00000  Uiso   1.00
C222   C     0.31917   0.40199   0.25388   0.00000  Uiso   1.00
C223   C     0.23352   0.49359   0.03903   0.00000  Uiso   1.00
C224   C     0.07576   0.54699   0.48604   0.00000  Uiso   1.00
C225   C     0.25757   0.45301   0.01396   0.00000  Uiso   1.00
C226   C     0.15347   0.48970   0.47764   0.00000  Uiso   1.00
C227   C     0.17986   0.51030   0.02236   0.00000  Uiso   1.00
C228   C     0.07116   0.66544   0.29356   0.00000  Uiso   1.00
C229   C     0.07256   0.63896   0.33777   0.00000  Uiso   1.00
C230   C     0.12189   0.64130   0.36962   0.00000  Uiso   1.00
C231   C     0.16987   0.33896   0.35887   0.00000  Uiso   1.00
C232   C     0.16903   0.36612   0.31559   0.00000  Uiso   1.00
C233   C     0.15056   0.54492   0.05037   0.00000  Uiso   1.00
C234   C     0.12103   0.36102   0.28209   0.00000  Uiso   1.00
C235   C     0.26217   0.33456   0.20644   0.00000  Uiso   1.00
C236   C     0.21230   0.63898   0.21791   0.00000  Uiso   1.00
C237   C     0.16430   0.63388   0.18441   0.00000  Uiso   1.00
C238   C     0.16346   0.66104   0.14113   0.00000  Uiso   1.00
C239   C     0.21145   0.35870   0.13038   0.00000  Uiso   1.00
C240   C     0.26077   0.36104   0.16223   0.00000  Uiso   1.00
C241   C     0.18277   0.45508   0.44963   0.00000  Uiso   1.00
C242   C     0.10028   0.56450   0.03155   0.00000  Uiso   1.00
C243   C     0.23305   0.43550   0.46845   0.00000  Uiso   1.00
C244   C     0.02223   0.65167   0.25615   0.00000  Uiso   1.00
C245   C     0.31111   0.34833   0.24385   0.00000  Uiso   1.00
C246   C     0.02123   0.50446   0.34111   0.00000  Uiso   1.00
H247   H     0.08067   0.59334   0.05258   0.00000  Uiso   1.00
H248   H     0.17052   0.54024   0.28635   0.00000  Uiso   1.00
H249   H     0.03544   0.61536   0.34659   0.00000  Uiso   1.00
H250   H     0.12244   0.61990   0.40303   0.00000  Uiso   1.00
H251   H     0.20782   0.34163   0.38383   0.00000  Uiso   1.00
H252   H     0.20653   0.38948   0.30728   0.00000  Uiso   1.00
H253   H     0.12387   0.37801   0.24668   0.00000  Uiso   1.00
H254   H     0.20946   0.62199   0.25332   0.00000  Uiso   1.00
H255   H     0.12680   0.61052   0.19272   0.00000  Uiso   1.00
H256   H     0.12552   0.65837   0.11617   0.00000  Uiso   1.00
H257   H     0.21089   0.38010   0.09697   0.00000  Uiso   1.00
H258   H     0.25267   0.40666   0.44742   0.00000  Uiso   1.00
H259   H     0.29790   0.38464   0.15341   0.00000  Uiso   1.00
H260   H     0.02731   0.42591   0.10059   0.00000  Uiso   1.00
H261   H     0.30602   0.57409   0.39941   0.00000  Uiso   1.00
H262   H     0.00849   0.60024   0.48331   0.00000  Uiso   1.00
H263   H     0.32484   0.39976   0.01669   0.00000  Uiso   1.00
H264   H     0.16637   0.55757   0.08692   0.00000  Uiso   1.00
H265   H     0.16697   0.44243   0.41308   0.00000  Uiso   1.00
H266   H     0.16281   0.45976   0.21365   0.00000  Uiso   1.00
I267   I     0.28364   0.59550   0.08591   0.00000  Uiso   1.00
I268   I     0.04970   0.40450   0.41409   0.00000  Uiso   1.00
N269   N     0.14695   0.48550   0.23739   0.00000  Uiso   1.00
N270   N     0.18638   0.51450   0.26260   0.00000  Uiso   1.00
O271   O     0.29719   0.57964   0.25309   0.00000  Uiso   1.00
O272   O     0.03614   0.42036   0.24690   0.00000  Uiso   1.00
O273   O     0.05822   0.57035   0.24501   0.00000  Uiso   1.00
O274   O     0.27512   0.42965   0.25498   0.00000  Uiso   1.00
O275   O     0.30328   0.50730   0.32247   0.00000  Uiso   1.00
O276   O     0.03005   0.49270   0.17753   0.00000  Uiso   1.00
O277   O     0.06431   0.49801   0.31439   0.00000  Uiso   1.00
O278   O     0.26902   0.50199   0.18561   0.00000  Uiso   1.00
Zn279  Zn    0.27033   0.50621   0.25539   0.00000  Uiso   1.00
Zn280  Zn    0.06300   0.49379   0.24460   0.00000  Uiso   1.00
C281   C     0.34750   0.59801   0.24612   0.00000  Uiso   1.00
C282   C     0.64543   0.49554   0.15889   0.00000  Uiso   1.00
C283   C     0.36450   0.51358   0.39351   0.00000  Uiso   1.00
C284   C     0.63550   0.48642   0.10649   0.00000  Uiso   1.00
C285   C     0.36067   0.56900   0.46493   0.00000  Uiso   1.00
C286   C     0.63933   0.43100   0.03507   0.00000  Uiso   1.00
C287   C     0.33973   0.55365   0.41763   0.00000  Uiso   1.00
C288   C     0.66027   0.44635   0.08237   0.00000  Uiso   1.00
C289   C     0.40332   0.48495   0.41886   0.00000  Uiso   1.00
C290   C     0.59668   0.51504   0.08113   0.00000  Uiso   1.00
C291   C     0.43315   0.50641   0.46097   0.00000  Uiso   1.00
C292   C     0.65250   0.40199   0.25388   0.00000  Uiso   1.00
C293   C     0.56685   0.49359   0.03903   0.00000  Uiso   1.00
C294   C     0.40910   0.54699   0.48604   0.00000  Uiso   1.00
C295   C     0.59090   0.45301   0.01396   0.00000  Uiso   1.00
C296   C     0.48680   0.48970   0.47764   0.00000  Uiso   1.00
C297   C     0.51319   0.51030   0.02236   0.00000  Uiso   1.00
C298   C     0.40450   0.66544   0.29356   0.00000  Uiso   1.00
C299   C     0.40589   0.63896   0.33777   0.00000  Uiso   1.00
C300   C     0.45522   0.64130   0.36962   0.00000  Uiso   1.00
C301   C     0.50321   0.33896   0.35887   0.00000  Uiso   1.00
C302   C     0.50237   0.36612   0.31559   0.00000  Uiso   1.00
C303   C     0.48389   0.54492   0.05037   0.00000  Uiso   1.00
C304   C     0.45436   0.36102   0.28209   0.00000  Uiso   1.00
C305   C     0.59550   0.33456   0.20644   0.00000  Uiso   1.00
C306   C     0.54563   0.63898   0.21791   0.00000  Uiso   1.00
C307   C     0.49763   0.63388   0.18441   0.00000  Uiso   1.00
C308   C     0.49679   0.66104   0.14113   0.00000  Uiso   1.00
C309   C     0.54478   0.35870   0.13038   0.00000  Uiso   1.00
C310   C     0.59410   0.36104   0.16223   0.00000  Uiso   1.00
C311   C     0.51611   0.45508   0.44963   0.00000  Uiso   1.00
C312   C     0.43362   0.56450   0.03155   0.00000  Uiso   1.00
C313   C     0.56638   0.43550   0.46845   0.00000  Uiso   1.00
C314   C     0.35556   0.65167   0.25615   0.00000  Uiso   1.00
C315   C     0.64444   0.34833   0.24385   0.00000  Uiso   1.00
C316   C     0.35457   0.50446   0.34111   0.00000  Uiso   1.00
H317   H     0.41400   0.59334   0.05258   0.00000  Uiso   1.00
H318   H     0.50385   0.54024   0.28635   0.00000  Uiso   1.00
H319   H     0.36877   0.61536   0.34659   0.00000  Uiso   1.00
H320   H     0.45577   0.61990   0.40303   0.00000  Uiso   1.00
H321   H     0.54115   0.34163   0.38383   0.00000  Uiso   1.00
H322   H     0.53986   0.38948   0.30728   0.00000  Uiso   1.00
H323   H     0.45720   0.37801   0.24668   0.00000  Uiso   1.00
H324   H     0.54280   0.62199   0.25332   0.00000  Uiso   1.00
H325   H     0.46014   0.61052   0.19272   0.00000  Uiso   1.00
H326   H     0.45885   0.65837   0.11617   0.00000  Uiso   1.00
H327   H     0.54423   0.38010   0.09697   0.00000  Uiso   1.00
H328   H     0.58600   0.40666   0.44742   0.00000  Uiso   1.00
H329   H     0.63123   0.38464   0.15341   0.00000  Uiso   1.00
H330   H     0.36065   0.42591   0.10059   0.00000  Uiso   1.00
H331   H     0.63935   0.57409   0.39941   0.00000  Uiso   1.00
H332   H     0.34183   0.60024   0.48331   0.00000  Uiso   1.00
H333   H     0.65817   0.39976   0.01669   0.00000  Uiso   1.00
H334   H     0.49970   0.55757   0.08692   0.00000  Uiso   1.00
H335   H     0.50030   0.44243   0.41308   0.00000  Uiso   1.00
H336   H     0.49615   0.45976   0.21365   0.00000  Uiso   1.00
I337   I     0.61697   0.59550   0.08591   0.00000  Uiso   1.00
I338   I     0.38303   0.40450   0.41409   0.00000  Uiso   1.00
N339   N     0.48029   0.48550   0.23739   0.00000  Uiso   1.00
N340   N     0.51971   0.51450   0.26260   0.00000  Uiso   1.00
O341   O     0.63052   0.57964   0.25309   0.00000  Uiso   1.00
O342   O     0.36948   0.42036   0.24690   0.00000  Uiso   1.00
O343   O     0.39155   0.57035   0.24501   0.00000  Uiso   1.00
O344   O     0.60845   0.42965   0.25498   0.00000  Uiso   1.00
O345   O     0.63662   0.50730   0.32247   0.00000  Uiso   1.00
O346   O     0.36338   0.49270   0.17753   0.00000  Uiso   1.00
O347   O     0.39764   0.49801   0.31439   0.00000  Uiso   1.00
O348   O     0.60236   0.50199   0.18561   0.00000  Uiso   1.00
Zn349  Zn    0.60366   0.50621   0.25539   0.00000  Uiso   1.00
Zn350  Zn    0.39634   0.49379   0.24460   0.00000  Uiso   1.00
C351   C     0.68083   0.59801   0.24612   0.00000  Uiso   1.00
C352   C     0.97877   0.49554   0.15889   0.00000  Uiso   1.00
C353   C     0.69784   0.51358   0.39351   0.00000  Uiso   1.00
C354   C     0.96883   0.48642   0.10649   0.00000  Uiso   1.00
C355   C     0.69400   0.56900   0.46493   0.00000  Uiso   1.00
C356   C     0.97267   0.43100   0.03507   0.00000  Uiso   1.00
C357   C     0.67307   0.55365   0.41763   0.00000  Uiso   1.00
C358   C     0.99360   0.44635   0.08237   0.00000  Uiso   1.00
C359   C     0.73666   0.48495   0.41886   0.00000  Uiso   1.00
C360   C     0.93001   0.51504   0.08113   0.00000  Uiso   1.00
C361   C     0.76648   0.50641   0.46097   0.00000  Uiso   1.00
C362   C     0.98583   0.40199   0.25388   0.00000  Uiso   1.00
C363   C     0.90018   0.49359   0.03903   0.00000  Uiso   1.00
C364   C     0.74243   0.54699   0.48604   0.00000  Uiso   1.00
C365   C     0.92424   0.45301   0.01396   0.00000  Uiso   1.00
C366   C     0.82014   0.48970   0.47764   0.00000  Uiso   1.00
C367   C     0.84653   0.51030   0.02236   0.00000  Uiso   1.00
C368   C     0.73783   0.66544   0.29356   0.00000  Uiso   1.00
C369   C     0.73923   0.63896   0.33777   0.00000  Uiso   1.00
C370   C     0.78855   0.64130   0.36962   0.00000  Uiso   1.00
C371   C     0.83654   0.33896   0.35887   0.00000  Uiso   1.00
C372   C     0.83570   0.36612   0.31559   0.00000  Uiso   1.00
C373   C     0.81722   0.54492   0.05037   0.00000  Uiso   1.00
C374   C     0.78770   0.36102   0.28209   0.00000  Uiso   1.00
C375   C     0.92884   0.33456   0.20644   0.00000  Uiso   1.00
C376   C     0.87897   0.63898   0.21791   0.00000  Uiso   1.00
C377   C     0.83097   0.63388   0.18441   0.00000  Uiso   1.00
C378   C     0.83013   0.66104   0.14113   0.00000  Uiso   1.00
C379   C     0.87811   0.35870   0.13038   0.00000  Uiso   1.00
C380   C     0.92744   0.36104   0.16223   0.00000  Uiso   1.00
C381   C     0.84944   0.45508   0.44963   0.00000  Uiso   1.00
C382   C     0.76695   0.56450   0.03155   0.00000  Uiso   1.00
C383   C     0.89971   0.43550   0.46845   0.00000  Uiso   1.00
C384   C     0.68889   0.65167   0.25615   0.00000  Uiso   1.00
C385   C     0.97777   0.34833   0.24385   0.00000  Uiso   1.00
C386   C     0.68790   0.50446   0.34111   0.00000  Uiso   1.00
H387   H     0.74733   0.59334   0.05258   0.00000  Uiso   1.00
H388   H     0.83719   0.54024   0.28635   0.00000  Uiso   1.00
H389   H     0.70210   0.61536   0.34659   0.00000  Uiso   1.00
H390   H     0.78911   0.61990   0.40303   0.00000  Uiso   1.00
H391   H     0.87448   0.34163   0.38383   0.00000  Uiso   1.00
H392   H     0.87320   0.38948   0.30728   0.00000  Uiso   1.00
H393   H     0.79054   0.37801   0.24668   0.00000  Uiso   1.00
H394   H     0.87613   0.62199   0.25332   0.00000  Uiso   1.00
H395   H     0.79347   0.61052   0.19272   0.00000  Uiso   1.00
H396   H     0.79218   0.65837   0.11617   0.00000  Uiso   1.00
H397   H     0.87756   0.38010   0.09697   0.00000  Uiso   1.00
H398   H     0.91933   0.40666   0.44742   0.00000  Uiso   1.00
H399   H     0.96456   0.38464   0.15341   0.00000  Uiso   1.00
H400   H     0.69398   0.42591   0.10059   0.00000  Uiso   1.00
H401   H     0.97268   0.57409   0.39941   0.00000  Uiso   1.00
H402   H     0.67516   0.60024   0.48331   0.00000  Uiso   1.00
H403   H     0.99151   0.39976   0.01669   0.00000  Uiso   1.00
H404   H     0.83303   0.55757   0.08692   0.00000  Uiso   1.00
H405   H     0.83363   0.44243   0.41308   0.00000  Uiso   1.00
H406   H     0.82948   0.45976   0.21365   0.00000  Uiso   1.00
I407   I     0.95030   0.59550   0.08591   0.00000  Uiso   1.00
I408   I     0.71636   0.40450   0.41409   0.00000  Uiso   1.00
N409   N     0.81362   0.48550   0.23739   0.00000  Uiso   1.00
N410   N     0.85305   0.51450   0.26260   0.00000  Uiso   1.00
O411   O     0.96386   0.57964   0.25309   0.00000  Uiso   1.00
O412   O     0.70281   0.42036   0.24690   0.00000  Uiso   1.00
O413   O     0.72488   0.57035   0.24501   0.00000  Uiso   1.00
O414   O     0.94178   0.42965   0.25498   0.00000  Uiso   1.00
O415   O     0.96995   0.50730   0.32247   0.00000  Uiso   1.00
O416   O     0.69672   0.49270   0.17753   0.00000  Uiso   1.00
O417   O     0.73098   0.49801   0.31439   0.00000  Uiso   1.00
O418   O     0.93569   0.50199   0.18561   0.00000  Uiso   1.00
Zn419  Zn    0.93700   0.50621   0.25539   0.00000  Uiso   1.00
Zn420  Zn    0.72967   0.49379   0.24460   0.00000  Uiso   1.00
C421   C     0.01417   0.93135   0.24612   0.00000  Uiso   1.00
C422   C     0.31210   0.82888   0.15889   0.00000  Uiso   1.00
C423   C     0.03117   0.84692   0.39351   0.00000  Uiso   1.00
C424   C     0.30216   0.81975   0.10649   0.00000  Uiso   1.00
C425   C     0.02733   0.90233   0.46493   0.00000  Uiso   1.00
C426   C     0.30600   0.76433   0.03507   0.00000  Uiso   1.00
C427   C     0.00640   0.88698   0.41763   0.00000  Uiso   1.00
C428   C     0.32693   0.77968   0.08237   0.00000  Uiso   1.00
C429   C     0.06999   0.81829   0.41886   0.00000  Uiso   1.00
C430   C     0.26334   0.84838   0.08113   0.00000  Uiso   1.00
C431   C     0.09982   0.83975   0.46097   0.00000  Uiso   1.00
C432   C     0.31917   0.73532   0.25388   0.00000  Uiso   1.00
C433   C     0.23352   0.82692   0.03903   0.00000  Uiso   1.00
C434   C     0.07576   0.88032   0.48604   0.00000  Uiso   1.00
C435   C     0.25757   0.78634   0.01396   0.00000  Uiso   1.00
C436   C     0.15347   0.82304   0.47764   0.00000  Uiso   1.00
C437   C     0.17986   0.84363   0.02236   0.00000  Uiso   1.00
C438   C     0.07116   0.99877   0.29356   0.00000  Uiso   1.00
C439   C     0.07256   0.97230   0.33777   0.00000  Uiso   1.00
C440   C     0.12189   0.97463   0.36962   0.00000  Uiso   1.00
C441   C     0.16987   0.67230   0.35887   0.00000  Uiso   1.00
C442   C     0.16903   0.69945   0.31559   0.00000  Uiso   1.00
C443   C     0.15056   0.87826   0.05037   0.00000  Uiso   1.00
C444   C     0.12103   0.69435   0.28209   0.00000  Uiso   1.00
C445   C     0.26217   0.66789   0.20644   0.00000  Uiso   1.00
C446   C     0.21230   0.97231   0.21791   0.00000  Uiso   1.00
C447   C     0.16430   0.96722   0.18441   0.00000  Uiso   1.00
C448   C     0.16346   0.99437   0.14113   0.00000  Uiso   1.00
C449   C     0.21145   0.69203   0.13038   0.00000  Uiso   1.00
C450   C     0.26077   0.69437   0.16223   0.00000  Uiso   1.00
C451   C     0.18277   0.78841   0.44963   0.00000  Uiso   1.00
C452   C     0.10028   0.89784   0.03155   0.00000  Uiso   1.00
C453   C     0.23305   0.76883   0.46845   0.00000  Uiso   1.00
C454   C     0.02223   0.98500   0.25615   0.00000  Uiso   1.00
C455   C     0.31111   0.68166   0.24385   0.00000  Uiso   1.00
C456   C     0.02123   0.83779   0.34111   0.00000  Uiso   1.00
H457   H     0.08067   0.92667   0.05258   0.00000  Uiso   1.00
H458   H     0.17052   0.87358   0.28635   0.00000  Uiso   1.00
H459   H     0.03544   0.94869   0.34659   0.00000  Uiso   1.00
H460   H     0.12244   0.95323   0.40303   0.00000  Uiso   1.00
H461   H     0.20782   0.67496   0.38383   0.00000  Uiso   1.00
H462   H     0.20653   0.72281   0.30728   0.00000  Uiso   1.00
H463   H     0.12387   0.71135   0.24668   0.00000  Uiso   1.00
H464   H     0.20946   0.95532   0.25332   0.00000  Uiso   1.00
H465   H     0.12680   0.94386   0.19272   0.00000  Uiso   1.00
H466   H     0.12552   0.99170   0.11617   0.00000  Uiso   1.00
H467   H     0.21089   0.71344   0.09697   0.00000  Uiso   1.00
H468   H     0.25267   0.74000   0.44742   0.00000  Uiso   1.00
H469   H     0.29790   0.71798   0.15341   0.00000  Uiso   1.00
H470   H     0.02731   0.75925   0.10059   0.00000  Uiso   1.00
H471   H     0.30602   0.90742   0.39941   0.00000  Uiso   1.00
H472   H     0.00849   0.93358   0.48331   0.00000  Uiso   1.00
H473   H     0.32484   0.73309   0.01669   0.00000  Uiso   1.00
H474   H     0.16637   0.89091   0.08692   0.00000  Uiso   1.00
H475   H     0.16697   0.77576   0.41308   0.00000  Uiso   1.00
H476   H     0.16281   0.79309   0.21365   0.00000  Uiso   1.00
I477   I     0.28364   0.92883   0.08591   0.00000  Uiso   1.00
I478   I     0.04970   0.73783   0.41409   0.00000  Uiso   1.00
N479   N     0.14695   0.81883   0.23739   0.00000  Uiso   1.00
N480   N     0.18638   0.84784   0.26260   0.00000  Uiso   1.00
O481   O     0.29719   0.91298   0.25309   0.00000  Uiso   1.00
O482   O     0.03614   0.75369   0.24690   0.00000  Uiso   1.00
O483   O     0.05822   0.90368   0.24501   0.00000  Uiso   1.00
O484   O     0.27512   0.76298   0.25498   0.00000  Uiso   1.00
O485   O     0.30328   0.84063   0.32247   0.00000  Uiso   1.00
O486   O     0.03005   0.82603   0.17753   0.00000  Uiso   1.00
O487   O     0.06431   0.83134   0.31439   0.00000  Uiso   1.00
O488   O     0.26902   0.83533   0.18561   0.00000  Uiso   1.00
Zn489  Zn    0.27033   0.83954   0.25539   0.00000  Uiso   1.00
Zn490  Zn    0.06300   0.82713   0.24460   0.00000  Uiso   1.00
C491   C     0.34750   0.93135   0.24612   0.00000  Uiso   1.00
C492   C     0.64543   0.82888   0.15889   0.00000  Uiso   1.00
C493   C     0.36450   0.84692   0.39351   0.00000  Uiso   1.00
C494   C     0.63550   0.81975   0.10649   0.00000  Uiso   1.00
C495   C     0.36067   0.90233   0.46493   0.00000  Uiso   1.00
C496   C     0.63933   0.76433   0.03507   0.00000  Uiso   1.00
C497   C     0.33973   0.88698   0.41763   0.00000  Uiso   1.00
C498   C     0.66027   0.77968   0.08237   0.00000  Uiso   1.00
C499   C     0.40332   0.81829   0.41886   0.00000  Uiso   1.00
C500   C     0.59668   0.84838   0.08113   0.00000  Uiso   1.00
C501   C     0.43315   0.83975   0.46097   0.00000  Uiso   1.00
C502   C     0.65250   0.73532   0.25388   0.00000  Uiso   1.00
C503   C     0.56685   0.82692   0.03903   0.00000  Uiso   1.00
C504   C     0.40910   0.88032   0.48604   0.00000  Uiso   1.00
C505   C     0.59090   0.78634   0.01396   0.00000  Uiso   1.00
C506   C     0.48680   0.82304   0.47764   0.00000  Uiso   1.00
C507   C     0.51319   0.84363   0.02236   0.00000  Uiso   1.00
C508   C     0.40450   0.99877   0.29356   0.00000  Uiso   1.00
C509   C     0.40589   0.97230   0.33777   0.00000  Uiso   1.00
C510   C     0.45522   0.97463   0.36962   0.00000  Uiso   1.00
C511   C     0.50321   0.67230   0.35887   0.00000  Uiso   1.00
C512   C     0.50237   0.69945   0.31559   0.00000  Uiso   1.00
C513   C     0.48389   0.87826   0.05037   0.00000  Uiso   1.00
C514   C     0.45436   0.69435   0.28209   0.00000  Uiso   1.00
C515   C     0.59550   0.66789   0.20644   0.00000  Uiso   1.00
C516   C     0.54563   0.97231   0.21791   0.00000  Uiso   1.00
C517   C     0.49763   0.96722   0.18441   0.00000  Uiso   1.00
C518   C     0.49679   0.99437   0.14113   0.00000  Uiso   1.00
C519   C     0.54478   0.69203   0.13038   0.00000  Uiso   1.00
C520   C     0.59410   0.69437   0.16223   0.00000  Uiso   1.00
C521   C     0.51611   0.78841   0.44963   0.00000  Uiso   1.00
C522   C     0.43362   0.89784   0.03155   0.00000  Uiso   1.00
C523   C     0.56638   0.76883   0.46845   0.00000  Uiso   1.00
C524   C     0.35556   0.98500   0.25615   0.00000  Uiso   1.00
C525   C     0.64444   0.68166   0.24385   0.00000  Uiso   1.00
C526   C     0.35457   0.83779   0.34111   0.00000  Uiso   1.00
H527   H     0.41400   0.92667   0.05258   0.00000  Uiso   1.00
H528   H     0.50385   0.87358   0.28635   0.00000  Uiso   1.00
H529   H     0.36877   0.94869   0.34659   0.00000  Uiso   1.00
H530   H     0.45577   0.95323   0.40303   0.00000  Uiso   1.00
H531   H     0.54115   0.67496   0.38383   0.00000  Uiso   1.00
H532   H     0.53986   0.72281   0.30728   0.00000  Uiso   1.00
H533   H     0.45720   0.71135   0.24668   0.00000  Uiso   1.00
H534   H     0.54280   0.95532   0.25332   0.00000  Uiso   1.00
H535   H     0.46014   0.94386   0.19272   0.00000  Uiso   1.00
H536   H     0.45885   0.99170   0.11617   0.00000  Uiso   1.00
H537   H     0.54423   0.71344   0.09697   0.00000  Uiso   1.00
H538   H     0.58600   0.74000   0.44742   0.00000  Uiso   1.00
H539   H     0.63123   0.71798   0.15341   0.00000  Uiso   1.00
H540   H     0.36065   0.75925   0.10059   0.00000  Uiso   1.00
H541   H     0.63935   0.90742   0.39941   0.00000  Uiso   1.00
H542   H     0.34183   0.93358   0.48331   0.00000  Uiso   1.00
H543   H     0.65817   0.73309   0.01669   0.00000  Uiso   1.00
H544   H     0.49970   0.89091   0.08692   0.00000  Uiso   1.00
H545   H     0.50030   0.77576   0.41308   0.00000  Uiso   1.00
H546   H     0.49615   0.79309   0.21365   0.00000  Uiso   1.00
I547   I     0.61697   0.92883   0.08591   0.00000  Uiso   1.00
I548   I     0.38303   0.73783   0.41409   0.00000  Uiso   1.00
N549   N     0.48029   0.81883   0.23739   0.00000  Uiso   1.00
N550   N     0.51971   0.84784   0.26260   0.00000  Uiso   1.00
O551   O     0.63052   0.91298   0.25309   0.00000  Uiso   1.00
O552   O     0.36948   0.75369   0.24690   0.00000  Uiso   1.00
O553   O     0.39155   0.90368   0.24501   0.00000  Uiso   1.00
O554   O     0.60845   0.76298   0.25498   0.00000  Uiso   1.00
O555   O     0.63662   0.84063   0.32247   0.00000  Uiso   1.00
O556   O     0.36338   0.82603   0.17753   0.00000  Uiso   1.00
O557   O     0.39764   0.83134   0.31439   0.00000  Uiso   1.00
O558   O     0.60236   0.83533   0.18561   0.00000  Uiso   1.00
Zn559  Zn    0.60366   0.83954   0.25539   0.00000  Uiso   1.00
Zn560  Zn    0.39634   0.82713   0.24460   0.00000  Uiso   1.00
C561   C     0.68083   0.93135   0.24612   0.00000  Uiso   1.00
C562   C     0.97877   0.82888   0.15889   0.00000  Uiso   1.00
C563   C     0.69784   0.84692   0.39351   0.00000  Uiso   1.00
C564   C     0.96883   0.81975   0.10649   0.00000  Uiso   1.00
C565   C     0.69400   0.90233   0.46493   0.00000  Uiso   1.00
C566   C     0.97267   0.76433   0.03507   0.00000  Uiso   1.00
C567   C     0.67307   0.88698   0.41763   0.00000  Uiso   1.00
C568   C     0.99360   0.77968   0.08237   0.00000  Uiso   1.00
C569   C     0.73666   0.81829   0.41886   0.00000  Uiso   1.00
C570   C     0.93001   0.84838   0.08113   0.00000  Uiso   1.00
C571   C     0.76648   0.83975   0.46097   0.00000  Uiso   1.00
C572   C     0.98583   0.73532   0.25388   0.00000  Uiso   1.00
C573   C     0.90018   0.82692   0.03903   0.00000  Uiso   1.00
C574   C     0.74243   0.88032   0.48604   0.00000  Uiso   1.00
C575   C     0.92424   0.78634   0.01396   0.00000  Uiso   1.00
C576   C     0.82014   0.82304   0.47764   0.00000  Uiso   1.00
C577   C     0.84653   0.84363   0.02236   0.00000  Uiso   1.00
C578   C     0.73783   0.99877   0.29356   0.00000  Uiso   1.00
C579   C     0.73923   0.97230   0.33777   0.00000  Uiso   1.00
C580   C     0.78855   0.97463   0.36962   0.00000  Uiso   1.00
C581   C     0.83654   0.67230   0.35887   0.00000  Uiso   1.00
C582   C     0.83570   0.69945   0.31559   0.00000  Uiso   1.00
C583   C     0.81722   0.87826   0.05037   0.00000  Uiso   1.00
C584   C     0.78770   0.69435   0.28209   0.00000  Uiso   1.00
C585   C     0.92884   0.66789   0.20644   0.00000  Uiso   1.00
C586   C     0.87897   0.97231   0.21791   0.00000  Uiso   1.00
C587   C     0.83097   0.96722   0.18441   0.00000  Uiso   1.00
C588   C     0.83013   0.99437   0.14113   0.00000  Uiso   1.00
C589   C     0.87811   0.69203   0.13038   0.00000  Uiso   1.00
C590   C     0.92744   0.69437   0.16223   0.00000  Uiso   1.00
C591   C     0.84944   0.78841   0.44963   0.00000  Uiso   1.00
C592   C     0.76695   0.89784   0.03155   0.00000  Uiso   1.00
C593   C     0.89971   0.76883   0.46845   0.00000  Uiso   1.00
C594   C     0.68889   0.98500   0.25615   0.00000  Uiso   1.00
C595   C     0.97777   0.68166   0.24385   0.00000  Uiso   1.00
C596   C     0.68790   0.83779   0.34111   0.00000  Uiso   1.00
H597   H     0.74733   0.92667   0.05258   0.00000  Uiso   1.00
H598   H     0.83719   0.87358   0.28635   0.00000  Uiso   1.00
H599   H     0.70210   0.94869   0.34659   0.00000  Uiso   1.00
H600   H     0.78911   0.95323   0.40303   0.00000  Uiso   1.00
H601   H     0.87448   0.67496   0.38383   0.00000  Uiso   1.00
H602   H     0.87320   0.72281   0.30728   0.00000  Uiso   1.00
H603   H     0.79054   0.71135   0.24668   0.00000  Uiso   1.00
H604   H     0.87613   0.95532   0.25332   0.00000  Uiso   1.00
H605   H     0.79347   0.94386   0.19272   0.00000  Uiso   1.00
H606   H     0.79218   0.99170   0.11617   0.00000  Uiso   1.00
H607   H     0.87756   0.71344   0.09697   0.00000  Uiso   1.00
H608   H     0.91933   0.74000   0.44742   0.00000  Uiso   1.00
H609   H     0.96456   0.71798   0.15341   0.00000  Uiso   1.00
H610   H     0.69398   0.75925   0.10059   0.00000  Uiso   1.00
H611   H     0.97268   0.90742   0.39941   0.00000  Uiso   1.00
H612   H     0.67516   0.93358   0.48331   0.00000  Uiso   1.00
H613   H     0.99151   0.73309   0.01669   0.00000  Uiso   1.00
H614   H     0.83303   0.89091   0.08692   0.00000  Uiso   1.00
H615   H     0.83363   0.77576   0.41308   0.00000  Uiso   1.00
H616   H     0.82948   0.79309   0.21365   0.00000  Uiso   1.00
I617   I     0.95030   0.92883   0.08591   0.00000  Uiso   1.00
I618   I     0.71636   0.73783   0.41409   0.00000  Uiso   1.00
N619   N     0.81362   0.81883   0.23739   0.00000  Uiso   1.00
N620   N     0.85305   0.84784   0.26260   0.00000  Uiso   1.00
O621   O     0.96386   0.91298   0.25309   0.00000  Uiso   1.00
O622   O     0.70281   0.75369   0.24690   0.00000  Uiso   1.00
O623   O     0.72488   0.90368   0.24501   0.00000  Uiso   1.00
O624   O     0.94178   0.76298   0.25498   0.00000  Uiso   1.00
O625   O     0.96995   0.84063   0.32247   0.00000  Uiso   1.00
O626   O     0.69672   0.82603   0.17753   0.00000  Uiso   1.00
O627   O     0.73098   0.83134   0.31439   0.00000  Uiso   1.00
O628   O     0.93569   0.83533   0.18561   0.00000  Uiso   1.00
Zn629  Zn    0.93700   0.83954   0.25539   0.00000  Uiso   1.00
Zn630  Zn    0.72967   0.82713   0.24460   0.00000  Uiso   1.00
C631   C     0.01417   0.26468   0.74612   0.00000  Uiso   1.00
C632   C     0.31210   0.16221   0.65889   0.00000  Uiso   1.00
C633   C     0.03117   0.18025   0.89351   0.00000  Uiso   1.00
C634   C     0.30216   0.15308   0.60649   0.00000  Uiso   1.00
C635   C     0.02733   0.23567   0.96493   0.00000  Uiso   1.00
C636   C     0.30600   0.09767   0.53507   0.00000  Uiso   1.00
C637   C     0.00640   0.22032   0.91763   0.00000  Uiso   1.00
C638   C     0.32693   0.11302   0.58237   0.00000  Uiso   1.00
C639   C     0.06999   0.15162   0.91886   0.00000  Uiso   1.00
C640   C     0.26334   0.18171   0.58113   0.00000  Uiso   1.00
C641   C     0.09982   0.17308   0.96097   0.00000  Uiso   1.00
C642   C     0.31917   0.06865   0.75388   0.00000  Uiso   1.00
C643   C     0.23352   0.16025   0.53903   0.00000  Uiso   1.00
C644   C     0.07576   0.21366   0.98604   0.00000  Uiso   1.00
C645   C     0.25757   0.11968   0.51396   0.00000  Uiso   1.00
C646   C     0.15347   0.15637   0.97764   0.00000  Uiso   1.00
C647   C     0.17986   0.17696   0.52236   0.00000  Uiso   1.00
C648   C     0.07116   0.33211   0.79356   0.00000  Uiso   1.00
C649   C     0.07256   0.30563   0.83777   0.00000  Uiso   1.00
C650   C     0.12189   0.30797   0.86962   0.00000  Uiso   1.00
C651   C     0.16987   0.00563   0.85887   0.00000  Uiso   1.00
C652   C     0.16903   0.03278   0.81559   0.00000  Uiso   1.00
C653   C     0.15056   0.21159   0.55037   0.00000  Uiso   1.00
C654   C     0.12103   0.02769   0.78209   0.00000  Uiso   1.00
C655   C     0.26217   0.00123   0.70644   0.00000  Uiso   1.00
C656   C     0.21230   0.30565   0.71791   0.00000  Uiso   1.00
C657   C     0.16430   0.30055   0.68441   0.00000  Uiso   1.00
C658   C     0.16346   0.32770   0.64113   0.00000  Uiso   1.00
C659   C     0.21145   0.02537   0.63038   0.00000  Uiso   1.00
C660   C     0.26077   0.02770   0.66223   0.00000  Uiso   1.00
C661   C     0.18277   0.12174   0.94963   0.00000  Uiso   1.00
C662   C     0.10028   0.23117   0.53155   0.00000  Uiso   1.00
C663   C     0.23305   0.10216   0.96845   0.00000  Uiso   1.00
C664   C     0.02223   0.31834   0.75615   0.00000  Uiso   1.00
C665   C     0.31111   0.01500   0.74385   0.00000  Uiso   1.00
C666   C     0.02123   0.17113   0.84111   0.00000  Uiso   1.00
H667   H     0.08067   0.26000   0.55258   0.00000  Uiso   1.00
H668   H     0.17052   0.20691   0.78635   0.00000  Uiso   1.00
H669   H     0.03544   0.28202   0.84659   0.00000  Uiso   1.00
H670   H     0.12244   0.28656   0.90303   0.00000  Uiso   1.00
H671   H     0.20782   0.00830   0.88383   0.00000  Uiso   1.00
H672   H     0.20653   0.05614   0.80728   0.00000  Uiso   1.00
H673   H     0.12387   0.04468   0.74668   0.00000  Uiso   1.00
H674   H     0.20946   0.28865   0.75332   0.00000  Uiso   1.00
H675   H     0.12680   0.27719   0.69272   0.00000  Uiso   1.00
H676   H     0.12552   0.32504   0.61617   0.00000  Uiso   1.00
H677   H     0.21089   0.04677   0.59697   0.00000  Uiso   1.00
H678   H     0.25267   0.07333   0.94742   0.00000  Uiso   1.00
H679   H     0.29790   0.05131   0.65341   0.00000  Uiso   1.00
H680   H     0.02731   0.09258   0.60059   0.00000  Uiso   1.00
H681   H     0.30602   0.24075   0.89941   0.00000  Uiso   1.00
H682   H     0.00849   0.26691   0.98331   0.00000  Uiso   1.00
H683   H     0.32484   0.06642   0.51669   0.00000  Uiso   1.00
H684   H     0.16637   0.22424   0.58692   0.00000  Uiso   1.00
H685   H     0.16697   0.10909   0.91308   0.00000  Uiso   1.00
H686   H     0.16281   0.12642   0.71365   0.00000  Uiso   1.00
I687   I     0.28364   0.26217   0.58591   0.00000  Uiso   1.00
I688   I     0.04970   0.07117   0.91409   0.00000  Uiso   1.00
N689   N     0.14695   0.15216   0.73739   0.00000  Uiso   1.00
N690   N     0.18638   0.18117   0.76260   0.00000  Uiso   1.00
O691   O     0.29719   0.24631   0.75309   0.00000  Uiso   1.00
O692   O     0.03614   0.08702   0.74690   0.00000  Uiso   1.00
O693   O     0.05822   0.23702   0.74501   0.00000  Uiso   1.00
O694   O     0.27512   0.09632   0.75498   0.00000  Uiso   1.00
O695   O     0.30328   0.17397   0.82247   0.00000  Uiso   1.00
O696   O     0.03005   0.15937   0.67753   0.00000  Uiso   1.00
O697   O     0.06431   0.16467   0.81439   0.00000  Uiso   1.00
O698   O     0.26902   0.16866   0.68561   0.00000  Uiso   1.00
Zn699  Zn    0.27033   0.17287   0.75539   0.00000  Uiso   1.00
Zn700  Zn    0.06300   0.16046   0.74460   0.00000  Uiso   1.00
C701   C     0.34750   0.26468   0.74612   0.00000  Uiso   1.00
C702   C     0.64543   0.16221   0.65889   0.00000  Uiso   1.00
C703   C     0.36450   0.18025   0.89351   0.00000  Uiso   1.00
C704   C     0.63550   0.15308   0.60649   0.00000  Uiso   1.00
C705   C     0.36067   0.23567   0.96493   0.00000  Uiso   1.00
C706   C     0.63933   0.09767   0.53507   0.00000  Uiso   1.00
C707   C     0.33973   0.22032   0.91763   0.00000  Uiso   1.00
C708   C     0.66027   0.11302   0.58237   0.00000  Uiso   1.00
C709   C     0.40332   0.15162   0.91886   0.00000  Uiso   1.00
C710   C     0.59668   0.18171   0.58113   0.00000  Uiso   1.00
C711   C     0.43315   0.17308   0.96097   0.00000  Uiso   1.00
C712   C     0.65250   0.06865   0.75388   0.00000  Uiso   1.00
C713   C     0.56685   0.16025   0.53903   0.00000  Uiso   1.00
C714   C     0.40910   0.21366   0.98604   0.00000  Uiso   1.00
C715   C     0.59090   0.11968   0.51396   0.00000  Uiso   1.00
C716   C     0.48680   0.15637   0.97764   0.00000  Uiso   1.00
C717   C     0.51319   0.17696   0.52236   0.00000  Uiso   1.00
C718   C     0.40450   0.33211   0.79356   0.00000  Uiso   1.00
C719   C     0.40589   0.30563   0.83777   0.00000  Uiso   1.00
C720   C     0.45522   0.30797   0.86962   0.00000  Uiso   1.00
C721   C     0.50321   0.00563   0.85887   0.00000  Uiso   1.00
C722   C     0.50237   0.03278   0.81559   0.00000  Uiso   1.00
C723   C     0.48389   0.21159   0.55037   0.00000  Uiso   1.00
C724   C     0.45436   0.02769   0.78209   0.00000  Uiso   1.00
C725   C     0.59550   0.00123   0.70644   0.00000  Uiso   1.00
C726   C     0.54563   0.30565   0.71791   0.00000  Uiso   1.00
C727   C     0.49763   0.30055   0.68441   0.00000  Uiso   1.00
C728   C     0.49679   0.32770   0.64113   0.00000  Uiso   1.00
C729   C     0.54478   0.02537   0.63038   0.00000  Uiso   1.00
C730   C     0.59410   0.02770   0.66223   0.00000  Uiso   1.00
C731   C     0.51611   0.12174   0.94963   0.00000  Uiso   1.00
C732   C     0.43362   0.23117   0.53155   0.00000  Uiso   1.00
C733   C     0.56638   0.10216   0.96845   0.00000  Uiso   1.00
C734   C     0.35556   0.31834   0.75615   0.00000  Uiso   1.00
C735   C     0.64444   0.01500   0.74385   0.00000  Uiso   1.00
C736   C     0.35457   0.17113   0.84111   0.00000  Uiso   1.00
H737   H     0.41400   0.26000   0.55258   0.00000  Uiso   1.00
H738   H     0.50385   0.20691   0.78635   0.00000  Uiso   1.00
H739   H     0.36877   0.28202   0.84659   0.00000  Uiso   1.00
H740   H     0.45577   0.28656   0.90303   0.00000  Uiso   1.00
H741   H     0.54115   0.00830   0.88383   0.00000  Uiso   1.00
H742   H     0.53986   0.05614   0.80728   0.00000  Uiso   1.00
H743   H     0.45720   0.04468   0.74668   0.00000  Uiso   1.00
H744   H     0.54280   0.28865   0.75332   0.00000  Uiso   1.00
H745   H     0.46014   0.27719   0.69272   0.00000  Uiso   1.00
H746   H     0.45885   0.32504   0.61617   0.00000  Uiso   1.00
H747   H     0.54423   0.04677   0.59697   0.00000  Uiso   1.00
H748   H     0.58600   0.07333   0.94742   0.00000  Uiso   1.00
H749   H     0.63123   0.05131   0.65341   0.00000  Uiso   1.00
H750   H     0.36065   0.09258   0.60059   0.00000  Uiso   1.00
H751   H     0.63935   0.24075   0.89941   0.00000  Uiso   1.00
H752   H     0.34183   0.26691   0.98331   0.00000  Uiso   1.00
H753   H     0.65817   0.06642   0.51669   0.00000  Uiso   1.00
H754   H     0.49970   0.22424   0.58692   0.00000  Uiso   1.00
H755   H     0.50030   0.10909   0.91308   0.00000  Uiso   1.00
H756   H     0.49615   0.12642   0.71365   0.00000  Uiso   1.00
I757   I     0.61697   0.26217   0.58591   0.00000  Uiso   1.00
I758   I     0.38303   0.07117   0.91409   0.00000  Uiso   1.00
N759   N     0.48029   0.15216   0.73739   0.00000  Uiso   1.00
N760   N     0.51971   0.18117   0.76260   0.00000  Uiso   1.00
O761   O     0.63052   0.24631   0.75309   0.00000  Uiso   1.00
O762   O     0.36948   0.08702   0.74690   0.00000  Uiso   1.00
O763   O     0.39155   0.23702   0.74501   0.00000  Uiso   1.00
O764   O     0.60845   0.09632   0.75498   0.00000  Uiso   1.00
O765   O     0.63662   0.17397   0.82247   0.00000  Uiso   1.00
O766   O     0.36338   0.15937   0.67753   0.00000  Uiso   1.00
O767   O     0.39764   0.16467   0.81439   0.00000  Uiso   1.00
O768   O     0.60236   0.16866   0.68561   0.00000  Uiso   1.00
Zn769  Zn    0.60366   0.17287   0.75539   0.00000  Uiso   1.00
Zn770  Zn    0.39634   0.16046   0.74460   0.00000  Uiso   1.00
C771   C     0.68083   0.26468   0.74612   0.00000  Uiso   1.00
C772   C     0.97877   0.16221   0.65889   0.00000  Uiso   1.00
C773   C     0.69784   0.18025   0.89351   0.00000  Uiso   1.00
C774   C     0.96883   0.15308   0.60649   0.00000  Uiso   1.00
C775   C     0.69400   0.23567   0.96493   0.00000  Uiso   1.00
C776   C     0.97267   0.09767   0.53507   0.00000  Uiso   1.00
C777   C     0.67307   0.22032   0.91763   0.00000  Uiso   1.00
C778   C     0.99360   0.11302   0.58237   0.00000  Uiso   1.00
C779   C     0.73666   0.15162   0.91886   0.00000  Uiso   1.00
C780   C     0.93001   0.18171   0.58113   0.00000  Uiso   1.00
C781   C     0.76648   0.17308   0.96097   0.00000  Uiso   1.00
C782   C     0.98583   0.06865   0.75388   0.00000  Uiso   1.00
C783   C     0.90018   0.16025   0.53903   0.00000  Uiso   1.00
C784   C     0.74243   0.21366   0.98604   0.00000  Uiso   1.00
C785   C     0.92424   0.11968   0.51396   0.00000  Uiso   1.00
C786   C     0.82014   0.15637   0.97764   0.00000  Uiso   1.00
C787   C     0.84653   0.17696   0.52236   0.00000  Uiso   1.00
C788   C     0.73783   0.33211   0.79356   0.00000  Uiso   1.00
C789   C     0.73923   0.30563   0.83777   0.00000  Uiso   1.00
C790   C     0.78855   0.30797   0.86962   0.00000  Uiso   1.00
C791   C     0.83654   0.00563   0.85887   0.00000  Uiso   1.00
C792   C     0.83570   0.03278   0.81559   0.00000  Uiso   1.00
C793   C     0.81722   0.21159   0.55037   0.00000  Uiso   1.00
C794   C     0.78770   0.02769   0.78209   0.00000  Uiso   1.00
C795   C     0.92884   0.00123   0.70644   0.00000  Uiso   1.00
C796   C     0.87897   0.30565   0.71791   0.00000  Uiso   1.00
C797   C     0.83097   0.30055   0.68441   0.00000  Uiso   1.00
C798   C     0.83013   0.32770   0.64113   0.00000  Uiso   1.00
C799   C     0.87811   0.02537   0.63038   0.00000  Uiso   1.00
C800   C     0.92744   0.02770   0.66223   0.00000  Uiso   1.00
C801   C     0.84944   0.12174   0.94963   0.00000  Uiso   1.00
C802   C     0.76695   0.23117   0.53155   0.00000  Uiso   1.00
C803   C     0.89971   0.10216   0.96845   0.00000  Uiso   1.00
C804   C     0.68889   0.31834   0.75615   0.00000  Uiso   1.00
C805   C     0.97777   0.01500   0.74385   0.00000  Uiso   1.00
C806   C     0.68790   0.17113   0.84111   0.00000  Uiso   1.00
H807   H     0.74733   0.26000   0.55258   0.00000  Uiso   1.00
H808   H     0.83719   0.20691   0.78635   0.00000  Uiso   1.00
H809   H     0.70210   0.28202   0.84659   0.00000  Uiso   1.00
H810   H     0.78911   0.28656   0.90303   0.00000  Uiso   1.00
H811   H     0.87448   0.00830   0.88383   0.00000  Uiso   1.00
H812   H     0.87320   0.05614   0.80728   0.00000  Uiso   1.00
H813   H     0.79054   0.04468   0.74668   0.00000  Uiso   1.00
H814   H     0.87613   0.28865   0.75332   0.00000  Uiso   1.00
H815   H     0.79347   0.27719   0.69272   0.00000  Uiso   1.00
H816   H     0.79218   0.32504   0.61617   0.00000  Uiso   1.00
H817   H     0.87756   0.04677   0.59697   0.00000  Uiso   1.00
H818   H     0.91933   0.07333   0.94742   0.00000  Uiso   1.00
H819   H     0.96456   0.05131   0.65341   0.00000  Uiso   1.00
H820   H     0.69398   0.09258   0.60059   0.00000  Uiso   1.00
H821   H     0.97268   0.24075   0.89941   0.00000  Uiso   1.00
H822   H     0.67516   0.26691   0.98331   0.00000  Uiso   1.00
H823   H     0.99151   0.06642   0.51669   0.00000  Uiso   1.00
H824   H     0.83303   0.22424   0.58692   0.00000  Uiso   1.00
H825   H     0.83363   0.10909   0.91308   0.00000  Uiso   1.00
H826   H     0.82948   0.12642   0.71365   0.00000  Uiso   1.00
I827   I     0.95030   0.26217   0.58591   0.00000  Uiso   1.00
I828   I     0.71636   0.07117   0.91409   0.00000  Uiso   1.00
N829   N     0.81362   0.15216   0.73739   0.00000  Uiso   1.00
N830   N     0.85305   0.18117   0.76260   0.00000  Uiso   1.00
O831   O     0.96386   0.24631   0.75309   0.00000  Uiso   1.00
O832   O     0.70281   0.08702   0.74690   0.00000  Uiso   1.00
O833   O     0.72488   0.23702   0.74501   0.00000  Uiso   1.00
O834   O     0.94178   0.09632   0.75498   0.00000  Uiso   1.00
O835   O     0.96995   0.17397   0.82247   0.00000  Uiso   1.00
O836   O     0.69672   0.15937   0.67753   0.00000  Uiso   1.00
O837   O     0.73098   0.16467   0.81439   0.00000  Uiso   1.00
O838   O     0.93569   0.16866   0.68561   0.00000  Uiso   1.00
Zn839  Zn    0.93700   0.17287   0.75539   0.00000  Uiso   1.00
Zn840  Zn    0.72967   0.16046   0.74460   0.00000  Uiso   1.00
C841   C     0.01417   0.59801   0.74612   0.00000  Uiso   1.00
C842   C     0.31210   0.49554   0.65889   0.00000  Uiso   1.00
C843   C     0.03117   0.51358   0.89351   0.00000  Uiso   1.00
C844   C     0.30216   0.48642   0.60649   0.00000  Uiso   1.00
C845   C     0.02733   0.56900   0.96493   0.00000  Uiso   1.00
C846   C     0.30600   0.43100   0.53507   0.00000  Uiso   1.00
C847   C     0.00640   0.55365   0.91763   0.00000  Uiso   1.00
C848   C     0.32693   0.44635   0.58237   0.00000  Uiso   1.00
C849   C     0.06999   0.48495   0.91886   0.00000  Uiso   1.00
C850   C     0.26334   0.51504   0.58113   0.00000  Uiso   1.00
C851   C     0.09982   0.50641   0.96097   0.00000  Uiso   1.00
C852   C     0.31917   0.40199   0.75388   0.00000  Uiso   1.00
C853   C     0.23352   0.49359   0.53903   0.00000  Uiso   1.00
C854   C     0.07576   0.54699   0.98604   0.00000  Uiso   1.00
C855   C     0.25757   0.45301   0.51396   0.00000  Uiso   1.00
C856   C     0.15347   0.48970   0.97764   0.00000  Uiso   1.00
C857   C     0.17986   0.51030   0.52236   0.00000  Uiso   1.00
C858   C     0.07116   0.66544   0.79356   0.00000  Uiso   1.00
C859   C     0.07256   0.63896   0.83777   0.00000  Uiso   1.00
C860   C     0.12189   0.64130   0.86962   0.00000  Uiso   1.00
C861   C     0.16987   0.33896   0.85887   0.00000  Uiso   1.00
C862   C     0.16903   0.36612   0.81559   0.00000  Uiso   1.00
C863   C     0.15056   0.54492   0.55037   0.00000  Uiso   1.00
C864   C     0.12103   0.36102   0.78209   0.00000  Uiso   1.00
C865   C     0.26217   0.33456   0.70644   0.00000  Uiso   1.00
C866   C     0.21230   0.63898   0.71791   0.00000  Uiso   1.00
C867   C     0.16430   0.63388   0.68441   0.00000  Uiso   1.00
C868   C     0.16346   0.66104   0.64113   0.00000  Uiso   1.00
C869   C     0.21145   0.35870   0.63038   0.00000  Uiso   1.00
C870   C     0.26077   0.36104   0.66223   0.00000  Uiso   1.00
C871   C     0.18277   0.45508   0.94963   0.00000  Uiso   1.00
C872   C     0.10028   0.56450   0.53155   0.00000  Uiso   1.00
C873   C     0.23305   0.43550   0.96845   0.00000  Uiso   1.00
C874   C     0.02223   0.65167   0.75615   0.00000  Uiso   1.00
C875   C     0.31111   0.34833   0.74385   0.00000  Uiso   1.00
C876   C     0.02123   0.50446   0.84111   0.00000  Uiso   1.00
H877   H     0.08067   0.59334   0.55258   0.00000  Uiso   1.00
H878   H     0.17052   0.54024   0.78635   0.00000  Uiso   1.00
H879   H     0.03544   0.61536   0.84659   0.00000  Uiso   1.00
H880   H     0.12244   0.61990   0.90303   0.00000  Uiso   1.00
H881   H     0.20782   0.34163   0.88383   0.00000  Uiso   1.00
H882   H     0.20653   0.38948   0.80728   0.00000  Uiso   1.00
H883   H     0.12387   0.37801   0.74668   0.00000  Uiso   1.00
H884   H     0.20946   0.62199   0.75332   0.00000  Uiso   1.00
H885   H     0.12680   0.61052   0.69272   0.00000  Uiso   1.00
H886   H     0.12552   0.65837   0.61617   0.00000  Uiso   1.00
H887   H     0.21089   0.38010   0.59697   0.00000  Uiso   1.00
H888   H     0.25267   0.40666   0.94742   0.00000  Uiso   1.00
H889   H     0.29790   0.38464   0.65341   0.00000  Uiso   1.00
H890   H     0.02731   0.42591   0.60059   0.00000  Uiso   1.00
H891   H     0.30602   0.57409   0.89941   0.00000  Uiso   1.00
H892   H     0.00849   0.60024   0.98331   0.00000  Uiso   1.00
H893   H     0.32484   0.39976   0.51669   0.00000  Uiso   1.00
H894   H     0.16637   0.55757   0.58692   0.00000  Uiso   1.00
H895   H     0.16697   0.44243   0.91308   0.00000  Uiso   1.00
H896   H     0.16281   0.45976   0.71365   0.00000  Uiso   1.00
I897   I     0.28364   0.59550   0.58591   0.00000  Uiso   1.00
I898   I     0.04970   0.40450   0.91409   0.00000  Uiso   1.00
N899   N     0.14695   0.48550   0.73739   0.00000  Uiso   1.00
N900   N     0.18638   0.51450   0.76260   0.00000  Uiso   1.00
O901   O     0.29719   0.57964   0.75309   0.00000  Uiso   1.00
O902   O     0.03614   0.42036   0.74690   0.00000  Uiso   1.00
O903   O     0.05822   0.57035   0.74501   0.00000  Uiso   1.00
O904   O     0.27512   0.42965   0.75498   0.00000  Uiso   1.00
O905   O     0.30328   0.50730   0.82247   0.00000  Uiso   1.00
O906   O     0.03005   0.49270   0.67753   0.00000  Uiso   1.00
O907   O     0.06431   0.49801   0.81439   0.00000  Uiso   1.00
O908   O     0.26902   0.50199   0.68561   0.00000  Uiso   1.00
Zn909  Zn    0.27033   0.50621   0.75539   0.00000  Uiso   1.00
Zn910  Zn    0.06300   0.49379   0.74460   0.00000  Uiso   1.00
C911   C     0.34750   0.59801   0.74612   0.00000  Uiso   1.00
C912   C     0.64543   0.49554   0.65889   0.00000  Uiso   1.00
C913   C     0.36450   0.51358   0.89351   0.00000  Uiso   1.00
C914   C     0.63550   0.48642   0.60649   0.00000  Uiso   1.00
C915   C     0.36067   0.56900   0.96493   0.00000  Uiso   1.00
C916   C     0.63933   0.43100   0.53507   0.00000  Uiso   1.00
C917   C     0.33973   0.55365   0.91763   0.00000  Uiso   1.00
C918   C     0.66027   0.44635   0.58237   0.00000  Uiso   1.00
C919   C     0.40332   0.48495   0.91886   0.00000  Uiso   1.00
C920   C     0.59668   0.51504   0.58113   0.00000  Uiso   1.00
C921   C     0.43315   0.50641   0.96097   0.00000  Uiso   1.00
C922   C     0.65250   0.40199   0.75388   0.00000  Uiso   1.00
C923   C     0.56685   0.49359   0.53903   0.00000  Uiso   1.00
C924   C     0.40910   0.54699   0.98604   0.00000  Uiso   1.00
C925   C     0.59090   0.45301   0.51396   0.00000  Uiso   1.00
C926   C     0.48680   0.48970   0.97764   0.00000  Uiso   1.00
C927   C     0.51319   0.51030   0.52236   0.00000  Uiso   1.00
C928   C     0.40450   0.66544   0.79356   0.00000  Uiso   1.00
C929   C     0.40589   0.63896   0.83777   0.00000  Uiso   1.00
C930   C     0.45522   0.64130   0.86962   0.00000  Uiso   1.00
C931   C     0.50321   0.33896   0.85887   0.00000  Uiso   1.00
C932   C     0.50237   0.36612   0.81559   0.00000  Uiso   1.00
C933   C     0.48389   0.54492   0.55037   0.00000  Uiso   1.00
C934   C     0.45436   0.36102   0.78209   0.00000  Uiso   1.00
C935   C     0.59550   0.33456   0.70644   0.00000  Uiso   1.00
C936   C     0.54563   0.63898   0.71791   0.00000  Uiso   1.00
C937   C     0.49763   0.63388   0.68441   0.00000  Uiso   1.00
C938   C     0.49679   0.66104   0.64113   0.00000  Uiso   1.00
C939   C     0.54478   0.35870   0.63038   0.00000  Uiso   1.00
C940   C     0.59410   0.36104   0.66223   0.00000  Uiso   1.00
C941   C     0.51611   0.45508   0.94963   0.00000  Uiso   1.00
C942   C     0.43362   0.56450   0.53155   0.00000  Uiso   1.00
C943   C     0.56638   0.43550   0.96845   0.00000  Uiso   1.00
C944   C     0.35556   0.65167   0.75615   0.00000  Uiso   1.00
C945   C     0.64444   0.34833   0.74385   0.00000  Uiso   1.00
C946   C     0.35457   0.50446   0.84111   0.00000  Uiso   1.00
H947   H     0.41400   0.59334   0.55258   0.00000  Uiso   1.00
H948   H     0.50385   0.54024   0.78635   0.00000  Uiso   1.00
H949   H     0.36877   0.61536   0.84659   0.00000  Uiso   1.00
H950   H     0.45577   0.61990   0.90303   0.00000  Uiso   1.00
H951   H     0.54115   0.34163   0.88383   0.00000  Uiso   1.00
H952   H     0.53986   0.38948   0.80728   0.00000  Uiso   1.00
H953   H     0.45720   0.37801   0.74668   0.00000  Uiso   1.00
H954   H     0.54280   0.62199   0.75332   0.00000  Uiso   1.00
H955   H     0.46014   0.61052   0.69272   0.00000  Uiso   1.00
H956   H     0.45885   0.65837   0.61617   0.00000  Uiso   1.00
H957   H     0.54423   0.38010   0.59697   0.00000  Uiso   1.00
H958   H     0.58600   0.40666   0.94742   0.00000  Uiso   1.00
H959   H     0.63123   0.38464   0.65341   0.00000  Uiso   1.00
H960   H     0.36065   0.42591   0.60059   0.00000  Uiso   1.00
H961   H     0.63935   0.57409   0.89941   0.00000  Uiso   1.00
H962   H     0.34183   0.60024   0.98331   0.00000  Uiso   1.00
H963   H     0.65817   0.39976   0.51669   0.00000  Uiso   1.00
H964   H     0.49970   0.55757   0.58692   0.00000  Uiso   1.00
H965   H     0.50030   0.44243   0.91308   0.00000  Uiso   1.00
H966   H     0.49615   0.45976   0.71365   0.00000  Uiso   1.00
I967   I     0.61697   0.59550   0.58591   0.00000  Uiso   1.00
I968   I     0.38303   0.40450   0.91409   0.00000  Uiso   1.00
N969   N     0.48029   0.48550   0.73739   0.00000  Uiso   1.00
N970   N     0.51971   0.51450   0.76260   0.00000  Uiso   1.00
O971   O     0.63052   0.57964   0.75309   0.00000  Uiso   1.00
O972   O     0.36948   0.42036   0.74690   0.00000  Uiso   1.00
O973   O     0.39155   0.57035   0.74501   0.00000  Uiso   1.00
O974   O     0.60845   0.42965   0.75498   0.00000  Uiso   1.00
O975   O     0.63662   0.50730   0.82247   0.00000  Uiso   1.00
O976   O     0.36338   0.49270   0.67753   0.00000  Uiso   1.00
O977   O     0.39764   0.49801   0.81439   0.00000  Uiso   1.00
O978   O     0.60236   0.50199   0.68561   0.00000  Uiso   1.00
Zn979  Zn    0.60366   0.50621   0.75539   0.00000  Uiso   1.00
Zn980  Zn    0.39634   0.49379   0.74460   0.00000  Uiso   1.00
C981   C     0.68083   0.59801   0.74612   0.00000  Uiso   1.00
C982   C     0.97877   0.49554   0.65889   0.00000  Uiso   1.00
C983   C     0.69784   0.51358   0.89351   0.00000  Uiso   1.00
C984   C     0.96883   0.48642   0.60649   0.00000  Uiso   1.00
C985   C     0.69400   0.56900   0.96493   0.00000  Uiso   1.00
C986   C     0.97267   0.43100   0.53507   0.00000  Uiso   1.00
C987   C     0.67307   0.55365   0.91763   0.00000  Uiso   1.00
C988   C     0.99360   0.44635   0.58237   0.00000  Uiso   1.00
C989   C     0.73666   0.48495   0.91886   0.00000  Uiso   1.00
C990   C     0.93001   0.51504   0.58113   0.00000  Uiso   1.00
C991   C     0.76648   0.50641   0.96097   0.00000  Uiso   1.00
C992   C     0.98583   0.40199   0.75388   0.00000  Uiso   1.00
C993   C     0.90018   0.49359   0.53903   0.00000  Uiso   1.00
C994   C     0.74243   0.54699   0.98604   0.00000  Uiso   1.00
C995   C     0.92424   0.45301   0.51396   0.00000  Uiso   1.00
C996   C     0.82014   0.48970   0.97764   0.00000  Uiso   1.00
C997   C     0.84653   0.51030   0.52236   0.00000  Uiso   1.00
C998   C     0.73783   0.66544   0.79356   0.00000  Uiso   1.00
C999   C     0.73923   0.63896   0.83777   0.00000  Uiso   1.00
C1000  C     0.78855   0.64130   0.86962   0.00000  Uiso   1.00
C1001  C     0.83654   0.33896   0.85887   0.00000  Uiso   1.00
C1002  C     0.83570   0.36612   0.81559   0.00000  Uiso   1.00
C1003  C     0.81722   0.54492   0.55037   0.00000  Uiso   1.00
C1004  C     0.78770   0.36102   0.78209   0.00000  Uiso   1.00
C1005  C     0.92884   0.33456   0.70644   0.00000  Uiso   1.00
C1006  C     0.87897   0.63898   0.71791   0.00000  Uiso   1.00
C1007  C     0.83097   0.63388   0.68441   0.00000  Uiso   1.00
C1008  C     0.83013   0.66104   0.64113   0.00000  Uiso   1.00
C1009  C     0.87811   0.35870   0.63038   0.00000  Uiso   1.00
C1010  C     0.92744   0.36104   0.66223   0.00000  Uiso   1.00
C1011  C     0.84944   0.45508   0.94963   0.00000  Uiso   1.00
C1012  C     0.76695   0.56450   0.53155   0.00000  Uiso   1.00
C1013  C     0.89971   0.43550   0.96845   0.00000  Uiso   1.00
C1014  C     0.68889   0.65167   0.75615   0.00000  Uiso   1.00
C1015  C     0.97777   0.34833   0.74385   0.00000  Uiso   1.00
C1016  C     0.68790   0.50446   0.84111   0.00000  Uiso   1.00
H1017  H     0.74733   0.59334   0.55258   0.00000  Uiso   1.00
H1018  H     0.83719   0.54024   0.78635   0.00000  Uiso   1.00
H1019  H     0.70210   0.61536   0.84659   0.00000  Uiso   1.00
H1020  H     0.78911   0.61990   0.90303   0.00000  Uiso   1.00
H1021  H     0.87448   0.34163   0.88383   0.00000  Uiso   1.00
H1022  H     0.87320   0.38948   0.80728   0.00000  Uiso   1.00
H1023  H     0.79054   0.37801   0.74668   0.00000  Uiso   1.00
H1024  H     0.87613   0.62199   0.75332   0.00000  Uiso   1.00
H1025  H     0.79347   0.61052   0.69272   0.00000  Uiso   1.00
H1026  H     0.79218   0.65837   0.61617   0.00000  Uiso   1.00
H1027  H     0.87756   0.38010   0.59697   0.00000  Uiso   1.00
H1028  H     0.91933   0.40666   0.94742   0.00000  Uiso   1.00
H1029  H     0.96456   0.38464   0.65341   0.00000  Uiso   1.00
H1030  H     0.69398   0.42591   0.60059   0.00000  Uiso   1.00
H1031  H     0.97268   0.57409   0.89941   0.00000  Uiso   1.00
H1032  H     0.67516   0.60024   0.98331   0.00000  Uiso   1.00
H1033  H     0.99151   0.39976   0.51669   0.00000  Uiso   1.00
H1034  H     0.83303   0.55757   0.58692   0.00000  Uiso   1.00
H1035  H     0.83363   0.44243   0.91308   0.00000  Uiso   1.00
H1036  H     0.82948   0.45976   0.71365   0.00000  Uiso   1.00
I1037  I     0.95030   0.59550   0.58591   0.00000  Uiso   1.00
I1038  I     0.71636   0.40450   0.91409   0.00000  Uiso   1.00
N1039  N     0.81362   0.48550   0.73739   0.00000  Uiso   1.00
N1040  N     0.85305   0.51450   0.76260   0.00000  Uiso   1.00
O1041  O     0.96386   0.57964   0.75309   0.00000  Uiso   1.00
O1042  O     0.70281   0.42036   0.74690   0.00000  Uiso   1.00
O1043  O     0.72488   0.57035   0.74501   0.00000  Uiso   1.00
O1044  O     0.94178   0.42965   0.75498   0.00000  Uiso   1.00
O1045  O     0.96995   0.50730   0.82247   0.00000  Uiso   1.00
O1046  O     0.69672   0.49270   0.67753   0.00000  Uiso   1.00
O1047  O     0.73098   0.49801   0.81439   0.00000  Uiso   1.00
O1048  O     0.93569   0.50199   0.68561   0.00000  Uiso   1.00
Zn1049 Zn    0.93700   0.50621   0.75539   0.00000  Uiso   1.00
Zn1050 Zn    0.72967   0.49379   0.74460   0.00000  Uiso   1.00
C1051  C     0.01417   0.93135   0.74612   0.00000  Uiso   1.00
C1052  C     0.31210   0.82888   0.65889   0.00000  Uiso   1.00
C1053  C     0.03117   0.84692   0.89351   0.00000  Uiso   1.00
C1054  C     0.30216   0.81975   0.60649   0.00000  Uiso   1.00
C1055  C     0.02733   0.90233   0.96493   0.00000  Uiso   1.00
C1056  C     0.30600   0.76433   0.53507   0.00000  Uiso   1.00
C1057  C     0.00640   0.88698   0.91763   0.00000  Uiso   1.00
C1058  C     0.32693   0.77968   0.58237   0.00000  Uiso   1.00
C1059  C     0.06999   0.81829   0.91886   0.00000  Uiso   1.00
C1060  C     0.26334   0.84838   0.58113   0.00000  Uiso   1.00
C1061  C     0.09982   0.83975   0.96097   0.00000  Uiso   1.00
C1062  C     0.31917   0.73532   0.75388   0.00000  Uiso   1.00
C1063  C     0.23352   0.82692   0.53903   0.00000  Uiso   1.00
C1064  C     0.07576   0.88032   0.98604   0.00000  Uiso   1.00
C1065  C     0.25757   0.78634   0.51396   0.00000  Uiso   1.00
C1066  C     0.15347   0.82304   0.97764   0.00000  Uiso   1.00
C1067  C     0.17986   0.84363   0.52236   0.00000  Uiso   1.00
C1068  C     0.07116   0.99877   0.79356   0.00000  Uiso   1.00
C1069  C     0.07256   0.97230   0.83777   0.00000  Uiso   1.00
C1070  C     0.12189   0.97463   0.86962   0.00000  Uiso   1.00
C1071  C     0.16987   0.67230   0.85887   0.00000  Uiso   1.00
C1072  C     0.16903   0.69945   0.81559   0.00000  Uiso   1.00
C1073  C     0.15056   0.87826   0.55037   0.00000  Uiso   1.00
C1074  C     0.12103   0.69435   0.78209   0.00000  Uiso   1.00
C1075  C     0.26217   0.66789   0.70644   0.00000  Uiso   1.00
C1076  C     0.21230   0.97231   0.71791   0.00000  Uiso   1.00
C1077  C     0.16430   0.96722   0.68441   0.00000  Uiso   1.00
C1078  C     0.16346   0.99437   0.64113   0.00000  Uiso   1.00
C1079  C     0.21145   0.69203   0.63038   0.00000  Uiso   1.00
C1080  C     0.26077   0.69437   0.66223   0.00000  Uiso   1.00
C1081  C     0.18277   0.78841   0.94963   0.00000  Uiso   1.00
C1082  C     0.10028   0.89784   0.53155   0.00000  Uiso   1.00
C1083  C     0.23305   0.76883   0.96845   0.00000  Uiso   1.00
C1084  C     0.02223   0.98500   0.75615   0.00000  Uiso   1.00
C1085  C     0.31111   0.68166   0.74385   0.00000  Uiso   1.00
C1086  C     0.02123   0.83779   0.84111   0.00000  Uiso   1.00
H1087  H     0.08067   0.92667   0.55258   0.00000  Uiso   1.00
H1088  H     0.17052   0.87358   0.78635   0.00000  Uiso   1.00
H1089  H     0.03544   0.94869   0.84659   0.00000  Uiso   1.00
H1090  H     0.12244   0.95323   0.90303   0.00000  Uiso   1.00
H1091  H     0.20782   0.67496   0.88383   0.00000  Uiso   1.00
H1092  H     0.20653   0.72281   0.80728   0.00000  Uiso   1.00
H1093  H     0.12387   0.71135   0.74668   0.00000  Uiso   1.00
H1094  H     0.20946   0.95532   0.75332   0.00000  Uiso   1.00
H1095  H     0.12680   0.94386   0.69272   0.00000  Uiso   1.00
H1096  H     0.12552   0.99170   0.61617   0.00000  Uiso   1.00
H1097  H     0.21089   0.71344   0.59697   0.00000  Uiso   1.00
H1098  H     0.25267   0.74000   0.94742   0.00000  Uiso   1.00
H1099  H     0.29790   0.71798   0.65341   0.00000  Uiso   1.00
H1100  H     0.02731   0.75925   0.60059   0.00000  Uiso   1.00
H1101  H     0.30602   0.90742   0.89941   0.00000  Uiso   1.00
H1102  H     0.00849   0.93358   0.98331   0.00000  Uiso   1.00
H1103  H     0.32484   0.73309   0.51669   0.00000  Uiso   1.00
H1104  H     0.16637   0.89091   0.58692   0.00000  Uiso   1.00
H1105  H     0.16697   0.77576   0.91308   0.00000  Uiso   1.00
H1106  H     0.16281   0.79309   0.71365   0.00000  Uiso   1.00
I1107  I     0.28364   0.92883   0.58591   0.00000  Uiso   1.00
I1108  I     0.04970   0.73783   0.91409   0.00000  Uiso   1.00
N1109  N     0.14695   0.81883   0.73739   0.00000  Uiso   1.00
N1110  N     0.18638   0.84784   0.76260   0.00000  Uiso   1.00
O1111  O     0.29719   0.91298   0.75309   0.00000  Uiso   1.00
O1112  O     0.03614   0.75369   0.74690   0.00000  Uiso   1.00
O1113  O     0.05822   0.90368   0.74501   0.00000  Uiso   1.00
O1114  O     0.27512   0.76298   0.75498   0.00000  Uiso   1.00
O1115  O     0.30328   0.84063   0.82247   0.00000  Uiso   1.00
O1116  O     0.03005   0.82603   0.67753   0.00000  Uiso   1.00
O1117  O     0.06431   0.83134   0.81439   0.00000  Uiso   1.00
O1118  O     0.26902   0.83533   0.68561   0.00000  Uiso   1.00
Zn1119 Zn    0.27033   0.83954   0.75539   0.00000  Uiso   1.00
Zn1120 Zn    0.06300   0.82713   0.74460   0.00000  Uiso   1.00
C1121  C     0.34750   0.93135   0.74612   0.00000  Uiso   1.00
C1122  C     0.64543   0.82888   0.65889   0.00000  Uiso   1.00
C1123  C     0.36450   0.84692   0.89351   0.00000  Uiso   1.00
C1124  C     0.63550   0.81975   0.60649   0.00000  Uiso   1.00
C1125  C     0.36067   0.90233   0.96493   0.00000  Uiso   1.00
C1126  C     0.63933   0.76433   0.53507   0.00000  Uiso   1.00
C1127  C     0.33973   0.88698   0.91763   0.00000  Uiso   1.00
C1128  C     0.66027   0.77968   0.58237   0.00000  Uiso   1.00
C1129  C     0.40332   0.81829   0.91886   0.00000  Uiso   1.00
C1130  C     0.59668   0.84838   0.58113   0.00000  Uiso   1.00
C1131  C     0.43315   0.83975   0.96097   0.00000  Uiso   1.00
C1132  C     0.65250   0.73532   0.75388   0.00000  Uiso   1.00
C1133  C     0.56685   0.82692   0.53903   0.00000  Uiso   1.00
C1134  C     0.40910   0.88032   0.98604   0.00000  Uiso   1.00
C1135  C     0.59090   0.78634   0.51396   0.00000  Uiso   1.00
C1136  C     0.48680   0.82304   0.97764   0.00000  Uiso   1.00
C1137  C     0.51319   0.84363   0.52236   0.00000  Uiso   1.00
C1138  C     0.40450   0.99877   0.79356   0.00000  Uiso   1.00
C1139  C     0.40589   0.97230   0.83777   0.00000  Uiso   1.00
C1140  C     0.45522   0.97463   0.86962   0.00000  Uiso   1.00
C1141  C     0.50321   0.67230   0.85887   0.00000  Uiso   1.00
C1142  C     0.50237   0.69945   0.81559   0.00000  Uiso   1.00
C1143  C     0.48389   0.87826   0.55037   0.00000  Uiso   1.00
C1144  C     0.45436   0.69435   0.78209   0.00000  Uiso   1.00
C1145  C     0.59550   0.66789   0.70644   0.00000  Uiso   1.00
C1146  C     0.54563   0.97231   0.71791   0.00000  Uiso   1.00
C1147  C     0.49763   0.96722   0.68441   0.00000  Uiso   1.00
C1148  C     0.49679   0.99437   0.64113   0.00000  Uiso   1.00
C1149  C     0.54478   0.69203   0.63038   0.00000  Uiso   1.00
C1150  C     0.59410   0.69437   0.66223   0.00000  Uiso   1.00
C1151  C     0.51611   0.78841   0.94963   0.00000  Uiso   1.00
C1152  C     0.43362   0.89784   0.53155   0.00000  Uiso   1.00
C1153  C     0.56638   0.76883   0.96845   0.00000  Uiso   1.00
C1154  C     0.35556   0.98500   0.75615   0.00000  Uiso   1.00
C1155  C     0.64444   0.68166   0.74385   0.00000  Uiso   1.00
C1156  C     0.35457   0.83779   0.84111   0.00000  Uiso   1.00
H1157  H     0.41400   0.92667   0.55258   0.00000  Uiso   1.00
H1158  H     0.50385   0.87358   0.78635   0.00000  Uiso   1.00
H1159  H     0.36877   0.94869   0.84659   0.00000  Uiso   1.00
H1160  H     0.45577   0.95323   0.90303   0.00000  Uiso   1.00
H1161  H     0.54115   0.67496   0.88383   0.00000  Uiso   1.00
H1162  H     0.53986   0.72281   0.80728   0.00000  Uiso   1.00
H1163  H     0.45720   0.71135   0.74668   0.00000  Uiso   1.00
H1164  H     0.54280   0.95532   0.75332   0.00000  Uiso   1.00
H1165  H     0.46014   0.94386   0.69272   0.00000  Uiso   1.00
H1166  H     0.45885   0.99170   0.61617   0.00000  Uiso   1.00
H1167  H     0.54423   0.71344   0.59697   0.00000  Uiso   1.00
H1168  H     0.58600   0.74000   0.94742   0.00000  Uiso   1.00
H1169  H     0.63123   0.71798   0.65341   0.00000  Uiso   1.00
H1170  H     0.36065   0.75925   0.60059   0.00000  Uiso   1.00
H1171  H     0.63935   0.90742   0.89941   0.00000  Uiso   1.00
H1172  H     0.34183   0.93358   0.98331   0.00000  Uiso   1.00
H1173  H     0.65817   0.73309   0.51669   0.00000  Uiso   1.00
H1174  H     0.49970   0.89091   0.58692   0.00000  Uiso   1.00
H1175  H     0.50030   0.77576   0.91308   0.00000  Uiso   1.00
H1176  H     0.49615   0.79309   0.71365   0.00000  Uiso   1.00
I1177  I     0.61697   0.92883   0.58591   0.00000  Uiso   1.00
I1178  I     0.38303   0.73783   0.91409   0.00000  Uiso   1.00
N1179  N     0.48029   0.81883   0.73739   0.00000  Uiso   1.00
N1180  N     0.51971   0.84784   0.76260   0.00000  Uiso   1.00
O1181  O     0.63052   0.91298   0.75309   0.00000  Uiso   1.00
O1182  O     0.36948   0.75369   0.74690   0.00000  Uiso   1.00
O1183  O     0.39155   0.90368   0.74501   0.00000  Uiso   1.00
O1184  O     0.60845   0.76298   0.75498   0.00000  Uiso   1.00
O1185  O     0.63662   0.84063   0.82247   0.00000  Uiso   1.00
O1186  O     0.36338   0.82603   0.67753   0.00000  Uiso   1.00
O1187  O     0.39764   0.83134   0.81439   0.00000  Uiso   1.00
O1188  O     0.60236   0.83533   0.68561   0.00000  Uiso   1.00
Zn1189 Zn    0.60366   0.83954   0.75539   0.00000  Uiso   1.00
Zn1190 Zn    0.39634   0.82713   0.74460   0.00000  Uiso   1.00
C1191  C     0.68083   0.93135   0.74612   0.00000  Uiso   1.00
C1192  C     0.97877   0.82888   0.65889   0.00000  Uiso   1.00
C1193  C     0.69784   0.84692   0.89351   0.00000  Uiso   1.00
C1194  C     0.96883   0.81975   0.60649   0.00000  Uiso   1.00
C1195  C     0.69400   0.90233   0.96493   0.00000  Uiso   1.00
C1196  C     0.97267   0.76433   0.53507   0.00000  Uiso   1.00
C1197  C     0.67307   0.88698   0.91763   0.00000  Uiso   1.00
C1198  C     0.99360   0.77968   0.58237   0.00000  Uiso   1.00
C1199  C     0.73666   0.81829   0.91886   0.00000  Uiso   1.00
C1200  C     0.93001   0.84838   0.58113   0.00000  Uiso   1.00
C1201  C     0.76648   0.83975   0.96097   0.00000  Uiso   1.00
C1202  C     0.98583   0.73532   0.75388   0.00000  Uiso   1.00
C1203  C     0.90018   0.82692   0.53903   0.00000  Uiso   1.00
C1204  C     0.74243   0.88032   0.98604   0.00000  Uiso   1.00
C1205  C     0.92424   0.78634   0.51396   0.00000  Uiso   1.00
C1206  C     0.82014   0.82304   0.97764   0.00000  Uiso   1.00
C1207  C     0.84653   0.84363   0.52236   0.00000  Uiso   1.00
C1208  C     0.73783   0.99877   0.79356   0.00000  Uiso   1.00
C1209  C     0.73923   0.97230   0.83777   0.00000  Uiso   1.00
C1210  C     0.78855   0.97463   0.86962   0.00000  Uiso   1.00
C1211  C     0.83654   0.67230   0.85887   0.00000  Uiso   1.00
C1212  C     0.83570   0.69945   0.81559   0.00000  Uiso   1.00
C1213  C     0.81722   0.87826   0.55037   0.00000  Uiso   1.00
C1214  C     0.78770   0.69435   0.78209   0.00000  Uiso   1.00
C1215  C     0.92884   0.66789   0.70644   0.00000  Uiso   1.00
C1216  C     0.87897   0.97231   0.71791   0.00000  Uiso   1.00
C1217  C     0.83097   0.96722   0.68441   0.00000  Uiso   1.00
C1218  C     0.83013   0.99437   0.64113   0.00000  Uiso   1.00
C1219  C     0.87811   0.69203   0.63038   0.00000  Uiso   1.00
C1220  C     0.92744   0.69437   0.66223   0.00000  Uiso   1.00
C1221  C     0.84944   0.78841   0.94963   0.00000  Uiso   1.00
C1222  C     0.76695   0.89784   0.53155   0.00000  Uiso   1.00
C1223  C     0.89971   0.76883   0.96845   0.00000  Uiso   1.00
C1224  C     0.68889   0.98500   0.75615   0.00000  Uiso   1.00
C1225  C     0.97777   0.68166   0.74385   0.00000  Uiso   1.00
C1226  C     0.68790   0.83779   0.84111   0.00000  Uiso   1.00
H1227  H     0.74733   0.92667   0.55258   0.00000  Uiso   1.00
H1228  H     0.83719   0.87358   0.78635   0.00000  Uiso   1.00
H1229  H     0.70210   0.94869   0.84659   0.00000  Uiso   1.00
H1230  H     0.78911   0.95323   0.90303   0.00000  Uiso   1.00
H1231  H     0.87448   0.67496   0.88383   0.00000  Uiso   1.00
H1232  H     0.87320   0.72281   0.80728   0.00000  Uiso   1.00
H1233  H     0.79054   0.71135   0.74668   0.00000  Uiso   1.00
H1234  H     0.87613   0.95532   0.75332   0.00000  Uiso   1.00
H1235  H     0.79347   0.94386   0.69272   0.00000  Uiso   1.00
H1236  H     0.79218   0.99170   0.61617   0.00000  Uiso   1.00
H1237  H     0.87756   0.71344   0.59697   0.00000  Uiso   1.00
H1238  H     0.91933   0.74000   0.94742   0.00000  Uiso   1.00
H1239  H     0.96456   0.71798   0.65341   0.00000  Uiso   1.00
H1240  H     0.69398   0.75925   0.60059   0.00000  Uiso   1.00
H1241  H     0.97268   0.90742   0.89941   0.00000  Uiso   1.00
H1242  H     0.67516   0.93358   0.98331   0.00000  Uiso   1.00
H1243  H     0.99151   0.73309   0.51669   0.00000  Uiso   1.00
H1244  H     0.83303   0.89091   0.58692   0.00000  Uiso   1.00
H1245  H     0.83363   0.77576   0.91308   0.00000  Uiso   1.00
H1246  H     0.82948   0.79309   0.71365   0.00000  Uiso   1.00
I1247  I     0.95030   0.92883   0.58591   0.00000  Uiso   1.00
I1248  I     0.71636   0.73783   0.91409   0.00000  Uiso   1.00
N1249  N     0.81362   0.81883   0.73739   0.00000  Uiso   1.00
N1250  N     0.85305   0.84784   0.76260   0.00000  Uiso   1.00
O1251  O     0.96386   0.91298   0.75309   0.00000  Uiso   1.00
O1252  O     0.70281   0.75369   0.74690   0.00000  Uiso   1.00
O1253  O     0.72488   0.90368   0.74501   0.00000  Uiso   1.00
O1254  O     0.94178   0.76298   0.75498   0.00000  Uiso   1.00
O1255  O     0.96995   0.84063   0.82247   0.00000  Uiso   1.00
O1256  O     0.69672   0.82603   0.67753   0.00000  Uiso   1.00
O1257  O     0.73098   0.83134   0.81439   0.00000  Uiso   1.00
O1258  O     0.93569   0.83533   0.68561   0.00000  Uiso   1.00
Zn1259 Zn    0.93700   0.83954   0.75539   0.00000  Uiso   1.00
Zn1260 Zn    0.72967   0.82713   0.74460   0.00000  Uiso   1.00
loop_
_geom_bond_atom_site_label_1
_geom_bond_atom_site_label_2
_geom_bond_distance
_geom_bond_site_symmetry_2
_ccdc_geom_bond_type
C1     C34     1.415   .     S
C1     O63     1.301   .     A
C1     O201    1.272   1_455 S
C2     C4      1.451   .     S
C2     O68     1.307   .     A
C2     O136    1.282   .     S
C3     C9      1.377   .     A
C3     C7      1.403   .     A
C3     C36     1.451   .     S
C4     C8      1.403   .     A
C4     C10     1.377   .     A
C5     H52     1.083   .     S
C5     C14     1.403   .     A
C5     C7      1.394   .     A
C6     C8      1.394   .     A
C6     H53     1.083   .     S
C6     C15     1.403   .     A
C7     H191    1.083   1_455 S
C8     H120    1.083   .     S
C9     C11     1.393   .     A
C9     I58     2.115   .     S
C10    I57     2.115   .     S
C10    C13     1.392   .     A
C11    C16     1.410   .     A
C11    C14     1.418   .     A
C12    C35     1.415   .     S
C12    O64     1.301   .     A
C12    O132    1.272   .     S
C13    C17     1.410   .     A
C13    C15     1.418   .     A
C14    C662    1.391   .     S
C15    C663    1.391   1_554 S
C16    C31     1.415   .     A
C16    C647    1.412   .     S
C17    C23     1.415   .     A
C17    C646    1.412   1_554 S
C18    C34     1.504   .     S
C18    C19     1.407   .     A
C18    C234    1.406   .     S
C19    C20     1.398   .     A
C19    H39     1.076   .     S
C20    H40     1.082   .     S
C20    C231    1.393   .     S
C21    C22     1.394   .     A
C21    H41     1.082   .     S
C21    C440    1.393   1_545 S
C22    H42     1.076   .     S
C22    C24     1.400   .     A
C23    C32     1.388   .     A
C23    H54     1.080   .     S
C24    H43     1.080   .     S
C24    C438    1.406   1_545 S
C25    C35     1.504   .     S
C25    C30     1.407   .     A
C25    C446    1.406   1_545 S
C26    C27     1.400   .     A
C26    H44     1.080   .     S
C26    C235    1.406   .     S
C27    H45     1.076   .     S
C27    C28     1.394   .     A
C28    H46     1.082   .     S
C28    C239    1.393   .     S
C29    C30     1.398   .     A
C29    H47     1.082   .     S
C29    C448    1.393   1_545 S
C30    H49     1.076   .     S
C31    C33     1.388   .     A
C31    H55     1.080   .     S
C32    H37     1.083   .     S
C32    C644    1.391   1_554 S
C33    H48     1.083   .     S
C33    C645    1.391   .     S
C34    C385    1.373   1_455 S
C35    C524    1.373   1_545 S
C36    O67     1.307   .     A
C36    O205    1.282   1_455 S
H38    N60     1.029   .     S
H50    C148    1.083   1_455 S
H51    C77     1.083   .     S
H56    N59     1.029   .     S
N59    N60     1.302   .     D
N59    Zn70    2.020   .     S
N60    Zn69    2.020   .     S
O61    Zn69    1.975   .     S
O61    C71     1.272   .     S
O62    Zn70    1.975   .     S
O62    C152    1.272   1_455 S
O63    Zn70    2.003   .     S
O64    Zn69    2.003   .     S
O65    Zn69    1.943   .     S
O65    C106    1.282   .     S
O66    Zn70    1.943   .     S
O66    C142    1.282   1_455 S
O67    Zn70    1.912   .     S
O68    Zn69    1.912   .     S
C71    C104    1.415   .     S
C71    O133    1.301   .     A
C72    C74     1.451   .     S
C72    O138    1.307   .     A
C72    O206    1.282   .     S
C73    C79     1.377   .     A
C73    C77     1.403   .     A
C73    C106    1.451   .     S
C74    C78     1.403   .     A
C74    C80     1.377   .     A
C75    H122    1.083   .     S
C75    C84     1.403   .     A
C75    C77     1.394   .     A
C76    C78     1.394   .     A
C76    H123    1.083   .     S
C76    C85     1.403   .     A
C78    H190    1.083   .     S
C79    C81     1.393   .     A
C79    I128    2.115   .     S
C80    I127    2.115   .     S
C80    C83     1.392   .     A
C81    C86     1.410   .     A
C81    C84     1.418   .     A
C82    C105    1.415   .     S
C82    O134    1.301   .     A
C82    O202    1.272   .     S
C83    C87     1.410   .     A
C83    C85     1.418   .     A
C84    C732    1.391   .     S
C85    C733    1.391   1_554 S
C86    C101    1.415   .     A
C86    C717    1.412   .     S
C87    C93     1.415   .     A
C87    C716    1.412   1_554 S
C88    C104    1.504   .     S
C88    C89     1.407   .     A
C88    C304    1.406   .     S
C89    C90     1.398   .     A
C89    H109    1.076   .     S
C90    H110    1.082   .     S
C90    C301    1.393   .     S
C91    C92     1.394   .     A
C91    H111    1.082   .     S
C91    C510    1.393   1_545 S
C92    H112    1.076   .     S
C92    C94     1.400   .     A
C93    C102    1.388   .     A
C93    H124    1.080   .     S
C94    H113    1.080   .     S
C94    C508    1.406   1_545 S
C95    C105    1.504   .     S
C95    C100    1.407   .     A
C95    C516    1.406   1_545 S
C96    C97     1.400   .     A
C96    H114    1.080   .     S
C96    C305    1.406   .     S
C97    H115    1.076   .     S
C97    C98     1.394   .     A
C98    H116    1.082   .     S
C98    C309    1.393   .     S
C99    C100    1.398   .     A
C99    H117    1.082   .     S
C99    C518    1.393   1_545 S
C100   H119    1.076   .     S
C101   C103    1.388   .     A
C101   H125    1.080   .     S
C102   H107    1.083   .     S
C102   C714    1.391   1_554 S
C103   H118    1.083   .     S
C103   C715    1.391   .     S
C104   C245    1.373   .     S
C105   C594    1.373   1_545 S
C106   O137    1.307   .     A
H108   N130    1.029   .     S
H121   C147    1.083   .     S
H126   N129    1.029   .     S
N129   N130    1.302   .     D
N129   Zn140   2.020   .     S
N130   Zn139   2.020   .     S
O131   Zn139   1.975   .     S
O131   C141    1.272   .     S
O132   Zn140   1.975   .     S
O133   Zn140   2.003   .     S
O134   Zn139   2.003   .     S
O135   Zn139   1.943   .     S
O135   C176    1.282   .     S
O136   Zn140   1.943   .     S
O137   Zn140   1.912   .     S
O138   Zn139   1.912   .     S
C141   C174    1.415   .     S
C141   O203    1.301   .     A
C142   C144    1.451   .     S
C142   O208    1.307   .     A
C142   O66     1.282   1_655 S
C143   C149    1.377   .     A
C143   C147    1.403   .     A
C143   C176    1.451   .     S
C144   C148    1.403   .     A
C144   C150    1.377   .     A
C145   H192    1.083   .     S
C145   C154    1.403   .     A
C145   C147    1.394   .     A
C146   C148    1.394   .     A
C146   H193    1.083   .     S
C146   C155    1.403   .     A
C148   H50     1.083   1_655 S
C149   C151    1.393   .     A
C149   I198    2.115   .     S
C150   I197    2.115   .     S
C150   C153    1.392   .     A
C151   C156    1.410   .     A
C151   C154    1.418   .     A
C152   C175    1.415   .     S
C152   O204    1.301   .     A
C152   O62     1.272   1_655 S
C153   C157    1.410   .     A
C153   C155    1.418   .     A
C154   C802    1.391   .     S
C155   C803    1.391   1_554 S
C156   C171    1.415   .     A
C156   C787    1.412   .     S
C157   C163    1.415   .     A
C157   C786    1.412   1_554 S
C158   C174    1.504   .     S
C158   C159    1.407   .     A
C158   C374    1.406   .     S
C159   C160    1.398   .     A
C159   H179    1.076   .     S
C160   H180    1.082   .     S
C160   C371    1.393   .     S
C161   C162    1.394   .     A
C161   H181    1.082   .     S
C161   C580    1.393   1_545 S
C162   H182    1.076   .     S
C162   C164    1.400   .     A
C163   C172    1.388   .     A
C163   H194    1.080   .     S
C164   H183    1.080   .     S
C164   C578    1.406   1_545 S
C165   C175    1.504   .     S
C165   C170    1.407   .     A
C165   C586    1.406   1_545 S
C166   C167    1.400   .     A
C166   H184    1.080   .     S
C166   C375    1.406   .     S
C167   H185    1.076   .     S
C167   C168    1.394   .     A
C168   H186    1.082   .     S
C168   C379    1.393   .     S
C169   C170    1.398   .     A
C169   H187    1.082   .     S
C169   C588    1.393   1_545 S
C170   H189    1.076   .     S
C171   C173    1.388   .     A
C171   H195    1.080   .     S
C172   H177    1.083   .     S
C172   C784    1.391   1_554 S
C173   H188    1.083   .     S
C173   C785    1.391   .     S
C174   C315    1.373   .     S
C175   C454    1.373   1_645 S
C176   O207    1.307   .     A
H178   N200    1.029   .     S
H191   C7      1.083   1_655 S
H196   N199    1.029   .     S
N199   N200    1.302   .     D
N199   Zn210   2.020   .     S
N200   Zn209   2.020   .     S
O201   Zn209   1.975   .     S
O201   C1      1.272   1_655 S
O202   Zn210   1.975   .     S
O203   Zn210   2.003   .     S
O204   Zn209   2.003   .     S
O205   Zn209   1.943   .     S
O205   C36     1.282   1_655 S
O206   Zn210   1.943   .     S
O207   Zn210   1.912   .     S
O208   Zn209   1.912   .     S
C211   C244    1.415   .     S
C211   O273    1.301   .     A
C211   O411    1.272   1_455 S
C212   C214    1.451   .     S
C212   O278    1.307   .     A
C212   O346    1.282   .     S
C213   C219    1.377   .     A
C213   C217    1.403   .     A
C213   C246    1.451   .     S
C214   C218    1.403   .     A
C214   C220    1.377   .     A
C215   H262    1.083   .     S
C215   C224    1.403   .     A
C215   C217    1.394   .     A
C216   C218    1.394   .     A
C216   H263    1.083   .     S
C216   C225    1.403   .     A
C217   H401    1.083   1_455 S
C218   H330    1.083   .     S
C219   C221    1.393   .     A
C219   I268    2.115   .     S
C220   I267    2.115   .     S
C220   C223    1.392   .     A
C221   C226    1.410   .     A
C221   C224    1.418   .     A
C222   C245    1.415   .     S
C222   O274    1.301   .     A
C222   O342    1.272   .     S
C223   C227    1.410   .     A
C223   C225    1.418   .     A
C224   C872    1.391   .     S
C225   C873    1.391   1_554 S
C226   C241    1.415   .     A
C226   C857    1.412   .     S
C227   C233    1.415   .     A
C227   C856    1.412   1_554 S
C228   C244    1.504   .     S
C228   C229    1.407   .     A
C228   C444    1.406   .     S
C229   C230    1.398   .     A
C229   H249    1.076   .     S
C230   H250    1.082   .     S
C230   C441    1.393   .     S
C231   C232    1.394   .     A
C231   H251    1.082   .     S
C232   H252    1.076   .     S
C232   C234    1.400   .     A
C233   C242    1.388   .     A
C233   H264    1.080   .     S
C234   H253    1.080   .     S
C235   C245    1.504   .     S
C235   C240    1.407   .     A
C236   C237    1.400   .     A
C236   H254    1.080   .     S
C236   C445    1.406   .     S
C237   H255    1.076   .     S
C237   C238    1.394   .     A
C238   H256    1.082   .     S
C238   C449    1.393   .     S
C239   C240    1.398   .     A
C239   H257    1.082   .     S
C240   H259    1.076   .     S
C241   C243    1.388   .     A
C241   H265    1.080   .     S
C242   H247    1.083   .     S
C242   C854    1.391   1_554 S
C243   H258    1.083   .     S
C243   C855    1.391   .     S
C244   C595    1.373   1_455 S
C246   O277    1.307   .     A
C246   O415    1.282   1_455 S
H248   N270    1.029   .     S
H260   C358    1.083   1_455 S
H261   C287    1.083   .     S
H266   N269    1.029   .     S
N269   N270    1.302   .     D
N269   Zn280   2.020   .     S
N270   Zn279   2.020   .     S
O271   Zn279   1.975   .     S
O271   C281    1.272   .     S
O272   Zn280   1.975   .     S
O272   C362    1.272   1_455 S
O273   Zn280   2.003   .     S
O274   Zn279   2.003   .     S
O275   Zn279   1.943   .     S
O275   C316    1.282   .     S
O276   Zn280   1.943   .     S
O276   C352    1.282   1_455 S
O277   Zn280   1.912   .     S
O278   Zn279   1.912   .     S
C281   C314    1.415   .     S
C281   O343    1.301   .     A
C282   C284    1.451   .     S
C282   O348    1.307   .     A
C282   O416    1.282   .     S
C283   C289    1.377   .     A
C283   C287    1.403   .     A
C283   C316    1.451   .     S
C284   C288    1.403   .     A
C284   C290    1.377   .     A
C285   H332    1.083   .     S
C285   C294    1.403   .     A
C285   C287    1.394   .     A
C286   C288    1.394   .     A
C286   H333    1.083   .     S
C286   C295    1.403   .     A
C288   H400    1.083   .     S
C289   C291    1.393   .     A
C289   I338    2.115   .     S
C290   I337    2.115   .     S
C290   C293    1.392   .     A
C291   C296    1.410   .     A
C291   C294    1.418   .     A
C292   C315    1.415   .     S
C292   O344    1.301   .     A
C292   O412    1.272   .     S
C293   C297    1.410   .     A
C293   C295    1.418   .     A
C294   C942    1.391   .     S
C295   C943    1.391   1_554 S
C296   C311    1.415   .     A
C296   C927    1.412   .     S
C297   C303    1.415   .     A
C297   C926    1.412   1_554 S
C298   C314    1.504   .     S
C298   C299    1.407   .     A
C298   C514    1.406   .     S
C299   C300    1.398   .     A
C299   H319    1.076   .     S
C300   H320    1.082   .     S
C300   C511    1.393   .     S
C301   C302    1.394   .     A
C301   H321    1.082   .     S
C302   H322    1.076   .     S
C302   C304    1.400   .     A
C303   C312    1.388   .     A
C303   H334    1.080   .     S
C304   H323    1.080   .     S
C305   C315    1.504   .     S
C305   C310    1.407   .     A
C306   C307    1.400   .     A
C306   H324    1.080   .     S
C306   C515    1.406   .     S
C307   H325    1.076   .     S
C307   C308    1.394   .     A
C308   H326    1.082   .     S
C308   C519    1.393   .     S
C309   C310    1.398   .     A
C309   H327    1.082   .     S
C310   H329    1.076   .     S
C311   C313    1.388   .     A
C311   H335    1.080   .     S
C312   H317    1.083   .     S
C312   C924    1.391   1_554 S
C313   H328    1.083   .     S
C313   C925    1.391   .     S
C314   C455    1.373   .     S
C316   O347    1.307   .     A
H318   N340    1.029   .     S
H331   C357    1.083   .     S
H336   N339    1.029   .     S
N339   N340    1.302   .     D
N339   Zn350   2.020   .     S
N340   Zn349   2.020   .     S
O341   Zn349   1.975   .     S
O341   C351    1.272   .     S
O342   Zn350   1.975   .     S
O343   Zn350   2.003   .     S
O344   Zn349   2.003   .     S
O345   Zn349   1.943   .     S
O345   C386    1.282   .     S
O346   Zn350   1.943   .     S
O347   Zn350   1.912   .     S
O348   Zn349   1.912   .     S
C351   C384    1.415   .     S
C351   O413    1.301   .     A
C352   C354    1.451   .     S
C352   O418    1.307   .     A
C352   O276    1.282   1_655 S
C353   C359    1.377   .     A
C353   C357    1.403   .     A
C353   C386    1.451   .     S
C354   C358    1.403   .     A
C354   C360    1.377   .     A
C355   H402    1.083   .     S
C355   C364    1.403   .     A
C355   C357    1.394   .     A
C356   C358    1.394   .     A
C356   H403    1.083   .     S
C356   C365    1.403   .     A
C358   H260    1.083   1_655 S
C359   C361    1.393   .     A
C359   I408    2.115   .     S
C360   I407    2.115   .     S
C360   C363    1.392   .     A
C361   C366    1.410   .     A
C361   C364    1.418   .     A
C362   C385    1.415   .     S
C362   O414    1.301   .     A
C362   O272    1.272   1_655 S
C363   C367    1.410   .     A
C363   C365    1.418   .     A
C364   C1012   1.391   .     S
C365   C1013   1.391   1_554 S
C366   C381    1.415   .     A
C366   C997    1.412   .     S
C367   C373    1.415   .     A
C367   C996    1.412   1_554 S
C368   C384    1.504   .     S
C368   C369    1.407   .     A
C368   C584    1.406   .     S
C369   C370    1.398   .     A
C369   H389    1.076   .     S
C370   H390    1.082   .     S
C370   C581    1.393   .     S
C371   C372    1.394   .     A
C371   H391    1.082   .     S
C372   H392    1.076   .     S
C372   C374    1.400   .     A
C373   C382    1.388   .     A
C373   H404    1.080   .     S
C374   H393    1.080   .     S
C375   C385    1.504   .     S
C375   C380    1.407   .     A
C376   C377    1.400   .     A
C376   H394    1.080   .     S
C376   C585    1.406   .     S
C377   H395    1.076   .     S
C377   C378    1.394   .     A
C378   H396    1.082   .     S
C378   C589    1.393   .     S
C379   C380    1.398   .     A
C379   H397    1.082   .     S
C380   H399    1.076   .     S
C381   C383    1.388   .     A
C381   H405    1.080   .     S
C382   H387    1.083   .     S
C382   C994    1.391   1_554 S
C383   H398    1.083   .     S
C383   C995    1.391   .     S
C384   C525    1.373   .     S
C385   C34     1.373   1_655 S
C386   O417    1.307   .     A
H388   N410    1.029   .     S
H401   C217    1.083   1_655 S
H406   N409    1.029   .     S
N409   N410    1.302   .     D
N409   Zn420   2.020   .     S
N410   Zn419   2.020   .     S
O411   Zn419   1.975   .     S
O411   C211    1.272   1_655 S
O412   Zn420   1.975   .     S
O413   Zn420   2.003   .     S
O414   Zn419   2.003   .     S
O415   Zn419   1.943   .     S
O415   C246    1.282   1_655 S
O416   Zn420   1.943   .     S
O417   Zn420   1.912   .     S
O418   Zn419   1.912   .     S
C421   C454    1.415   .     S
C421   O483    1.301   .     A
C421   O621    1.272   1_455 S
C422   C424    1.451   .     S
C422   O488    1.307   .     A
C422   O556    1.282   .     S
C423   C429    1.377   .     A
C423   C427    1.403   .     A
C423   C456    1.451   .     S
C424   C428    1.403   .     A
C424   C430    1.377   .     A
C425   H472    1.083   .     S
C425   C434    1.403   .     A
C425   C427    1.394   .     A
C426   C428    1.394   .     A
C426   H473    1.083   .     S
C426   C435    1.403   .     A
C427   H611    1.083   1_455 S
C428   H540    1.083   .     S
C429   C431    1.393   .     A
C429   I478    2.115   .     S
C430   I477    2.115   .     S
C430   C433    1.392   .     A
C431   C436    1.410   .     A
C431   C434    1.418   .     A
C432   C455    1.415   .     S
C432   O484    1.301   .     A
C432   O552    1.272   .     S
C433   C437    1.410   .     A
C433   C435    1.418   .     A
C434   C1082   1.391   .     S
C435   C1083   1.391   1_554 S
C436   C451    1.415   .     A
C436   C1067   1.412   .     S
C437   C443    1.415   .     A
C437   C1066   1.412   1_554 S
C438   C454    1.504   .     S
C438   C439    1.407   .     A
C438   C24     1.406   1_565 S
C439   C440    1.398   .     A
C439   H459    1.076   .     S
C440   H460    1.082   .     S
C440   C21     1.393   1_565 S
C441   C442    1.394   .     A
C441   H461    1.082   .     S
C442   H462    1.076   .     S
C442   C444    1.400   .     A
C443   C452    1.388   .     A
C443   H474    1.080   .     S
C444   H463    1.080   .     S
C445   C455    1.504   .     S
C445   C450    1.407   .     A
C446   C447    1.400   .     A
C446   H464    1.080   .     S
C446   C25     1.406   1_565 S
C447   H465    1.076   .     S
C447   C448    1.394   .     A
C448   H466    1.082   .     S
C448   C29     1.393   1_565 S
C449   C450    1.398   .     A
C449   H467    1.082   .     S
C450   H469    1.076   .     S
C451   C453    1.388   .     A
C451   H475    1.080   .     S
C452   H457    1.083   .     S
C452   C1064   1.391   1_554 S
C453   H468    1.083   .     S
C453   C1065   1.391   .     S
C454   C175    1.373   1_465 S
C456   O487    1.307   .     A
C456   O625    1.282   1_455 S
H458   N480    1.029   .     S
H470   C568    1.083   1_455 S
H471   C497    1.083   .     S
H476   N479    1.029   .     S
N479   N480    1.302   .     D
N479   Zn490   2.020   .     S
N480   Zn489   2.020   .     S
O481   Zn489   1.975   .     S
O481   C491    1.272   .     S
O482   Zn490   1.975   .     S
O482   C572    1.272   1_455 S
O483   Zn490   2.003   .     S
O484   Zn489   2.003   .     S
O485   Zn489   1.943   .     S
O485   C526    1.282   .     S
O486   Zn490   1.943   .     S
O486   C562    1.282   1_455 S
O487   Zn490   1.912   .     S
O488   Zn489   1.912   .     S
C491   C524    1.415   .     S
C491   O553    1.301   .     A
C492   C494    1.451   .     S
C492   O558    1.307   .     A
C492   O626    1.282   .     S
C493   C499    1.377   .     A
C493   C497    1.403   .     A
C493   C526    1.451   .     S
C494   C498    1.403   .     A
C494   C500    1.377   .     A
C495   H542    1.083   .     S
C495   C504    1.403   .     A
C495   C497    1.394   .     A
C496   C498    1.394   .     A
C496   H543    1.083   .     S
C496   C505    1.403   .     A
C498   H610    1.083   .     S
C499   C501    1.393   .     A
C499   I548    2.115   .     S
C500   I547    2.115   .     S
C500   C503    1.392   .     A
C501   C506    1.410   .     A
C501   C504    1.418   .     A
C502   C525    1.415   .     S
C502   O554    1.301   .     A
C502   O622    1.272   .     S
C503   C507    1.410   .     A
C503   C505    1.418   .     A
C504   C1152   1.391   .     S
C505   C1153   1.391   1_554 S
C506   C521    1.415   .     A
C506   C1137   1.412   .     S
C507   C513    1.415   .     A
C507   C1136   1.412   1_554 S
C508   C524    1.504   .     S
C508   C509    1.407   .     A
C508   C94     1.406   1_565 S
C509   C510    1.398   .     A
C509   H529    1.076   .     S
C510   H530    1.082   .     S
C510   C91     1.393   1_565 S
C511   C512    1.394   .     A
C511   H531    1.082   .     S
C512   H532    1.076   .     S
C512   C514    1.400   .     A
C513   C522    1.388   .     A
C513   H544    1.080   .     S
C514   H533    1.080   .     S
C515   C525    1.504   .     S
C515   C520    1.407   .     A
C516   C517    1.400   .     A
C516   H534    1.080   .     S
C516   C95     1.406   1_565 S
C517   H535    1.076   .     S
C517   C518    1.394   .     A
C518   H536    1.082   .     S
C518   C99     1.393   1_565 S
C519   C520    1.398   .     A
C519   H537    1.082   .     S
C520   H539    1.076   .     S
C521   C523    1.388   .     A
C521   H545    1.080   .     S
C522   H527    1.083   .     S
C522   C1134   1.391   1_554 S
C523   H538    1.083   .     S
C523   C1135   1.391   .     S
C524   C35     1.373   1_565 S
C526   O557    1.307   .     A
H528   N550    1.029   .     S
H541   C567    1.083   .     S
H546   N549    1.029   .     S
N549   N550    1.302   .     D
N549   Zn560   2.020   .     S
N550   Zn559   2.020   .     S
O551   Zn559   1.975   .     S
O551   C561    1.272   .     S
O552   Zn560   1.975   .     S
O553   Zn560   2.003   .     S
O554   Zn559   2.003   .     S
O555   Zn559   1.943   .     S
O555   C596    1.282   .     S
O556   Zn560   1.943   .     S
O557   Zn560   1.912   .     S
O558   Zn559   1.912   .     S
C561   C594    1.415   .     S
C561   O623    1.301   .     A
C562   C564    1.451   .     S
C562   O628    1.307   .     A
C562   O486    1.282   1_655 S
C563   C569    1.377   .     A
C563   C567    1.403   .     A
C563   C596    1.451   .     S
C564   C568    1.403   .     A
C564   C570    1.377   .     A
C565   H612    1.083   .     S
C565   C574    1.403   .     A
C565   C567    1.394   .     A
C566   C568    1.394   .     A
C566   H613    1.083   .     S
C566   C575    1.403   .     A
C568   H470    1.083   1_655 S
C569   C571    1.393   .     A
C569   I618    2.115   .     S
C570   I617    2.115   .     S
C570   C573    1.392   .     A
C571   C576    1.410   .     A
C571   C574    1.418   .     A
C572   C595    1.415   .     S
C572   O624    1.301   .     A
C572   O482    1.272   1_655 S
C573   C577    1.410   .     A
C573   C575    1.418   .     A
C574   C1222   1.391   .     S
C575   C1223   1.391   1_554 S
C576   C591    1.415   .     A
C576   C1207   1.412   .     S
C577   C583    1.415   .     A
C577   C1206   1.412   1_554 S
C578   C594    1.504   .     S
C578   C579    1.407   .     A
C578   C164    1.406   1_565 S
C579   C580    1.398   .     A
C579   H599    1.076   .     S
C580   H600    1.082   .     S
C580   C161    1.393   1_565 S
C581   C582    1.394   .     A
C581   H601    1.082   .     S
C582   H602    1.076   .     S
C582   C584    1.400   .     A
C583   C592    1.388   .     A
C583   H614    1.080   .     S
C584   H603    1.080   .     S
C585   C595    1.504   .     S
C585   C590    1.407   .     A
C586   C587    1.400   .     A
C586   H604    1.080   .     S
C586   C165    1.406   1_565 S
C587   H605    1.076   .     S
C587   C588    1.394   .     A
C588   H606    1.082   .     S
C588   C169    1.393   1_565 S
C589   C590    1.398   .     A
C589   H607    1.082   .     S
C590   H609    1.076   .     S
C591   C593    1.388   .     A
C591   H615    1.080   .     S
C592   H597    1.083   .     S
C592   C1204   1.391   1_554 S
C593   H608    1.083   .     S
C593   C1205   1.391   .     S
C594   C105    1.373   1_565 S
C595   C244    1.373   1_655 S
C596   O627    1.307   .     A
H598   N620    1.029   .     S
H611   C427    1.083   1_655 S
H616   N619    1.029   .     S
N619   N620    1.302   .     D
N619   Zn630   2.020   .     S
N620   Zn629   2.020   .     S
O621   Zn629   1.975   .     S
O621   C421    1.272   1_655 S
O622   Zn630   1.975   .     S
O623   Zn630   2.003   .     S
O624   Zn629   2.003   .     S
O625   Zn629   1.943   .     S
O625   C456    1.282   1_655 S
O626   Zn630   1.943   .     S
O627   Zn630   1.912   .     S
O628   Zn629   1.912   .     S
C631   C664    1.415   .     S
C631   O693    1.301   .     A
C631   O831    1.272   1_455 S
C632   C634    1.451   .     S
C632   O698    1.307   .     A
C632   O766    1.282   .     S
C633   C639    1.377   .     A
C633   C637    1.403   .     A
C633   C666    1.451   .     S
C634   C638    1.403   .     A
C634   C640    1.377   .     A
C635   H682    1.083   .     S
C635   C644    1.403   .     A
C635   C637    1.394   .     A
C636   C638    1.394   .     A
C636   H683    1.083   .     S
C636   C645    1.403   .     A
C637   H821    1.083   1_455 S
C638   H750    1.083   .     S
C639   C641    1.393   .     A
C639   I688    2.115   .     S
C640   I687    2.115   .     S
C640   C643    1.392   .     A
C641   C646    1.410   .     A
C641   C644    1.418   .     A
C642   C665    1.415   .     S
C642   O694    1.301   .     A
C642   O762    1.272   .     S
C643   C647    1.410   .     A
C643   C645    1.418   .     A
C644   C32     1.391   1_556 S
C646   C661    1.415   .     A
C646   C17     1.412   1_556 S
C647   C653    1.415   .     A
C648   C664    1.504   .     S
C648   C649    1.407   .     A
C648   C864    1.406   .     S
C649   C650    1.398   .     A
C649   H669    1.076   .     S
C650   H670    1.082   .     S
C650   C861    1.393   .     S
C651   C652    1.394   .     A
C651   H671    1.082   .     S
C651   C1070   1.393   1_545 S
C652   H672    1.076   .     S
C652   C654    1.400   .     A
C653   C662    1.388   .     A
C653   H684    1.080   .     S
C654   H673    1.080   .     S
C654   C1068   1.406   1_545 S
C655   C665    1.504   .     S
C655   C660    1.407   .     A
C655   C1076   1.406   1_545 S
C656   C657    1.400   .     A
C656   H674    1.080   .     S
C656   C865    1.406   .     S
C657   H675    1.076   .     S
C657   C658    1.394   .     A
C658   H676    1.082   .     S
C658   C869    1.393   .     S
C659   C660    1.398   .     A
C659   H677    1.082   .     S
C659   C1078   1.393   1_545 S
C660   H679    1.076   .     S
C661   C663    1.388   .     A
C661   H685    1.080   .     S
C662   H667    1.083   .     S
C663   H678    1.083   .     S
C663   C15     1.391   1_556 S
C664   C1015   1.373   1_455 S
C665   C1154   1.373   1_545 S
C666   O697    1.307   .     A
C666   O835    1.282   1_455 S
H668   N690    1.029   .     S
H680   C778    1.083   1_455 S
H681   C707    1.083   .     S
H686   N689    1.029   .     S
N689   N690    1.302   .     D
N689   Zn700   2.020   .     S
N690   Zn699   2.020   .     S
O691   Zn699   1.975   .     S
O691   C701    1.272   .     S
O692   Zn700   1.975   .     S
O692   C782    1.272   1_455 S
O693   Zn700   2.003   .     S
O694   Zn699   2.003   .     S
O695   Zn699   1.943   .     S
O695   C736    1.282   .     S
O696   Zn700   1.943   .     S
O696   C772    1.282   1_455 S
O697   Zn700   1.912   .     S
O698   Zn699   1.912   .     S
C701   C734    1.415   .     S
C701   O763    1.301   .     A
C702   C704    1.451   .     S
C702   O768    1.307   .     A
C702   O836    1.282   .     S
C703   C709    1.377   .     A
C703   C707    1.403   .     A
C703   C736    1.451   .     S
C704   C708    1.403   .     A
C704   C710    1.377   .     A
C705   H752    1.083   .     S
C705   C714    1.403   .     A
C705   C707    1.394   .     A
C706   C708    1.394   .     A
C706   H753    1.083   .     S
C706   C715    1.403   .     A
C708   H820    1.083   .     S
C709   C711    1.393   .     A
C709   I758    2.115   .     S
C710   I757    2.115   .     S
C710   C713    1.392   .     A
C711   C716    1.410   .     A
C711   C714    1.418   .     A
C712   C735    1.415   .     S
C712   O764    1.301   .     A
C712   O832    1.272   .     S
C713   C717    1.410   .     A
C713   C715    1.418   .     A
C714   C102    1.391   1_556 S
C716   C731    1.415   .     A
C716   C87     1.412   1_556 S
C717   C723    1.415   .     A
C718   C734    1.504   .     S
C718   C719    1.407   .     A
C718   C934    1.406   .     S
C719   C720    1.398   .     A
C719   H739    1.076   .     S
C720   H740    1.082   .     S
C720   C931    1.393   .     S
C721   C722    1.394   .     A
C721   H741    1.082   .     S
C721   C1140   1.393   1_545 S
C722   H742    1.076   .     S
C722   C724    1.400   .     A
C723   C732    1.388   .     A
C723   H754    1.080   .     S
C724   H743    1.080   .     S
C724   C1138   1.406   1_545 S
C725   C735    1.504   .     S
C725   C730    1.407   .     A
C725   C1146   1.406   1_545 S
C726   C727    1.400   .     A
C726   H744    1.080   .     S
C726   C935    1.406   .     S
C727   H745    1.076   .     S
C727   C728    1.394   .     A
C728   H746    1.082   .     S
C728   C939    1.393   .     S
C729   C730    1.398   .     A
C729   H747    1.082   .     S
C729   C1148   1.393   1_545 S
C730   H749    1.076   .     S
C731   C733    1.388   .     A
C731   H755    1.080   .     S
C732   H737    1.083   .     S
C733   H748    1.083   .     S
C733   C85     1.391   1_556 S
C734   C875    1.373   .     S
C735   C1224   1.373   1_545 S
C736   O767    1.307   .     A
H738   N760    1.029   .     S
H751   C777    1.083   .     S
H756   N759    1.029   .     S
N759   N760    1.302   .     D
N759   Zn770   2.020   .     S
N760   Zn769   2.020   .     S
O761   Zn769   1.975   .     S
O761   C771    1.272   .     S
O762   Zn770   1.975   .     S
O763   Zn770   2.003   .     S
O764   Zn769   2.003   .     S
O765   Zn769   1.943   .     S
O765   C806    1.282   .     S
O766   Zn770   1.943   .     S
O767   Zn770   1.912   .     S
O768   Zn769   1.912   .     S
C771   C804    1.415   .     S
C771   O833    1.301   .     A
C772   C774    1.451   .     S
C772   O838    1.307   .     A
C772   O696    1.282   1_655 S
C773   C779    1.377   .     A
C773   C777    1.403   .     A
C773   C806    1.451   .     S
C774   C778    1.403   .     A
C774   C780    1.377   .     A
C775   H822    1.083   .     S
C775   C784    1.403   .     A
C775   C777    1.394   .     A
C776   C778    1.394   .     A
C776   H823    1.083   .     S
C776   C785    1.403   .     A
C778   H680    1.083   1_655 S
C779   C781    1.393   .     A
C779   I828    2.115   .     S
C780   I827    2.115   .     S
C780   C783    1.392   .     A
C781   C786    1.410   .     A
C781   C784    1.418   .     A
C782   C805    1.415   .     S
C782   O834    1.301   .     A
C782   O692    1.272   1_655 S
C783   C787    1.410   .     A
C783   C785    1.418   .     A
C784   C172    1.391   1_556 S
C786   C801    1.415   .     A
C786   C157    1.412   1_556 S
C787   C793    1.415   .     A
C788   C804    1.504   .     S
C788   C789    1.407   .     A
C788   C1004   1.406   .     S
C789   C790    1.398   .     A
C789   H809    1.076   .     S
C790   H810    1.082   .     S
C790   C1001   1.393   .     S
C791   C792    1.394   .     A
C791   H811    1.082   .     S
C791   C1210   1.393   1_545 S
C792   H812    1.076   .     S
C792   C794    1.400   .     A
C793   C802    1.388   .     A
C793   H824    1.080   .     S
C794   H813    1.080   .     S
C794   C1208   1.406   1_545 S
C795   C805    1.504   .     S
C795   C800    1.407   .     A
C795   C1216   1.406   1_545 S
C796   C797    1.400   .     A
C796   H814    1.080   .     S
C796   C1005   1.406   .     S
C797   H815    1.076   .     S
C797   C798    1.394   .     A
C798   H816    1.082   .     S
C798   C1009   1.393   .     S
C799   C800    1.398   .     A
C799   H817    1.082   .     S
C799   C1218   1.393   1_545 S
C800   H819    1.076   .     S
C801   C803    1.388   .     A
C801   H825    1.080   .     S
C802   H807    1.083   .     S
C803   H818    1.083   .     S
C803   C155    1.391   1_556 S
C804   C945    1.373   .     S
C805   C1084   1.373   1_645 S
C806   O837    1.307   .     A
H808   N830    1.029   .     S
H821   C637    1.083   1_655 S
H826   N829    1.029   .     S
N829   N830    1.302   .     D
N829   Zn840   2.020   .     S
N830   Zn839   2.020   .     S
O831   Zn839   1.975   .     S
O831   C631    1.272   1_655 S
O832   Zn840   1.975   .     S
O833   Zn840   2.003   .     S
O834   Zn839   2.003   .     S
O835   Zn839   1.943   .     S
O835   C666    1.282   1_655 S
O836   Zn840   1.943   .     S
O837   Zn840   1.912   .     S
O838   Zn839   1.912   .     S
C841   C874    1.415   .     S
C841   O903    1.301   .     A
C841   O1041   1.272   1_455 S
C842   C844    1.451   .     S
C842   O908    1.307   .     A
C842   O976    1.282   .     S
C843   C849    1.377   .     A
C843   C847    1.403   .     A
C843   C876    1.451   .     S
C844   C848    1.403   .     A
C844   C850    1.377   .     A
C845   H892    1.083   .     S
C845   C854    1.403   .     A
C845   C847    1.394   .     A
C846   C848    1.394   .     A
C846   H893    1.083   .     S
C846   C855    1.403   .     A
C847   H1031   1.083   1_455 S
C848   H960    1.083   .     S
C849   C851    1.393   .     A
C849   I898    2.115   .     S
C850   I897    2.115   .     S
C850   C853    1.392   .     A
C851   C856    1.410   .     A
C851   C854    1.418   .     A
C852   C875    1.415   .     S
C852   O904    1.301   .     A
C852   O972    1.272   .     S
C853   C857    1.410   .     A
C853   C855    1.418   .     A
C854   C242    1.391   1_556 S
C856   C871    1.415   .     A
C856   C227    1.412   1_556 S
C857   C863    1.415   .     A
C858   C874    1.504   .     S
C858   C859    1.407   .     A
C858   C1074   1.406   .     S
C859   C860    1.398   .     A
C859   H879    1.076   .     S
C860   H880    1.082   .     S
C860   C1071   1.393   .     S
C861   C862    1.394   .     A
C861   H881    1.082   .     S
C862   H882    1.076   .     S
C862   C864    1.400   .     A
C863   C872    1.388   .     A
C863   H894    1.080   .     S
C864   H883    1.080   .     S
C865   C875    1.504   .     S
C865   C870    1.407   .     A
C866   C867    1.400   .     A
C866   H884    1.080   .     S
C866   C1075   1.406   .     S
C867   H885    1.076   .     S
C867   C868    1.394   .     A
C868   H886    1.082   .     S
C868   C1079   1.393   .     S
C869   C870    1.398   .     A
C869   H887    1.082   .     S
C870   H889    1.076   .     S
C871   C873    1.388   .     A
C871   H895    1.080   .     S
C872   H877    1.083   .     S
C873   H888    1.083   .     S
C873   C225    1.391   1_556 S
C874   C1225   1.373   1_455 S
C876   O907    1.307   .     A
C876   O1045   1.282   1_455 S
H878   N900    1.029   .     S
H890   C988    1.083   1_455 S
H891   C917    1.083   .     S
H896   N899    1.029   .     S
N899   N900    1.302   .     D
N899   Zn910   2.020   .     S
N900   Zn909   2.020   .     S
O901   Zn909   1.975   .     S
O901   C911    1.272   .     S
O902   Zn910   1.975   .     S
O902   C992    1.272   1_455 S
O903   Zn910   2.003   .     S
O904   Zn909   2.003   .     S
O905   Zn909   1.943   .     S
O905   C946    1.282   .     S
O906   Zn910   1.943   .     S
O906   C982    1.282   1_455 S
O907   Zn910   1.912   .     S
O908   Zn909   1.912   .     S
C911   C944    1.415   .     S
C911   O973    1.301   .     A
C912   C914    1.451   .     S
C912   O978    1.307   .     A
C912   O1046   1.282   .     S
C913   C919    1.377   .     A
C913   C917    1.403   .     A
C913   C946    1.451   .     S
C914   C918    1.403   .     A
C914   C920    1.377   .     A
C915   H962    1.083   .     S
C915   C924    1.403   .     A
C915   C917    1.394   .     A
C916   C918    1.394   .     A
C916   H963    1.083   .     S
C916   C925    1.403   .     A
C918   H1030   1.083   .     S
C919   C921    1.393   .     A
C919   I968    2.115   .     S
C920   I967    2.115   .     S
C920   C923    1.392   .     A
C921   C926    1.410   .     A
C921   C924    1.418   .     A
C922   C945    1.415   .     S
C922   O974    1.301   .     A
C922   O1042   1.272   .     S
C923   C927    1.410   .     A
C923   C925    1.418   .     A
C924   C312    1.391   1_556 S
C926   C941    1.415   .     A
C926   C297    1.412   1_556 S
C927   C933    1.415   .     A
C928   C944    1.504   .     S
C928   C929    1.407   .     A
C928   C1144   1.406   .     S
C929   C930    1.398   .     A
C929   H949    1.076   .     S
C930   H950    1.082   .     S
C930   C1141   1.393   .     S
C931   C932    1.394   .     A
C931   H951    1.082   .     S
C932   H952    1.076   .     S
C932   C934    1.400   .     A
C933   C942    1.388   .     A
C933   H964    1.080   .     S
C934   H953    1.080   .     S
C935   C945    1.504   .     S
C935   C940    1.407   .     A
C936   C937    1.400   .     A
C936   H954    1.080   .     S
C936   C1145   1.406   .     S
C937   H955    1.076   .     S
C937   C938    1.394   .     A
C938   H956    1.082   .     S
C938   C1149   1.393   .     S
C939   C940    1.398   .     A
C939   H957    1.082   .     S
C940   H959    1.076   .     S
C941   C943    1.388   .     A
C941   H965    1.080   .     S
C942   H947    1.083   .     S
C943   H958    1.083   .     S
C943   C295    1.391   1_556 S
C944   C1085   1.373   .     S
C946   O977    1.307   .     A
H948   N970    1.029   .     S
H961   C987    1.083   .     S
H966   N969    1.029   .     S
N969   N970    1.302   .     D
N969   Zn980   2.020   .     S
N970   Zn979   2.020   .     S
O971   Zn979   1.975   .     S
O971   C981    1.272   .     S
O972   Zn980   1.975   .     S
O973   Zn980   2.003   .     S
O974   Zn979   2.003   .     S
O975   Zn979   1.943   .     S
O975   C1016   1.282   .     S
O976   Zn980   1.943   .     S
O977   Zn980   1.912   .     S
O978   Zn979   1.912   .     S
C981   C1014   1.415   .     S
C981   O1043   1.301   .     A
C982   C984    1.451   .     S
C982   O1048   1.307   .     A
C982   O906    1.282   1_655 S
C983   C989    1.377   .     A
C983   C987    1.403   .     A
C983   C1016   1.451   .     S
C984   C988    1.403   .     A
C984   C990    1.377   .     A
C985   H1032   1.083   .     S
C985   C994    1.403   .     A
C985   C987    1.394   .     A
C986   C988    1.394   .     A
C986   H1033   1.083   .     S
C986   C995    1.403   .     A
C988   H890    1.083   1_655 S
C989   C991    1.393   .     A
C989   I1038   2.115   .     S
C990   I1037   2.115   .     S
C990   C993    1.392   .     A
C991   C996    1.410   .     A
C991   C994    1.418   .     A
C992   C1015   1.415   .     S
C992   O1044   1.301   .     A
C992   O902    1.272   1_655 S
C993   C997    1.410   .     A
C993   C995    1.418   .     A
C994   C382    1.391   1_556 S
C996   C1011   1.415   .     A
C996   C367    1.412   1_556 S
C997   C1003   1.415   .     A
C998   C1014   1.504   .     S
C998   C999    1.407   .     A
C998   C1214   1.406   .     S
C999   C1000   1.398   .     A
C999   H1019   1.076   .     S
C1000  H1020   1.082   .     S
C1000  C1211   1.393   .     S
C1001  C1002   1.394   .     A
C1001  H1021   1.082   .     S
C1002  H1022   1.076   .     S
C1002  C1004   1.400   .     A
C1003  C1012   1.388   .     A
C1003  H1034   1.080   .     S
C1004  H1023   1.080   .     S
C1005  C1015   1.504   .     S
C1005  C1010   1.407   .     A
C1006  C1007   1.400   .     A
C1006  H1024   1.080   .     S
C1006  C1215   1.406   .     S
C1007  H1025   1.076   .     S
C1007  C1008   1.394   .     A
C1008  H1026   1.082   .     S
C1008  C1219   1.393   .     S
C1009  C1010   1.398   .     A
C1009  H1027   1.082   .     S
C1010  H1029   1.076   .     S
C1011  C1013   1.388   .     A
C1011  H1035   1.080   .     S
C1012  H1017   1.083   .     S
C1013  H1028   1.083   .     S
C1013  C365    1.391   1_556 S
C1014  C1155   1.373   .     S
C1015  C664    1.373   1_655 S
C1016  O1047   1.307   .     A
H1018  N1040   1.029   .     S
H1031  C847    1.083   1_655 S
H1036  N1039   1.029   .     S
N1039  N1040   1.302   .     D
N1039  Zn1050  2.020   .     S
N1040  Zn1049  2.020   .     S
O1041  Zn1049  1.975   .     S
O1041  C841    1.272   1_655 S
O1042  Zn1050  1.975   .     S
O1043  Zn1050  2.003   .     S
O1044  Zn1049  2.003   .     S
O1045  Zn1049  1.943   .     S
O1045  C876    1.282   1_655 S
O1046  Zn1050  1.943   .     S
O1047  Zn1050  1.912   .     S
O1048  Zn1049  1.912   .     S
C1051  C1084   1.415   .     S
C1051  O1113   1.301   .     A
C1051  O1251   1.272   1_455 S
C1052  C1054   1.451   .     S
C1052  O1118   1.307   .     A
C1052  O1186   1.282   .     S
C1053  C1059   1.377   .     A
C1053  C1057   1.403   .     A
C1053  C1086   1.451   .     S
C1054  C1058   1.403   .     A
C1054  C1060   1.377   .     A
C1055  H1102   1.083   .     S
C1055  C1064   1.403   .     A
C1055  C1057   1.394   .     A
C1056  C1058   1.394   .     A
C1056  H1103   1.083   .     S
C1056  C1065   1.403   .     A
C1057  H1241   1.083   1_455 S
C1058  H1170   1.083   .     S
C1059  C1061   1.393   .     A
C1059  I1108   2.115   .     S
C1060  I1107   2.115   .     S
C1060  C1063   1.392   .     A
C1061  C1066   1.410   .     A
C1061  C1064   1.418   .     A
C1062  C1085   1.415   .     S
C1062  O1114   1.301   .     A
C1062  O1182   1.272   .     S
C1063  C1067   1.410   .     A
C1063  C1065   1.418   .     A
C1064  C452    1.391   1_556 S
C1066  C1081   1.415   .     A
C1066  C437    1.412   1_556 S
C1067  C1073   1.415   .     A
C1068  C1084   1.504   .     S
C1068  C1069   1.407   .     A
C1068  C654    1.406   1_565 S
C1069  C1070   1.398   .     A
C1069  H1089   1.076   .     S
C1070  H1090   1.082   .     S
C1070  C651    1.393   1_565 S
C1071  C1072   1.394   .     A
C1071  H1091   1.082   .     S
C1072  H1092   1.076   .     S
C1072  C1074   1.400   .     A
C1073  C1082   1.388   .     A
C1073  H1104   1.080   .     S
C1074  H1093   1.080   .     S
C1075  C1085   1.504   .     S
C1075  C1080   1.407   .     A
C1076  C1077   1.400   .     A
C1076  H1094   1.080   .     S
C1076  C655    1.406   1_565 S
C1077  H1095   1.076   .     S
C1077  C1078   1.394   .     A
C1078  H1096   1.082   .     S
C1078  C659    1.393   1_565 S
C1079  C1080   1.398   .     A
C1079  H1097   1.082   .     S
C1080  H1099   1.076   .     S
C1081  C1083   1.388   .     A
C1081  H1105   1.080   .     S
C1082  H1087   1.083   .     S
C1083  H1098   1.083   .     S
C1083  C435    1.391   1_556 S
C1084  C805    1.373   1_465 S
C1086  O1117   1.307   .     A
C1086  O1255   1.282   1_455 S
H1088  N1110   1.029   .     S
H1100  C1198   1.083   1_455 S
H1101  C1127   1.083   .     S
H1106  N1109   1.029   .     S
N1109  N1110   1.302   .     D
N1109  Zn1120  2.020   .     S
N1110  Zn1119  2.020   .     S
O1111  Zn1119  1.975   .     S
O1111  C1121   1.272   .     S
O1112  Zn1120  1.975   .     S
O1112  C1202   1.272   1_455 S
O1113  Zn1120  2.003   .     S
O1114  Zn1119  2.003   .     S
O1115  Zn1119  1.943   .     S
O1115  C1156   1.282   .     S
O1116  Zn1120  1.943   .     S
O1116  C1192   1.282   1_455 S
O1117  Zn1120  1.912   .     S
O1118  Zn1119  1.912   .     S
C1121  C1154   1.415   .     S
C1121  O1183   1.301   .     A
C1122  C1124   1.451   .     S
C1122  O1188   1.307   .     A
C1122  O1256   1.282   .     S
C1123  C1129   1.377   .     A
C1123  C1127   1.403   .     A
C1123  C1156   1.451   .     S
C1124  C1128   1.403   .     A
C1124  C1130   1.377   .     A
C1125  H1172   1.083   .     S
C1125  C1134   1.403   .     A
C1125  C1127   1.394   .     A
C1126  C1128   1.394   .     A
C1126  H1173   1.083   .     S
C1126  C1135   1.403   .     A
C1128  H1240   1.083   .     S
C1129  C1131   1.393   .     A
C1129  I1178   2.115   .     S
C1130  I1177   2.115   .     S
C1130  C1133   1.392   .     A
C1131  C1136   1.410   .     A
C1131  C1134   1.418   .     A
C1132  C1155   1.415   .     S
C1132  O1184   1.301   .     A
C1132  O1252   1.272   .     S
C1133  C1137   1.410   .     A
C1133  C1135   1.418   .     A
C1134  C522    1.391   1_556 S
C1136  C1151   1.415   .     A
C1136  C507    1.412   1_556 S
C1137  C1143   1.415   .     A
C1138  C1154   1.504   .     S
C1138  C1139   1.407   .     A
C1138  C724    1.406   1_565 S
C1139  C1140   1.398   .     A
C1139  H1159   1.076   .     S
C1140  H1160   1.082   .     S
C1140  C721    1.393   1_565 S
C1141  C1142   1.394   .     A
C1141  H1161   1.082   .     S
C1142  H1162   1.076   .     S
C1142  C1144   1.400   .     A
C1143  C1152   1.388   .     A
C1143  H1174   1.080   .     S
C1144  H1163   1.080   .     S
C1145  C1155   1.504   .     S
C1145  C1150   1.407   .     A
C1146  C1147   1.400   .     A
C1146  H1164   1.080   .     S
C1146  C725    1.406   1_565 S
C1147  H1165   1.076   .     S
C1147  C1148   1.394   .     A
C1148  H1166   1.082   .     S
C1148  C729    1.393   1_565 S
C1149  C1150   1.398   .     A
C1149  H1167   1.082   .     S
C1150  H1169   1.076   .     S
C1151  C1153   1.388   .     A
C1151  H1175   1.080   .     S
C1152  H1157   1.083   .     S
C1153  H1168   1.083   .     S
C1153  C505    1.391   1_556 S
C1154  C665    1.373   1_565 S
C1156  O1187   1.307   .     A
H1158  N1180   1.029   .     S
H1171  C1197   1.083   .     S
H1176  N1179   1.029   .     S
N1179  N1180   1.302   .     D
N1179  Zn1190  2.020   .     S
N1180  Zn1189  2.020   .     S
O1181  Zn1189  1.975   .     S
O1181  C1191   1.272   .     S
O1182  Zn1190  1.975   .     S
O1183  Zn1190  2.003   .     S
O1184  Zn1189  2.003   .     S
O1185  Zn1189  1.943   .     S
O1185  C1226   1.282   .     S
O1186  Zn1190  1.943   .     S
O1187  Zn1190  1.912   .     S
O1188  Zn1189  1.912   .     S
C1191  C1224   1.415   .     S
C1191  O1253   1.301   .     A
C1192  C1194   1.451   .     S
C1192  O1258   1.307   .     A
C1192  O1116   1.282   1_655 S
C1193  C1199   1.377   .     A
C1193  C1197   1.403   .     A
C1193  C1226   1.451   .     S
C1194  C1198   1.403   .     A
C1194  C1200   1.377   .     A
C1195  H1242   1.083   .     S
C1195  C1204   1.403   .     A
C1195  C1197   1.394   .     A
C1196  C1198   1.394   .     A
C1196  H1243   1.083   .     S
C1196  C1205   1.403   .     A
C1198  H1100   1.083   1_655 S
C1199  C1201   1.393   .     A
C1199  I1248   2.115   .     S
C1200  I1247   2.115   .     S
C1200  C1203   1.392   .     A
C1201  C1206   1.410   .     A
C1201  C1204   1.418   .     A
C1202  C1225   1.415   .     S
C1202  O1254   1.301   .     A
C1202  O1112   1.272   1_655 S
C1203  C1207   1.410   .     A
C1203  C1205   1.418   .     A
C1204  C592    1.391   1_556 S
C1206  C1221   1.415   .     A
C1206  C577    1.412   1_556 S
C1207  C1213   1.415   .     A
C1208  C1224   1.504   .     S
C1208  C1209   1.407   .     A
C1208  C794    1.406   1_565 S
C1209  C1210   1.398   .     A
C1209  H1229   1.076   .     S
C1210  H1230   1.082   .     S
C1210  C791    1.393   1_565 S
C1211  C1212   1.394   .     A
C1211  H1231   1.082   .     S
C1212  H1232   1.076   .     S
C1212  C1214   1.400   .     A
C1213  C1222   1.388   .     A
C1213  H1244   1.080   .     S
C1214  H1233   1.080   .     S
C1215  C1225   1.504   .     S
C1215  C1220   1.407   .     A
C1216  C1217   1.400   .     A
C1216  H1234   1.080   .     S
C1216  C795    1.406   1_565 S
C1217  H1235   1.076   .     S
C1217  C1218   1.394   .     A
C1218  H1236   1.082   .     S
C1218  C799    1.393   1_565 S
C1219  C1220   1.398   .     A
C1219  H1237   1.082   .     S
C1220  H1239   1.076   .     S
C1221  C1223   1.388   .     A
C1221  H1245   1.080   .     S
C1222  H1227   1.083   .     S
C1223  H1238   1.083   .     S
C1223  C575    1.391   1_556 S
C1224  C735    1.373   1_565 S
C1225  C874    1.373   1_655 S
C1226  O1257   1.307   .     A
H1228  N1250   1.029   .     S
H1241  C1057   1.083   1_655 S
H1246  N1249   1.029   .     S
N1249  N1250   1.302   .     D
N1249  Zn1260  2.020   .     S
N1250  Zn1259  2.020   .     S
O1251  Zn1259  1.975   .     S
O1251  C1051   1.272   1_655 S
O1252  Zn1260  1.975   .     S
O1253  Zn1260  2.003   .     S
O1254  Zn1259  2.003   .     S
O1255  Zn1259  1.943   .     S
O1255  C1086   1.282   1_655 S
O1256  Zn1260  1.943   .     S
O1257  Zn1260  1.912   .     S
O1258  Zn1259  1.912   .     S
