data_str_m2_o1_o18_pcu_sym.193
_audit_creation_date              2020-01-03
_audit_creation_method            'Materials Studio'
_symmetry_space_group_name_H-M    'P1'
_symmetry_Int_Tables_number       1
_symmetry_cell_setting            triclinic
loop_
_symmetry_equiv_pos_as_xyz
  x,y,z
_cell_length_a                    28.5520
_cell_length_b                    32.8548
_cell_length_c                    30.6089
_cell_angle_alpha                 89.9817
_cell_angle_beta                  73.9842
_cell_angle_gamma                 90.2744
loop_
_atom_site_label
_atom_site_type_symbol
_atom_site_fract_x
_atom_site_fract_y
_atom_site_fract_z
_atom_site_U_iso_or_equiv
_atom_site_adp_type
_atom_site_occupancy
C1     C     0.33322   0.08728   0.25009   0.00000  Uiso   1.00
C2     C     0.00110   0.24587   0.24740   0.00000  Uiso   1.00
C3     C     0.18254   0.21952   0.04015   0.00000  Uiso   1.00
C4     C     0.13716   0.17790   0.44699   0.00000  Uiso   1.00
C5     C     0.23099   0.22802   0.01634   0.00000  Uiso   1.00
C6     C     0.08927   0.16763   0.46995   0.00000  Uiso   1.00
C7     C     0.29665   0.02071   0.23567   0.00000  Uiso   1.00
C8     C     0.04310   0.31214   0.25159   0.00000  Uiso   1.00
C9     C     0.29883   0.31165   0.23202   0.00000  Uiso   1.00
C10    C     0.04067   0.02110   0.25611   0.00000  Uiso   1.00
C11    C     0.00360   0.29044   0.24297   0.00000  Uiso   1.00
C12    C     0.00060   0.04251   0.24836   0.00000  Uiso   1.00
C13    C     0.18069   0.15093   0.28585   0.00000  Uiso   1.00
C14    C     0.15283   0.18149   0.21369   0.00000  Uiso   1.00
C15    C     0.13107   0.15145   0.28612   0.00000  Uiso   1.00
C16    C     0.20229   0.18175   0.21385   0.00000  Uiso   1.00
C17    C     0.30598   0.16916   0.33631   0.00000  Uiso   1.00
C18    C     0.02735   0.16613   0.16341   0.00000  Uiso   1.00
C19    C     0.29095   0.18043   0.38486   0.00000  Uiso   1.00
C20    C     0.04190   0.16636   0.11308   0.00000  Uiso   1.00
C21    C     0.30009   0.22190   0.44837   0.00000  Uiso   1.00
C22    C     0.02511   0.15557   0.03992   0.00000  Uiso   1.00
C23    C     0.31928   0.20681   0.40368   0.00000  Uiso   1.00
C24    C     0.00905   0.15576   0.08784   0.00000  Uiso   1.00
C25    C     0.24370   0.17067   0.40998   0.00000  Uiso   1.00
C26    C     0.08969   0.17761   0.09016   0.00000  Uiso   1.00
C27    C     0.22176   0.19012   0.45132   0.00000  Uiso   1.00
C28    C     0.10514   0.18140   0.04260   0.00000  Uiso   1.00
C29    C     0.25132   0.21303   0.47239   0.00000  Uiso   1.00
C30    C     0.07311   0.16799   0.01742   0.00000  Uiso   1.00
C31    C     0.17094   0.18698   0.47217   0.00000  Uiso   1.00
C32    C     0.15281   0.19562   0.01925   0.00000  Uiso   1.00
Cu33   Cu    0.04689   0.16667   0.25000   0.00000  Uiso   1.00
Cu34   Cu    0.28645   0.16666   0.25000   0.00000  Uiso   1.00
H35    H     0.25252   0.24691   0.03253   0.00000  Uiso   1.00
H36    H     0.06448   0.15972   0.45011   0.00000  Uiso   1.00
H37    H     0.11515   0.18211   0.11001   0.00000  Uiso   1.00
H38    H     0.22359   0.14863   0.39598   0.00000  Uiso   1.00
H39    H     0.19063   0.13776   0.31437   0.00000  Uiso   1.00
H40    H     0.14322   0.19360   0.18452   0.00000  Uiso   1.00
H41    H     0.10388   0.13882   0.31485   0.00000  Uiso   1.00
H42    H     0.22950   0.19391   0.18490   0.00000  Uiso   1.00
N43    N     0.11736   0.16668   0.24999   0.00000  Uiso   1.00
N44    N     0.21597   0.16666   0.25001   0.00000  Uiso   1.00
O45    O     0.03958   0.10655   0.25000   0.00000  Uiso   1.00
O46    O     0.29375   0.22678   0.25000   0.00000  Uiso   1.00
O47    O     0.29372   0.10654   0.25001   0.00000  Uiso   1.00
O48    O     0.03961   0.22679   0.25000   0.00000  Uiso   1.00
O49    O     0.01852   0.16668   0.31492   0.00000  Uiso   1.00
O50    O     0.31481   0.16666   0.18509   0.00000  Uiso   1.00
O51    O     0.27267   0.16667   0.31492   0.00000  Uiso   1.00
O52    O     0.06067   0.16667   0.18508   0.00000  Uiso   1.00
N53    N     0.29329   0.14401   0.11083   0.00000  Uiso   1.00
H54    H     0.28694   0.11455   0.10087   0.00000  Uiso   1.00
H55    H     0.26936   0.16398   0.10144   0.00000  Uiso   1.00
N56    N     0.03307   0.21955   0.37662   0.00000  Uiso   1.00
H57    H     0.03338   0.25121   0.37323   0.00000  Uiso   1.00
H58    H     0.05848   0.21129   0.39363   0.00000  Uiso   1.00
N59    N     0.32887   0.24795   0.46854   0.00000  Uiso   1.00
H60    H     0.02709   0.23256   0.46960   0.00000  Uiso   1.00
H61    H     0.00549   0.27392   0.44834   0.00000  Uiso   1.00
N62    N     0.32644   0.14215   0.01386   0.00000  Uiso   1.00
H63    H     0.31684   0.11180   0.02204   0.00000  Uiso   1.00
H64    H     0.29491   0.15977   0.02257   0.00000  Uiso   1.00
N65    N     0.16286   0.23982   0.08234   0.00000  Uiso   1.00
H66    H     0.18785   0.24580   0.10030   0.00000  Uiso   1.00
C67    C     0.13341   0.27493   0.07952   0.00000  Uiso   1.00
H68    H     0.11782   0.28774   0.11398   0.00000  Uiso   1.00
H69    H     0.10278   0.26629   0.06552   0.00000  Uiso   1.00
H70    H     0.15609   0.29871   0.05759   0.00000  Uiso   1.00
N71    N     0.14926   0.18306   0.39884   0.00000  Uiso   1.00
H72    H     0.12666   0.16776   0.38328   0.00000  Uiso   1.00
C73    C     0.15915   0.22465   0.38290   0.00000  Uiso   1.00
H74    H     0.16583   0.22565   0.34542   0.00000  Uiso   1.00
H75    H     0.19203   0.23684   0.39102   0.00000  Uiso   1.00
H76    H     0.12781   0.24459   0.39884   0.00000  Uiso   1.00
N77    N     0.25586   0.04050   0.22691   0.00000  Uiso   1.00
H78    H     0.23238   0.05560   0.25356   0.00000  Uiso   1.00
C79    C     0.26171   0.05665   0.18169   0.00000  Uiso   1.00
H80    H     0.23429   0.04233   0.16691   0.00000  Uiso   1.00
H81    H     0.29872   0.05063   0.15893   0.00000  Uiso   1.00
H82    H     0.25548   0.08999   0.18350   0.00000  Uiso   1.00
N83    N     0.08480   0.29144   0.25767   0.00000  Uiso   1.00
H84    H     0.09903   0.30302   0.28263   0.00000  Uiso   1.00
C85    C     0.12185   0.28201   0.21596   0.00000  Uiso   1.00
H86    H     0.13767   0.30999   0.19755   0.00000  Uiso   1.00
H87    H     0.10643   0.26334   0.19304   0.00000  Uiso   1.00
H88    H     0.15165   0.26480   0.22416   0.00000  Uiso   1.00
N89    N     0.26262   0.29032   0.21668   0.00000  Uiso   1.00
H90    H     0.22814   0.30259   0.22668   0.00000  Uiso   1.00
C91    C     0.27758   0.27960   0.16898   0.00000  Uiso   1.00
H92    H     0.28648   0.30739   0.14758   0.00000  Uiso   1.00
H93    H     0.24748   0.26323   0.15993   0.00000  Uiso   1.00
H94    H     0.30993   0.25943   0.16157   0.00000  Uiso   1.00
N95    N     0.07832   0.04110   0.27053   0.00000  Uiso   1.00
H96    H     0.06797   0.06055   0.29791   0.00000  Uiso   1.00
C97    C     0.12250   0.05150   0.23559   0.00000  Uiso   1.00
H98    H     0.11911   0.04499   0.20095   0.00000  Uiso   1.00
H99    H     0.15331   0.03403   0.24146   0.00000  Uiso   1.00
H100   H     0.13084   0.08427   0.23697   0.00000  Uiso   1.00
C101   C     0.66656   0.08728   0.25009   0.00000  Uiso   1.00
C102   C     0.33443   0.24587   0.24740   0.00000  Uiso   1.00
C103   C     0.51588   0.21952   0.04015   0.00000  Uiso   1.00
C104   C     0.47049   0.17790   0.44699   0.00000  Uiso   1.00
C105   C     0.56432   0.22802   0.01634   0.00000  Uiso   1.00
C106   C     0.42261   0.16763   0.46995   0.00000  Uiso   1.00
C107   C     0.62998   0.02071   0.23567   0.00000  Uiso   1.00
C108   C     0.37643   0.31214   0.25159   0.00000  Uiso   1.00
C109   C     0.63216   0.31165   0.23202   0.00000  Uiso   1.00
C110   C     0.37401   0.02110   0.25611   0.00000  Uiso   1.00
C111   C     0.33694   0.29044   0.24297   0.00000  Uiso   1.00
C112   C     0.33394   0.04251   0.24836   0.00000  Uiso   1.00
C113   C     0.51403   0.15093   0.28585   0.00000  Uiso   1.00
C114   C     0.48616   0.18149   0.21369   0.00000  Uiso   1.00
C115   C     0.46440   0.15145   0.28612   0.00000  Uiso   1.00
C116   C     0.53562   0.18175   0.21385   0.00000  Uiso   1.00
C117   C     0.63932   0.16916   0.33631   0.00000  Uiso   1.00
C118   C     0.36069   0.16613   0.16341   0.00000  Uiso   1.00
C119   C     0.62428   0.18043   0.38486   0.00000  Uiso   1.00
C120   C     0.37524   0.16636   0.11308   0.00000  Uiso   1.00
C121   C     0.63342   0.22190   0.44837   0.00000  Uiso   1.00
C122   C     0.35845   0.15557   0.03992   0.00000  Uiso   1.00
C123   C     0.65261   0.20681   0.40368   0.00000  Uiso   1.00
C124   C     0.34238   0.15576   0.08784   0.00000  Uiso   1.00
C125   C     0.57704   0.17067   0.40998   0.00000  Uiso   1.00
C126   C     0.42302   0.17761   0.09016   0.00000  Uiso   1.00
C127   C     0.55509   0.19012   0.45132   0.00000  Uiso   1.00
C128   C     0.43847   0.18140   0.04260   0.00000  Uiso   1.00
C129   C     0.58465   0.21303   0.47239   0.00000  Uiso   1.00
C130   C     0.40644   0.16799   0.01742   0.00000  Uiso   1.00
C131   C     0.50427   0.18698   0.47217   0.00000  Uiso   1.00
C132   C     0.48614   0.19562   0.01925   0.00000  Uiso   1.00
Cu133  Cu    0.38022   0.16667   0.25000   0.00000  Uiso   1.00
Cu134  Cu    0.61978   0.16666   0.25000   0.00000  Uiso   1.00
H135   H     0.58586   0.24691   0.03253   0.00000  Uiso   1.00
H136   H     0.39782   0.15972   0.45011   0.00000  Uiso   1.00
H137   H     0.44848   0.18211   0.11001   0.00000  Uiso   1.00
H138   H     0.55692   0.14863   0.39598   0.00000  Uiso   1.00
H139   H     0.52396   0.13776   0.31437   0.00000  Uiso   1.00
H140   H     0.47656   0.19360   0.18452   0.00000  Uiso   1.00
H141   H     0.43721   0.13882   0.31485   0.00000  Uiso   1.00
H142   H     0.56284   0.19391   0.18490   0.00000  Uiso   1.00
N143   N     0.45069   0.16668   0.24999   0.00000  Uiso   1.00
N144   N     0.54931   0.16666   0.25001   0.00000  Uiso   1.00
O145   O     0.37291   0.10655   0.25000   0.00000  Uiso   1.00
O146   O     0.62709   0.22678   0.25000   0.00000  Uiso   1.00
O147   O     0.62706   0.10654   0.25001   0.00000  Uiso   1.00
O148   O     0.37294   0.22679   0.25000   0.00000  Uiso   1.00
O149   O     0.35186   0.16668   0.31492   0.00000  Uiso   1.00
O150   O     0.64814   0.16666   0.18509   0.00000  Uiso   1.00
O151   O     0.60600   0.16667   0.31492   0.00000  Uiso   1.00
O152   O     0.39400   0.16667   0.18508   0.00000  Uiso   1.00
N153   N     0.62662   0.14401   0.11083   0.00000  Uiso   1.00
H154   H     0.62027   0.11455   0.10087   0.00000  Uiso   1.00
H155   H     0.60269   0.16398   0.10144   0.00000  Uiso   1.00
N156   N     0.36640   0.21955   0.37662   0.00000  Uiso   1.00
H157   H     0.36671   0.25121   0.37323   0.00000  Uiso   1.00
H158   H     0.39181   0.21129   0.39363   0.00000  Uiso   1.00
N159   N     0.66220   0.24795   0.46854   0.00000  Uiso   1.00
H160   H     0.36043   0.23256   0.46960   0.00000  Uiso   1.00
H161   H     0.33883   0.27392   0.44834   0.00000  Uiso   1.00
N162   N     0.65978   0.14215   0.01386   0.00000  Uiso   1.00
H163   H     0.65017   0.11180   0.02204   0.00000  Uiso   1.00
H164   H     0.62824   0.15977   0.02257   0.00000  Uiso   1.00
N165   N     0.49620   0.23982   0.08234   0.00000  Uiso   1.00
H166   H     0.52118   0.24580   0.10030   0.00000  Uiso   1.00
C167   C     0.46674   0.27493   0.07952   0.00000  Uiso   1.00
H168   H     0.45115   0.28774   0.11398   0.00000  Uiso   1.00
H169   H     0.43611   0.26629   0.06552   0.00000  Uiso   1.00
H170   H     0.48943   0.29871   0.05759   0.00000  Uiso   1.00
N171   N     0.48260   0.18306   0.39884   0.00000  Uiso   1.00
H172   H     0.46000   0.16776   0.38328   0.00000  Uiso   1.00
C173   C     0.49248   0.22465   0.38290   0.00000  Uiso   1.00
H174   H     0.49916   0.22565   0.34542   0.00000  Uiso   1.00
H175   H     0.52536   0.23684   0.39102   0.00000  Uiso   1.00
H176   H     0.46114   0.24459   0.39884   0.00000  Uiso   1.00
N177   N     0.58920   0.04050   0.22691   0.00000  Uiso   1.00
H178   H     0.56571   0.05560   0.25356   0.00000  Uiso   1.00
C179   C     0.59504   0.05665   0.18169   0.00000  Uiso   1.00
H180   H     0.56762   0.04233   0.16691   0.00000  Uiso   1.00
H181   H     0.63206   0.05063   0.15893   0.00000  Uiso   1.00
H182   H     0.58882   0.08999   0.18350   0.00000  Uiso   1.00
N183   N     0.41813   0.29144   0.25767   0.00000  Uiso   1.00
H184   H     0.43236   0.30302   0.28263   0.00000  Uiso   1.00
C185   C     0.45518   0.28201   0.21596   0.00000  Uiso   1.00
H186   H     0.47100   0.30999   0.19755   0.00000  Uiso   1.00
H187   H     0.43976   0.26334   0.19304   0.00000  Uiso   1.00
H188   H     0.48498   0.26480   0.22416   0.00000  Uiso   1.00
N189   N     0.59595   0.29032   0.21668   0.00000  Uiso   1.00
H190   H     0.56147   0.30259   0.22668   0.00000  Uiso   1.00
C191   C     0.61091   0.27960   0.16898   0.00000  Uiso   1.00
H192   H     0.61981   0.30739   0.14758   0.00000  Uiso   1.00
H193   H     0.58082   0.26323   0.15993   0.00000  Uiso   1.00
H194   H     0.64327   0.25943   0.16157   0.00000  Uiso   1.00
N195   N     0.41165   0.04110   0.27053   0.00000  Uiso   1.00
H196   H     0.40130   0.06055   0.29791   0.00000  Uiso   1.00
C197   C     0.45583   0.05150   0.23559   0.00000  Uiso   1.00
H198   H     0.45245   0.04499   0.20095   0.00000  Uiso   1.00
H199   H     0.48664   0.03403   0.24146   0.00000  Uiso   1.00
H200   H     0.46417   0.08427   0.23697   0.00000  Uiso   1.00
C201   C     0.99989   0.08728   0.25009   0.00000  Uiso   1.00
C202   C     0.66777   0.24587   0.24740   0.00000  Uiso   1.00
C203   C     0.84921   0.21952   0.04015   0.00000  Uiso   1.00
C204   C     0.80383   0.17790   0.44699   0.00000  Uiso   1.00
C205   C     0.89765   0.22802   0.01634   0.00000  Uiso   1.00
C206   C     0.75594   0.16763   0.46995   0.00000  Uiso   1.00
C207   C     0.96332   0.02071   0.23567   0.00000  Uiso   1.00
C208   C     0.70977   0.31214   0.25159   0.00000  Uiso   1.00
C209   C     0.96549   0.31165   0.23202   0.00000  Uiso   1.00
C210   C     0.70734   0.02110   0.25611   0.00000  Uiso   1.00
C211   C     0.67027   0.29044   0.24297   0.00000  Uiso   1.00
C212   C     0.66727   0.04251   0.24836   0.00000  Uiso   1.00
C213   C     0.84736   0.15093   0.28585   0.00000  Uiso   1.00
C214   C     0.81949   0.18149   0.21369   0.00000  Uiso   1.00
C215   C     0.79773   0.15145   0.28612   0.00000  Uiso   1.00
C216   C     0.86896   0.18175   0.21385   0.00000  Uiso   1.00
C217   C     0.97265   0.16916   0.33631   0.00000  Uiso   1.00
C218   C     0.69402   0.16613   0.16341   0.00000  Uiso   1.00
C219   C     0.95762   0.18043   0.38486   0.00000  Uiso   1.00
C220   C     0.70857   0.16636   0.11308   0.00000  Uiso   1.00
C221   C     0.96676   0.22190   0.44837   0.00000  Uiso   1.00
C222   C     0.69178   0.15557   0.03992   0.00000  Uiso   1.00
C223   C     0.98594   0.20681   0.40368   0.00000  Uiso   1.00
C224   C     0.67572   0.15576   0.08784   0.00000  Uiso   1.00
C225   C     0.91037   0.17067   0.40998   0.00000  Uiso   1.00
C226   C     0.75636   0.17761   0.09016   0.00000  Uiso   1.00
C227   C     0.88843   0.19012   0.45132   0.00000  Uiso   1.00
C228   C     0.77180   0.18140   0.04260   0.00000  Uiso   1.00
C229   C     0.91798   0.21303   0.47239   0.00000  Uiso   1.00
C230   C     0.73977   0.16799   0.01742   0.00000  Uiso   1.00
C231   C     0.83760   0.18698   0.47217   0.00000  Uiso   1.00
C232   C     0.81948   0.19562   0.01925   0.00000  Uiso   1.00
Cu233  Cu    0.71355   0.16667   0.25000   0.00000  Uiso   1.00
Cu234  Cu    0.95311   0.16666   0.25000   0.00000  Uiso   1.00
H235   H     0.91919   0.24691   0.03253   0.00000  Uiso   1.00
H236   H     0.73115   0.15972   0.45011   0.00000  Uiso   1.00
H237   H     0.78181   0.18211   0.11001   0.00000  Uiso   1.00
H238   H     0.89026   0.14863   0.39598   0.00000  Uiso   1.00
H239   H     0.85730   0.13776   0.31437   0.00000  Uiso   1.00
H240   H     0.80989   0.19360   0.18452   0.00000  Uiso   1.00
H241   H     0.77055   0.13882   0.31485   0.00000  Uiso   1.00
H242   H     0.89617   0.19391   0.18490   0.00000  Uiso   1.00
N243   N     0.78403   0.16668   0.24999   0.00000  Uiso   1.00
N244   N     0.88264   0.16666   0.25001   0.00000  Uiso   1.00
O245   O     0.70625   0.10655   0.25000   0.00000  Uiso   1.00
O246   O     0.96042   0.22678   0.25000   0.00000  Uiso   1.00
O247   O     0.96039   0.10654   0.25001   0.00000  Uiso   1.00
O248   O     0.70628   0.22679   0.25000   0.00000  Uiso   1.00
O249   O     0.68519   0.16668   0.31492   0.00000  Uiso   1.00
O250   O     0.98148   0.16666   0.18509   0.00000  Uiso   1.00
O251   O     0.93933   0.16667   0.31492   0.00000  Uiso   1.00
O252   O     0.72733   0.16667   0.18508   0.00000  Uiso   1.00
N253   N     0.95996   0.14401   0.11083   0.00000  Uiso   1.00
H254   H     0.95360   0.11455   0.10087   0.00000  Uiso   1.00
H255   H     0.93602   0.16398   0.10144   0.00000  Uiso   1.00
N256   N     0.69973   0.21955   0.37662   0.00000  Uiso   1.00
H257   H     0.70004   0.25121   0.37323   0.00000  Uiso   1.00
H258   H     0.72514   0.21129   0.39363   0.00000  Uiso   1.00
N259   N     0.99554   0.24795   0.46854   0.00000  Uiso   1.00
H260   H     0.69376   0.23256   0.46960   0.00000  Uiso   1.00
H261   H     0.67216   0.27392   0.44834   0.00000  Uiso   1.00
N262   N     0.99311   0.14215   0.01386   0.00000  Uiso   1.00
H263   H     0.98351   0.11180   0.02204   0.00000  Uiso   1.00
H264   H     0.96158   0.15977   0.02257   0.00000  Uiso   1.00
N265   N     0.82953   0.23982   0.08234   0.00000  Uiso   1.00
H266   H     0.85452   0.24580   0.10030   0.00000  Uiso   1.00
C267   C     0.80008   0.27493   0.07952   0.00000  Uiso   1.00
H268   H     0.78449   0.28774   0.11398   0.00000  Uiso   1.00
H269   H     0.76945   0.26629   0.06552   0.00000  Uiso   1.00
H270   H     0.82276   0.29871   0.05759   0.00000  Uiso   1.00
N271   N     0.81593   0.18306   0.39884   0.00000  Uiso   1.00
H272   H     0.79333   0.16776   0.38328   0.00000  Uiso   1.00
C273   C     0.82582   0.22465   0.38290   0.00000  Uiso   1.00
H274   H     0.83250   0.22565   0.34542   0.00000  Uiso   1.00
H275   H     0.85870   0.23684   0.39102   0.00000  Uiso   1.00
H276   H     0.79448   0.24459   0.39884   0.00000  Uiso   1.00
N277   N     0.92253   0.04050   0.22691   0.00000  Uiso   1.00
H278   H     0.89904   0.05560   0.25356   0.00000  Uiso   1.00
C279   C     0.92838   0.05665   0.18169   0.00000  Uiso   1.00
H280   H     0.90095   0.04233   0.16691   0.00000  Uiso   1.00
H281   H     0.96539   0.05063   0.15893   0.00000  Uiso   1.00
H282   H     0.92215   0.08999   0.18350   0.00000  Uiso   1.00
N283   N     0.75147   0.29144   0.25767   0.00000  Uiso   1.00
H284   H     0.76569   0.30302   0.28263   0.00000  Uiso   1.00
C285   C     0.78852   0.28201   0.21596   0.00000  Uiso   1.00
H286   H     0.80433   0.30999   0.19755   0.00000  Uiso   1.00
H287   H     0.77309   0.26334   0.19304   0.00000  Uiso   1.00
H288   H     0.81831   0.26480   0.22416   0.00000  Uiso   1.00
N289   N     0.92928   0.29032   0.21668   0.00000  Uiso   1.00
H290   H     0.89481   0.30259   0.22668   0.00000  Uiso   1.00
C291   C     0.94425   0.27960   0.16898   0.00000  Uiso   1.00
H292   H     0.95315   0.30739   0.14758   0.00000  Uiso   1.00
H293   H     0.91415   0.26323   0.15993   0.00000  Uiso   1.00
H294   H     0.97660   0.25943   0.16157   0.00000  Uiso   1.00
N295   N     0.74499   0.04110   0.27053   0.00000  Uiso   1.00
H296   H     0.73463   0.06055   0.29791   0.00000  Uiso   1.00
C297   C     0.78916   0.05150   0.23559   0.00000  Uiso   1.00
H298   H     0.78578   0.04499   0.20095   0.00000  Uiso   1.00
H299   H     0.81997   0.03403   0.24146   0.00000  Uiso   1.00
H300   H     0.79751   0.08427   0.23697   0.00000  Uiso   1.00
C301   C     0.33322   0.42062   0.25009   0.00000  Uiso   1.00
C302   C     0.00110   0.57921   0.24740   0.00000  Uiso   1.00
C303   C     0.18254   0.55285   0.04015   0.00000  Uiso   1.00
C304   C     0.13716   0.51123   0.44699   0.00000  Uiso   1.00
C305   C     0.23099   0.56135   0.01634   0.00000  Uiso   1.00
C306   C     0.08927   0.50097   0.46995   0.00000  Uiso   1.00
C307   C     0.29665   0.35405   0.23567   0.00000  Uiso   1.00
C308   C     0.04310   0.64548   0.25159   0.00000  Uiso   1.00
C309   C     0.29883   0.64498   0.23202   0.00000  Uiso   1.00
C310   C     0.04067   0.35443   0.25611   0.00000  Uiso   1.00
C311   C     0.00360   0.62377   0.24297   0.00000  Uiso   1.00
C312   C     0.00060   0.37584   0.24836   0.00000  Uiso   1.00
C313   C     0.18069   0.48426   0.28585   0.00000  Uiso   1.00
C314   C     0.15283   0.51482   0.21369   0.00000  Uiso   1.00
C315   C     0.13107   0.48478   0.28612   0.00000  Uiso   1.00
C316   C     0.20229   0.51508   0.21385   0.00000  Uiso   1.00
C317   C     0.30598   0.50249   0.33631   0.00000  Uiso   1.00
C318   C     0.02735   0.49947   0.16341   0.00000  Uiso   1.00
C319   C     0.29095   0.51377   0.38486   0.00000  Uiso   1.00
C320   C     0.04190   0.49969   0.11308   0.00000  Uiso   1.00
C321   C     0.30009   0.55523   0.44837   0.00000  Uiso   1.00
C322   C     0.02511   0.48891   0.03992   0.00000  Uiso   1.00
C323   C     0.31928   0.54014   0.40368   0.00000  Uiso   1.00
C324   C     0.00905   0.48910   0.08784   0.00000  Uiso   1.00
C325   C     0.24370   0.50401   0.40998   0.00000  Uiso   1.00
C326   C     0.08969   0.51095   0.09016   0.00000  Uiso   1.00
C327   C     0.22176   0.52345   0.45132   0.00000  Uiso   1.00
C328   C     0.10514   0.51474   0.04260   0.00000  Uiso   1.00
C329   C     0.25132   0.54637   0.47239   0.00000  Uiso   1.00
C330   C     0.07311   0.50132   0.01742   0.00000  Uiso   1.00
C331   C     0.17094   0.52031   0.47217   0.00000  Uiso   1.00
C332   C     0.15281   0.52895   0.01925   0.00000  Uiso   1.00
Cu333  Cu    0.04689   0.50001   0.25000   0.00000  Uiso   1.00
Cu334  Cu    0.28645   0.49999   0.25000   0.00000  Uiso   1.00
H335   H     0.25252   0.58024   0.03253   0.00000  Uiso   1.00
H336   H     0.06448   0.49306   0.45011   0.00000  Uiso   1.00
H337   H     0.11515   0.51545   0.11001   0.00000  Uiso   1.00
H338   H     0.22359   0.48197   0.39598   0.00000  Uiso   1.00
H339   H     0.19063   0.47109   0.31437   0.00000  Uiso   1.00
H340   H     0.14322   0.52694   0.18452   0.00000  Uiso   1.00
H341   H     0.10388   0.47215   0.31485   0.00000  Uiso   1.00
H342   H     0.22950   0.52724   0.18490   0.00000  Uiso   1.00
N343   N     0.11736   0.50001   0.24999   0.00000  Uiso   1.00
N344   N     0.21597   0.49999   0.25001   0.00000  Uiso   1.00
O345   O     0.03958   0.43989   0.25000   0.00000  Uiso   1.00
O346   O     0.29375   0.56011   0.25000   0.00000  Uiso   1.00
O347   O     0.29372   0.43988   0.25001   0.00000  Uiso   1.00
O348   O     0.03961   0.56012   0.25000   0.00000  Uiso   1.00
O349   O     0.01852   0.50001   0.31492   0.00000  Uiso   1.00
O350   O     0.31481   0.49999   0.18509   0.00000  Uiso   1.00
O351   O     0.27267   0.50000   0.31492   0.00000  Uiso   1.00
O352   O     0.06067   0.50000   0.18508   0.00000  Uiso   1.00
N353   N     0.29329   0.47734   0.11083   0.00000  Uiso   1.00
H354   H     0.28694   0.44788   0.10087   0.00000  Uiso   1.00
H355   H     0.26936   0.49731   0.10144   0.00000  Uiso   1.00
N356   N     0.03307   0.55289   0.37662   0.00000  Uiso   1.00
H357   H     0.03338   0.58455   0.37323   0.00000  Uiso   1.00
H358   H     0.05848   0.54462   0.39363   0.00000  Uiso   1.00
N359   N     0.32887   0.58128   0.46854   0.00000  Uiso   1.00
H360   H     0.02709   0.56590   0.46960   0.00000  Uiso   1.00
H361   H     0.00549   0.60725   0.44834   0.00000  Uiso   1.00
N362   N     0.32644   0.47549   0.01386   0.00000  Uiso   1.00
H363   H     0.31684   0.44513   0.02204   0.00000  Uiso   1.00
H364   H     0.29491   0.49310   0.02257   0.00000  Uiso   1.00
N365   N     0.16286   0.57315   0.08234   0.00000  Uiso   1.00
H366   H     0.18785   0.57914   0.10030   0.00000  Uiso   1.00
C367   C     0.13341   0.60826   0.07952   0.00000  Uiso   1.00
H368   H     0.11782   0.62107   0.11398   0.00000  Uiso   1.00
H369   H     0.10278   0.59962   0.06552   0.00000  Uiso   1.00
H370   H     0.15609   0.63204   0.05759   0.00000  Uiso   1.00
N371   N     0.14926   0.51639   0.39884   0.00000  Uiso   1.00
H372   H     0.12666   0.50109   0.38328   0.00000  Uiso   1.00
C373   C     0.15915   0.55798   0.38290   0.00000  Uiso   1.00
H374   H     0.16583   0.55898   0.34542   0.00000  Uiso   1.00
H375   H     0.19203   0.57017   0.39102   0.00000  Uiso   1.00
H376   H     0.12781   0.57792   0.39884   0.00000  Uiso   1.00
N377   N     0.25586   0.37384   0.22691   0.00000  Uiso   1.00
H378   H     0.23238   0.38894   0.25356   0.00000  Uiso   1.00
C379   C     0.26171   0.38998   0.18169   0.00000  Uiso   1.00
H380   H     0.23429   0.37566   0.16691   0.00000  Uiso   1.00
H381   H     0.29872   0.38396   0.15893   0.00000  Uiso   1.00
H382   H     0.25548   0.42333   0.18350   0.00000  Uiso   1.00
N383   N     0.08480   0.62478   0.25767   0.00000  Uiso   1.00
H384   H     0.09903   0.63635   0.28263   0.00000  Uiso   1.00
C385   C     0.12185   0.61534   0.21596   0.00000  Uiso   1.00
H386   H     0.13767   0.64333   0.19755   0.00000  Uiso   1.00
H387   H     0.10643   0.59667   0.19304   0.00000  Uiso   1.00
H388   H     0.15165   0.59814   0.22416   0.00000  Uiso   1.00
N389   N     0.26262   0.62365   0.21668   0.00000  Uiso   1.00
H390   H     0.22814   0.63593   0.22668   0.00000  Uiso   1.00
C391   C     0.27758   0.61294   0.16898   0.00000  Uiso   1.00
H392   H     0.28648   0.64072   0.14758   0.00000  Uiso   1.00
H393   H     0.24748   0.59656   0.15993   0.00000  Uiso   1.00
H394   H     0.30993   0.59277   0.16157   0.00000  Uiso   1.00
N395   N     0.07832   0.37444   0.27053   0.00000  Uiso   1.00
H396   H     0.06797   0.39389   0.29791   0.00000  Uiso   1.00
C397   C     0.12250   0.38483   0.23559   0.00000  Uiso   1.00
H398   H     0.11911   0.37833   0.20095   0.00000  Uiso   1.00
H399   H     0.15331   0.36736   0.24146   0.00000  Uiso   1.00
H400   H     0.13084   0.41760   0.23697   0.00000  Uiso   1.00
C401   C     0.66656   0.42062   0.25009   0.00000  Uiso   1.00
C402   C     0.33443   0.57921   0.24740   0.00000  Uiso   1.00
C403   C     0.51588   0.55285   0.04015   0.00000  Uiso   1.00
C404   C     0.47049   0.51123   0.44699   0.00000  Uiso   1.00
C405   C     0.56432   0.56135   0.01634   0.00000  Uiso   1.00
C406   C     0.42261   0.50097   0.46995   0.00000  Uiso   1.00
C407   C     0.62998   0.35405   0.23567   0.00000  Uiso   1.00
C408   C     0.37643   0.64548   0.25159   0.00000  Uiso   1.00
C409   C     0.63216   0.64498   0.23202   0.00000  Uiso   1.00
C410   C     0.37401   0.35443   0.25611   0.00000  Uiso   1.00
C411   C     0.33694   0.62377   0.24297   0.00000  Uiso   1.00
C412   C     0.33394   0.37584   0.24836   0.00000  Uiso   1.00
C413   C     0.51403   0.48426   0.28585   0.00000  Uiso   1.00
C414   C     0.48616   0.51482   0.21369   0.00000  Uiso   1.00
C415   C     0.46440   0.48478   0.28612   0.00000  Uiso   1.00
C416   C     0.53562   0.51508   0.21385   0.00000  Uiso   1.00
C417   C     0.63932   0.50249   0.33631   0.00000  Uiso   1.00
C418   C     0.36069   0.49947   0.16341   0.00000  Uiso   1.00
C419   C     0.62428   0.51377   0.38486   0.00000  Uiso   1.00
C420   C     0.37524   0.49969   0.11308   0.00000  Uiso   1.00
C421   C     0.63342   0.55523   0.44837   0.00000  Uiso   1.00
C422   C     0.35845   0.48891   0.03992   0.00000  Uiso   1.00
C423   C     0.65261   0.54014   0.40368   0.00000  Uiso   1.00
C424   C     0.34238   0.48910   0.08784   0.00000  Uiso   1.00
C425   C     0.57704   0.50401   0.40998   0.00000  Uiso   1.00
C426   C     0.42302   0.51095   0.09016   0.00000  Uiso   1.00
C427   C     0.55509   0.52345   0.45132   0.00000  Uiso   1.00
C428   C     0.43847   0.51474   0.04260   0.00000  Uiso   1.00
C429   C     0.58465   0.54637   0.47239   0.00000  Uiso   1.00
C430   C     0.40644   0.50132   0.01742   0.00000  Uiso   1.00
C431   C     0.50427   0.52031   0.47217   0.00000  Uiso   1.00
C432   C     0.48614   0.52895   0.01925   0.00000  Uiso   1.00
Cu433  Cu    0.38022   0.50001   0.25000   0.00000  Uiso   1.00
Cu434  Cu    0.61978   0.49999   0.25000   0.00000  Uiso   1.00
H435   H     0.58586   0.58024   0.03253   0.00000  Uiso   1.00
H436   H     0.39782   0.49306   0.45011   0.00000  Uiso   1.00
H437   H     0.44848   0.51545   0.11001   0.00000  Uiso   1.00
H438   H     0.55692   0.48197   0.39598   0.00000  Uiso   1.00
H439   H     0.52396   0.47109   0.31437   0.00000  Uiso   1.00
H440   H     0.47656   0.52694   0.18452   0.00000  Uiso   1.00
H441   H     0.43721   0.47215   0.31485   0.00000  Uiso   1.00
H442   H     0.56284   0.52724   0.18490   0.00000  Uiso   1.00
N443   N     0.45069   0.50001   0.24999   0.00000  Uiso   1.00
N444   N     0.54931   0.49999   0.25001   0.00000  Uiso   1.00
O445   O     0.37291   0.43989   0.25000   0.00000  Uiso   1.00
O446   O     0.62709   0.56011   0.25000   0.00000  Uiso   1.00
O447   O     0.62706   0.43988   0.25001   0.00000  Uiso   1.00
O448   O     0.37294   0.56012   0.25000   0.00000  Uiso   1.00
O449   O     0.35186   0.50001   0.31492   0.00000  Uiso   1.00
O450   O     0.64814   0.49999   0.18509   0.00000  Uiso   1.00
O451   O     0.60600   0.50000   0.31492   0.00000  Uiso   1.00
O452   O     0.39400   0.50000   0.18508   0.00000  Uiso   1.00
N453   N     0.62662   0.47734   0.11083   0.00000  Uiso   1.00
H454   H     0.62027   0.44788   0.10087   0.00000  Uiso   1.00
H455   H     0.60269   0.49731   0.10144   0.00000  Uiso   1.00
N456   N     0.36640   0.55289   0.37662   0.00000  Uiso   1.00
H457   H     0.36671   0.58455   0.37323   0.00000  Uiso   1.00
H458   H     0.39181   0.54462   0.39363   0.00000  Uiso   1.00
N459   N     0.66220   0.58128   0.46854   0.00000  Uiso   1.00
H460   H     0.36043   0.56590   0.46960   0.00000  Uiso   1.00
H461   H     0.33883   0.60725   0.44834   0.00000  Uiso   1.00
N462   N     0.65978   0.47549   0.01386   0.00000  Uiso   1.00
H463   H     0.65017   0.44513   0.02204   0.00000  Uiso   1.00
H464   H     0.62824   0.49310   0.02257   0.00000  Uiso   1.00
N465   N     0.49620   0.57315   0.08234   0.00000  Uiso   1.00
H466   H     0.52118   0.57914   0.10030   0.00000  Uiso   1.00
C467   C     0.46674   0.60826   0.07952   0.00000  Uiso   1.00
H468   H     0.45115   0.62107   0.11398   0.00000  Uiso   1.00
H469   H     0.43611   0.59962   0.06552   0.00000  Uiso   1.00
H470   H     0.48943   0.63204   0.05759   0.00000  Uiso   1.00
N471   N     0.48260   0.51639   0.39884   0.00000  Uiso   1.00
H472   H     0.46000   0.50109   0.38328   0.00000  Uiso   1.00
C473   C     0.49248   0.55798   0.38290   0.00000  Uiso   1.00
H474   H     0.49916   0.55898   0.34542   0.00000  Uiso   1.00
H475   H     0.52536   0.57017   0.39102   0.00000  Uiso   1.00
H476   H     0.46114   0.57792   0.39884   0.00000  Uiso   1.00
N477   N     0.58920   0.37384   0.22691   0.00000  Uiso   1.00
H478   H     0.56571   0.38894   0.25356   0.00000  Uiso   1.00
C479   C     0.59504   0.38998   0.18169   0.00000  Uiso   1.00
H480   H     0.56762   0.37566   0.16691   0.00000  Uiso   1.00
H481   H     0.63206   0.38396   0.15893   0.00000  Uiso   1.00
H482   H     0.58882   0.42333   0.18350   0.00000  Uiso   1.00
N483   N     0.41813   0.62478   0.25767   0.00000  Uiso   1.00
H484   H     0.43236   0.63635   0.28263   0.00000  Uiso   1.00
C485   C     0.45518   0.61534   0.21596   0.00000  Uiso   1.00
H486   H     0.47100   0.64333   0.19755   0.00000  Uiso   1.00
H487   H     0.43976   0.59667   0.19304   0.00000  Uiso   1.00
H488   H     0.48498   0.59814   0.22416   0.00000  Uiso   1.00
N489   N     0.59595   0.62365   0.21668   0.00000  Uiso   1.00
H490   H     0.56147   0.63593   0.22668   0.00000  Uiso   1.00
C491   C     0.61091   0.61294   0.16898   0.00000  Uiso   1.00
H492   H     0.61981   0.64072   0.14758   0.00000  Uiso   1.00
H493   H     0.58082   0.59656   0.15993   0.00000  Uiso   1.00
H494   H     0.64327   0.59277   0.16157   0.00000  Uiso   1.00
N495   N     0.41165   0.37444   0.27053   0.00000  Uiso   1.00
H496   H     0.40130   0.39389   0.29791   0.00000  Uiso   1.00
C497   C     0.45583   0.38483   0.23559   0.00000  Uiso   1.00
H498   H     0.45245   0.37833   0.20095   0.00000  Uiso   1.00
H499   H     0.48664   0.36736   0.24146   0.00000  Uiso   1.00
H500   H     0.46417   0.41760   0.23697   0.00000  Uiso   1.00
C501   C     0.99989   0.42062   0.25009   0.00000  Uiso   1.00
C502   C     0.66777   0.57921   0.24740   0.00000  Uiso   1.00
C503   C     0.84921   0.55285   0.04015   0.00000  Uiso   1.00
C504   C     0.80383   0.51123   0.44699   0.00000  Uiso   1.00
C505   C     0.89765   0.56135   0.01634   0.00000  Uiso   1.00
C506   C     0.75594   0.50097   0.46995   0.00000  Uiso   1.00
C507   C     0.96332   0.35405   0.23567   0.00000  Uiso   1.00
C508   C     0.70977   0.64548   0.25159   0.00000  Uiso   1.00
C509   C     0.96549   0.64498   0.23202   0.00000  Uiso   1.00
C510   C     0.70734   0.35443   0.25611   0.00000  Uiso   1.00
C511   C     0.67027   0.62377   0.24297   0.00000  Uiso   1.00
C512   C     0.66727   0.37584   0.24836   0.00000  Uiso   1.00
C513   C     0.84736   0.48426   0.28585   0.00000  Uiso   1.00
C514   C     0.81949   0.51482   0.21369   0.00000  Uiso   1.00
C515   C     0.79773   0.48478   0.28612   0.00000  Uiso   1.00
C516   C     0.86896   0.51508   0.21385   0.00000  Uiso   1.00
C517   C     0.97265   0.50249   0.33631   0.00000  Uiso   1.00
C518   C     0.69402   0.49947   0.16341   0.00000  Uiso   1.00
C519   C     0.95762   0.51377   0.38486   0.00000  Uiso   1.00
C520   C     0.70857   0.49969   0.11308   0.00000  Uiso   1.00
C521   C     0.96676   0.55523   0.44837   0.00000  Uiso   1.00
C522   C     0.69178   0.48891   0.03992   0.00000  Uiso   1.00
C523   C     0.98594   0.54014   0.40368   0.00000  Uiso   1.00
C524   C     0.67572   0.48910   0.08784   0.00000  Uiso   1.00
C525   C     0.91037   0.50401   0.40998   0.00000  Uiso   1.00
C526   C     0.75636   0.51095   0.09016   0.00000  Uiso   1.00
C527   C     0.88843   0.52345   0.45132   0.00000  Uiso   1.00
C528   C     0.77180   0.51474   0.04260   0.00000  Uiso   1.00
C529   C     0.91798   0.54637   0.47239   0.00000  Uiso   1.00
C530   C     0.73977   0.50132   0.01742   0.00000  Uiso   1.00
C531   C     0.83760   0.52031   0.47217   0.00000  Uiso   1.00
C532   C     0.81948   0.52895   0.01925   0.00000  Uiso   1.00
Cu533  Cu    0.71355   0.50001   0.25000   0.00000  Uiso   1.00
Cu534  Cu    0.95311   0.49999   0.25000   0.00000  Uiso   1.00
H535   H     0.91919   0.58024   0.03253   0.00000  Uiso   1.00
H536   H     0.73115   0.49306   0.45011   0.00000  Uiso   1.00
H537   H     0.78181   0.51545   0.11001   0.00000  Uiso   1.00
H538   H     0.89026   0.48197   0.39598   0.00000  Uiso   1.00
H539   H     0.85730   0.47109   0.31437   0.00000  Uiso   1.00
H540   H     0.80989   0.52694   0.18452   0.00000  Uiso   1.00
H541   H     0.77055   0.47215   0.31485   0.00000  Uiso   1.00
H542   H     0.89617   0.52724   0.18490   0.00000  Uiso   1.00
N543   N     0.78403   0.50001   0.24999   0.00000  Uiso   1.00
N544   N     0.88264   0.49999   0.25001   0.00000  Uiso   1.00
O545   O     0.70625   0.43989   0.25000   0.00000  Uiso   1.00
O546   O     0.96042   0.56011   0.25000   0.00000  Uiso   1.00
O547   O     0.96039   0.43988   0.25001   0.00000  Uiso   1.00
O548   O     0.70628   0.56012   0.25000   0.00000  Uiso   1.00
O549   O     0.68519   0.50001   0.31492   0.00000  Uiso   1.00
O550   O     0.98148   0.49999   0.18509   0.00000  Uiso   1.00
O551   O     0.93933   0.50000   0.31492   0.00000  Uiso   1.00
O552   O     0.72733   0.50000   0.18508   0.00000  Uiso   1.00
N553   N     0.95996   0.47734   0.11083   0.00000  Uiso   1.00
H554   H     0.95360   0.44788   0.10087   0.00000  Uiso   1.00
H555   H     0.93602   0.49731   0.10144   0.00000  Uiso   1.00
N556   N     0.69973   0.55289   0.37662   0.00000  Uiso   1.00
H557   H     0.70004   0.58455   0.37323   0.00000  Uiso   1.00
H558   H     0.72514   0.54462   0.39363   0.00000  Uiso   1.00
N559   N     0.99554   0.58128   0.46854   0.00000  Uiso   1.00
H560   H     0.69376   0.56590   0.46960   0.00000  Uiso   1.00
H561   H     0.67216   0.60725   0.44834   0.00000  Uiso   1.00
N562   N     0.99311   0.47549   0.01386   0.00000  Uiso   1.00
H563   H     0.98351   0.44513   0.02204   0.00000  Uiso   1.00
H564   H     0.96158   0.49310   0.02257   0.00000  Uiso   1.00
N565   N     0.82953   0.57315   0.08234   0.00000  Uiso   1.00
H566   H     0.85452   0.57914   0.10030   0.00000  Uiso   1.00
C567   C     0.80008   0.60826   0.07952   0.00000  Uiso   1.00
H568   H     0.78449   0.62107   0.11398   0.00000  Uiso   1.00
H569   H     0.76945   0.59962   0.06552   0.00000  Uiso   1.00
H570   H     0.82276   0.63204   0.05759   0.00000  Uiso   1.00
N571   N     0.81593   0.51639   0.39884   0.00000  Uiso   1.00
H572   H     0.79333   0.50109   0.38328   0.00000  Uiso   1.00
C573   C     0.82582   0.55798   0.38290   0.00000  Uiso   1.00
H574   H     0.83250   0.55898   0.34542   0.00000  Uiso   1.00
H575   H     0.85870   0.57017   0.39102   0.00000  Uiso   1.00
H576   H     0.79448   0.57792   0.39884   0.00000  Uiso   1.00
N577   N     0.92253   0.37384   0.22691   0.00000  Uiso   1.00
H578   H     0.89904   0.38894   0.25356   0.00000  Uiso   1.00
C579   C     0.92838   0.38998   0.18169   0.00000  Uiso   1.00
H580   H     0.90095   0.37566   0.16691   0.00000  Uiso   1.00
H581   H     0.96539   0.38396   0.15893   0.00000  Uiso   1.00
H582   H     0.92215   0.42333   0.18350   0.00000  Uiso   1.00
N583   N     0.75147   0.62478   0.25767   0.00000  Uiso   1.00
H584   H     0.76569   0.63635   0.28263   0.00000  Uiso   1.00
C585   C     0.78852   0.61534   0.21596   0.00000  Uiso   1.00
H586   H     0.80433   0.64333   0.19755   0.00000  Uiso   1.00
H587   H     0.77309   0.59667   0.19304   0.00000  Uiso   1.00
H588   H     0.81831   0.59814   0.22416   0.00000  Uiso   1.00
N589   N     0.92928   0.62365   0.21668   0.00000  Uiso   1.00
H590   H     0.89481   0.63593   0.22668   0.00000  Uiso   1.00
C591   C     0.94425   0.61294   0.16898   0.00000  Uiso   1.00
H592   H     0.95315   0.64072   0.14758   0.00000  Uiso   1.00
H593   H     0.91415   0.59656   0.15993   0.00000  Uiso   1.00
H594   H     0.97660   0.59277   0.16157   0.00000  Uiso   1.00
N595   N     0.74499   0.37444   0.27053   0.00000  Uiso   1.00
H596   H     0.73463   0.39389   0.29791   0.00000  Uiso   1.00
C597   C     0.78916   0.38483   0.23559   0.00000  Uiso   1.00
H598   H     0.78578   0.37833   0.20095   0.00000  Uiso   1.00
H599   H     0.81997   0.36736   0.24146   0.00000  Uiso   1.00
H600   H     0.79751   0.41760   0.23697   0.00000  Uiso   1.00
C601   C     0.33322   0.75395   0.25009   0.00000  Uiso   1.00
C602   C     0.00110   0.91254   0.24740   0.00000  Uiso   1.00
C603   C     0.18254   0.88619   0.04015   0.00000  Uiso   1.00
C604   C     0.13716   0.84457   0.44699   0.00000  Uiso   1.00
C605   C     0.23099   0.89469   0.01634   0.00000  Uiso   1.00
C606   C     0.08927   0.83430   0.46995   0.00000  Uiso   1.00
C607   C     0.29665   0.68738   0.23567   0.00000  Uiso   1.00
C608   C     0.04310   0.97881   0.25159   0.00000  Uiso   1.00
C609   C     0.29883   0.97831   0.23202   0.00000  Uiso   1.00
C610   C     0.04067   0.68776   0.25611   0.00000  Uiso   1.00
C611   C     0.00360   0.95711   0.24297   0.00000  Uiso   1.00
C612   C     0.00060   0.70917   0.24836   0.00000  Uiso   1.00
C613   C     0.18069   0.81759   0.28585   0.00000  Uiso   1.00
C614   C     0.15283   0.84816   0.21369   0.00000  Uiso   1.00
C615   C     0.13107   0.81812   0.28612   0.00000  Uiso   1.00
C616   C     0.20229   0.84842   0.21385   0.00000  Uiso   1.00
C617   C     0.30598   0.83583   0.33631   0.00000  Uiso   1.00
C618   C     0.02735   0.83280   0.16341   0.00000  Uiso   1.00
C619   C     0.29095   0.84710   0.38486   0.00000  Uiso   1.00
C620   C     0.04190   0.83303   0.11308   0.00000  Uiso   1.00
C621   C     0.30009   0.88856   0.44837   0.00000  Uiso   1.00
C622   C     0.02511   0.82224   0.03992   0.00000  Uiso   1.00
C623   C     0.31928   0.87347   0.40368   0.00000  Uiso   1.00
C624   C     0.00905   0.82243   0.08784   0.00000  Uiso   1.00
C625   C     0.24370   0.83734   0.40998   0.00000  Uiso   1.00
C626   C     0.08969   0.84428   0.09016   0.00000  Uiso   1.00
C627   C     0.22176   0.85679   0.45132   0.00000  Uiso   1.00
C628   C     0.10514   0.84807   0.04260   0.00000  Uiso   1.00
C629   C     0.25132   0.87970   0.47239   0.00000  Uiso   1.00
C630   C     0.07311   0.83466   0.01742   0.00000  Uiso   1.00
C631   C     0.17094   0.85364   0.47217   0.00000  Uiso   1.00
C632   C     0.15281   0.86229   0.01925   0.00000  Uiso   1.00
Cu633  Cu    0.04689   0.83334   0.25000   0.00000  Uiso   1.00
Cu634  Cu    0.28645   0.83333   0.25000   0.00000  Uiso   1.00
H635   H     0.25252   0.91358   0.03253   0.00000  Uiso   1.00
H636   H     0.06448   0.82639   0.45011   0.00000  Uiso   1.00
H637   H     0.11515   0.84878   0.11001   0.00000  Uiso   1.00
H638   H     0.22359   0.81530   0.39598   0.00000  Uiso   1.00
H639   H     0.19063   0.80443   0.31437   0.00000  Uiso   1.00
H640   H     0.14322   0.86027   0.18452   0.00000  Uiso   1.00
H641   H     0.10388   0.80548   0.31485   0.00000  Uiso   1.00
H642   H     0.22950   0.86058   0.18490   0.00000  Uiso   1.00
N643   N     0.11736   0.83334   0.24999   0.00000  Uiso   1.00
N644   N     0.21597   0.83332   0.25001   0.00000  Uiso   1.00
O645   O     0.03958   0.77322   0.25000   0.00000  Uiso   1.00
O646   O     0.29375   0.89345   0.25000   0.00000  Uiso   1.00
O647   O     0.29372   0.77321   0.25001   0.00000  Uiso   1.00
O648   O     0.03961   0.89346   0.25000   0.00000  Uiso   1.00
O649   O     0.01852   0.83334   0.31492   0.00000  Uiso   1.00
O650   O     0.31481   0.83332   0.18509   0.00000  Uiso   1.00
O651   O     0.27267   0.83333   0.31492   0.00000  Uiso   1.00
O652   O     0.06067   0.83333   0.18508   0.00000  Uiso   1.00
N653   N     0.29329   0.81067   0.11083   0.00000  Uiso   1.00
H654   H     0.28694   0.78122   0.10087   0.00000  Uiso   1.00
H655   H     0.26936   0.83064   0.10144   0.00000  Uiso   1.00
N656   N     0.03307   0.88622   0.37662   0.00000  Uiso   1.00
H657   H     0.03338   0.91788   0.37323   0.00000  Uiso   1.00
H658   H     0.05848   0.87796   0.39363   0.00000  Uiso   1.00
N659   N     0.32887   0.91461   0.46854   0.00000  Uiso   1.00
H660   H     0.02709   0.89923   0.46960   0.00000  Uiso   1.00
H661   H     0.00549   0.94058   0.44834   0.00000  Uiso   1.00
N662   N     0.32644   0.80882   0.01386   0.00000  Uiso   1.00
H663   H     0.31684   0.77847   0.02204   0.00000  Uiso   1.00
H664   H     0.29491   0.82643   0.02257   0.00000  Uiso   1.00
N665   N     0.16286   0.90648   0.08234   0.00000  Uiso   1.00
H666   H     0.18785   0.91247   0.10030   0.00000  Uiso   1.00
C667   C     0.13341   0.94159   0.07952   0.00000  Uiso   1.00
H668   H     0.11782   0.95441   0.11398   0.00000  Uiso   1.00
H669   H     0.10278   0.93295   0.06552   0.00000  Uiso   1.00
H670   H     0.15609   0.96537   0.05759   0.00000  Uiso   1.00
N671   N     0.14926   0.84973   0.39884   0.00000  Uiso   1.00
H672   H     0.12666   0.83443   0.38328   0.00000  Uiso   1.00
C673   C     0.15915   0.89131   0.38290   0.00000  Uiso   1.00
H674   H     0.16583   0.89232   0.34542   0.00000  Uiso   1.00
H675   H     0.19203   0.90351   0.39102   0.00000  Uiso   1.00
H676   H     0.12781   0.91125   0.39884   0.00000  Uiso   1.00
N677   N     0.25586   0.70717   0.22691   0.00000  Uiso   1.00
H678   H     0.23238   0.72227   0.25356   0.00000  Uiso   1.00
C679   C     0.26171   0.72332   0.18169   0.00000  Uiso   1.00
H680   H     0.23429   0.70900   0.16691   0.00000  Uiso   1.00
H681   H     0.29872   0.71729   0.15893   0.00000  Uiso   1.00
H682   H     0.25548   0.75666   0.18350   0.00000  Uiso   1.00
N683   N     0.08480   0.95811   0.25767   0.00000  Uiso   1.00
H684   H     0.09903   0.96969   0.28263   0.00000  Uiso   1.00
C685   C     0.12185   0.94868   0.21596   0.00000  Uiso   1.00
H686   H     0.13767   0.97666   0.19755   0.00000  Uiso   1.00
H687   H     0.10643   0.93001   0.19304   0.00000  Uiso   1.00
H688   H     0.15165   0.93147   0.22416   0.00000  Uiso   1.00
N689   N     0.26262   0.95699   0.21668   0.00000  Uiso   1.00
H690   H     0.22814   0.96926   0.22668   0.00000  Uiso   1.00
C691   C     0.27758   0.94627   0.16898   0.00000  Uiso   1.00
H692   H     0.28648   0.97406   0.14758   0.00000  Uiso   1.00
H693   H     0.24748   0.92989   0.15993   0.00000  Uiso   1.00
H694   H     0.30993   0.92610   0.16157   0.00000  Uiso   1.00
N695   N     0.07832   0.70777   0.27053   0.00000  Uiso   1.00
H696   H     0.06797   0.72722   0.29791   0.00000  Uiso   1.00
C697   C     0.12250   0.71817   0.23559   0.00000  Uiso   1.00
H698   H     0.11911   0.71166   0.20095   0.00000  Uiso   1.00
H699   H     0.15331   0.70070   0.24146   0.00000  Uiso   1.00
H700   H     0.13084   0.75093   0.23697   0.00000  Uiso   1.00
C701   C     0.66656   0.75395   0.25009   0.00000  Uiso   1.00
C702   C     0.33443   0.91254   0.24740   0.00000  Uiso   1.00
C703   C     0.51588   0.88619   0.04015   0.00000  Uiso   1.00
C704   C     0.47049   0.84457   0.44699   0.00000  Uiso   1.00
C705   C     0.56432   0.89469   0.01634   0.00000  Uiso   1.00
C706   C     0.42261   0.83430   0.46995   0.00000  Uiso   1.00
C707   C     0.62998   0.68738   0.23567   0.00000  Uiso   1.00
C708   C     0.37643   0.97881   0.25159   0.00000  Uiso   1.00
C709   C     0.63216   0.97831   0.23202   0.00000  Uiso   1.00
C710   C     0.37401   0.68776   0.25611   0.00000  Uiso   1.00
C711   C     0.33694   0.95711   0.24297   0.00000  Uiso   1.00
C712   C     0.33394   0.70917   0.24836   0.00000  Uiso   1.00
C713   C     0.51403   0.81759   0.28585   0.00000  Uiso   1.00
C714   C     0.48616   0.84816   0.21369   0.00000  Uiso   1.00
C715   C     0.46440   0.81812   0.28612   0.00000  Uiso   1.00
C716   C     0.53562   0.84842   0.21385   0.00000  Uiso   1.00
C717   C     0.63932   0.83583   0.33631   0.00000  Uiso   1.00
C718   C     0.36069   0.83280   0.16341   0.00000  Uiso   1.00
C719   C     0.62428   0.84710   0.38486   0.00000  Uiso   1.00
C720   C     0.37524   0.83303   0.11308   0.00000  Uiso   1.00
C721   C     0.63342   0.88856   0.44837   0.00000  Uiso   1.00
C722   C     0.35845   0.82224   0.03992   0.00000  Uiso   1.00
C723   C     0.65261   0.87347   0.40368   0.00000  Uiso   1.00
C724   C     0.34238   0.82243   0.08784   0.00000  Uiso   1.00
C725   C     0.57704   0.83734   0.40998   0.00000  Uiso   1.00
C726   C     0.42302   0.84428   0.09016   0.00000  Uiso   1.00
C727   C     0.55509   0.85679   0.45132   0.00000  Uiso   1.00
C728   C     0.43847   0.84807   0.04260   0.00000  Uiso   1.00
C729   C     0.58465   0.87970   0.47239   0.00000  Uiso   1.00
C730   C     0.40644   0.83466   0.01742   0.00000  Uiso   1.00
C731   C     0.50427   0.85364   0.47217   0.00000  Uiso   1.00
C732   C     0.48614   0.86229   0.01925   0.00000  Uiso   1.00
Cu733  Cu    0.38022   0.83334   0.25000   0.00000  Uiso   1.00
Cu734  Cu    0.61978   0.83333   0.25000   0.00000  Uiso   1.00
H735   H     0.58586   0.91358   0.03253   0.00000  Uiso   1.00
H736   H     0.39782   0.82639   0.45011   0.00000  Uiso   1.00
H737   H     0.44848   0.84878   0.11001   0.00000  Uiso   1.00
H738   H     0.55692   0.81530   0.39598   0.00000  Uiso   1.00
H739   H     0.52396   0.80443   0.31437   0.00000  Uiso   1.00
H740   H     0.47656   0.86027   0.18452   0.00000  Uiso   1.00
H741   H     0.43721   0.80548   0.31485   0.00000  Uiso   1.00
H742   H     0.56284   0.86058   0.18490   0.00000  Uiso   1.00
N743   N     0.45069   0.83334   0.24999   0.00000  Uiso   1.00
N744   N     0.54931   0.83332   0.25001   0.00000  Uiso   1.00
O745   O     0.37291   0.77322   0.25000   0.00000  Uiso   1.00
O746   O     0.62709   0.89345   0.25000   0.00000  Uiso   1.00
O747   O     0.62706   0.77321   0.25001   0.00000  Uiso   1.00
O748   O     0.37294   0.89346   0.25000   0.00000  Uiso   1.00
O749   O     0.35186   0.83334   0.31492   0.00000  Uiso   1.00
O750   O     0.64814   0.83332   0.18509   0.00000  Uiso   1.00
O751   O     0.60600   0.83333   0.31492   0.00000  Uiso   1.00
O752   O     0.39400   0.83333   0.18508   0.00000  Uiso   1.00
N753   N     0.62662   0.81067   0.11083   0.00000  Uiso   1.00
H754   H     0.62027   0.78122   0.10087   0.00000  Uiso   1.00
H755   H     0.60269   0.83064   0.10144   0.00000  Uiso   1.00
N756   N     0.36640   0.88622   0.37662   0.00000  Uiso   1.00
H757   H     0.36671   0.91788   0.37323   0.00000  Uiso   1.00
H758   H     0.39181   0.87796   0.39363   0.00000  Uiso   1.00
N759   N     0.66220   0.91461   0.46854   0.00000  Uiso   1.00
H760   H     0.36043   0.89923   0.46960   0.00000  Uiso   1.00
H761   H     0.33883   0.94058   0.44834   0.00000  Uiso   1.00
N762   N     0.65978   0.80882   0.01386   0.00000  Uiso   1.00
H763   H     0.65017   0.77847   0.02204   0.00000  Uiso   1.00
H764   H     0.62824   0.82643   0.02257   0.00000  Uiso   1.00
N765   N     0.49620   0.90648   0.08234   0.00000  Uiso   1.00
H766   H     0.52118   0.91247   0.10030   0.00000  Uiso   1.00
C767   C     0.46674   0.94159   0.07952   0.00000  Uiso   1.00
H768   H     0.45115   0.95441   0.11398   0.00000  Uiso   1.00
H769   H     0.43611   0.93295   0.06552   0.00000  Uiso   1.00
H770   H     0.48943   0.96537   0.05759   0.00000  Uiso   1.00
N771   N     0.48260   0.84973   0.39884   0.00000  Uiso   1.00
H772   H     0.46000   0.83443   0.38328   0.00000  Uiso   1.00
C773   C     0.49248   0.89131   0.38290   0.00000  Uiso   1.00
H774   H     0.49916   0.89232   0.34542   0.00000  Uiso   1.00
H775   H     0.52536   0.90351   0.39102   0.00000  Uiso   1.00
H776   H     0.46114   0.91125   0.39884   0.00000  Uiso   1.00
N777   N     0.58920   0.70717   0.22691   0.00000  Uiso   1.00
H778   H     0.56571   0.72227   0.25356   0.00000  Uiso   1.00
C779   C     0.59504   0.72332   0.18169   0.00000  Uiso   1.00
H780   H     0.56762   0.70900   0.16691   0.00000  Uiso   1.00
H781   H     0.63206   0.71729   0.15893   0.00000  Uiso   1.00
H782   H     0.58882   0.75666   0.18350   0.00000  Uiso   1.00
N783   N     0.41813   0.95811   0.25767   0.00000  Uiso   1.00
H784   H     0.43236   0.96969   0.28263   0.00000  Uiso   1.00
C785   C     0.45518   0.94868   0.21596   0.00000  Uiso   1.00
H786   H     0.47100   0.97666   0.19755   0.00000  Uiso   1.00
H787   H     0.43976   0.93001   0.19304   0.00000  Uiso   1.00
H788   H     0.48498   0.93147   0.22416   0.00000  Uiso   1.00
N789   N     0.59595   0.95699   0.21668   0.00000  Uiso   1.00
H790   H     0.56147   0.96926   0.22668   0.00000  Uiso   1.00
C791   C     0.61091   0.94627   0.16898   0.00000  Uiso   1.00
H792   H     0.61981   0.97406   0.14758   0.00000  Uiso   1.00
H793   H     0.58082   0.92989   0.15993   0.00000  Uiso   1.00
H794   H     0.64327   0.92610   0.16157   0.00000  Uiso   1.00
N795   N     0.41165   0.70777   0.27053   0.00000  Uiso   1.00
H796   H     0.40130   0.72722   0.29791   0.00000  Uiso   1.00
C797   C     0.45583   0.71817   0.23559   0.00000  Uiso   1.00
H798   H     0.45245   0.71166   0.20095   0.00000  Uiso   1.00
H799   H     0.48664   0.70070   0.24146   0.00000  Uiso   1.00
H800   H     0.46417   0.75093   0.23697   0.00000  Uiso   1.00
C801   C     0.99989   0.75395   0.25009   0.00000  Uiso   1.00
C802   C     0.66777   0.91254   0.24740   0.00000  Uiso   1.00
C803   C     0.84921   0.88619   0.04015   0.00000  Uiso   1.00
C804   C     0.80383   0.84457   0.44699   0.00000  Uiso   1.00
C805   C     0.89765   0.89469   0.01634   0.00000  Uiso   1.00
C806   C     0.75594   0.83430   0.46995   0.00000  Uiso   1.00
C807   C     0.96332   0.68738   0.23567   0.00000  Uiso   1.00
C808   C     0.70977   0.97881   0.25159   0.00000  Uiso   1.00
C809   C     0.96549   0.97831   0.23202   0.00000  Uiso   1.00
C810   C     0.70734   0.68776   0.25611   0.00000  Uiso   1.00
C811   C     0.67027   0.95711   0.24297   0.00000  Uiso   1.00
C812   C     0.66727   0.70917   0.24836   0.00000  Uiso   1.00
C813   C     0.84736   0.81759   0.28585   0.00000  Uiso   1.00
C814   C     0.81949   0.84816   0.21369   0.00000  Uiso   1.00
C815   C     0.79773   0.81812   0.28612   0.00000  Uiso   1.00
C816   C     0.86896   0.84842   0.21385   0.00000  Uiso   1.00
C817   C     0.97265   0.83583   0.33631   0.00000  Uiso   1.00
C818   C     0.69402   0.83280   0.16341   0.00000  Uiso   1.00
C819   C     0.95762   0.84710   0.38486   0.00000  Uiso   1.00
C820   C     0.70857   0.83303   0.11308   0.00000  Uiso   1.00
C821   C     0.96676   0.88856   0.44837   0.00000  Uiso   1.00
C822   C     0.69178   0.82224   0.03992   0.00000  Uiso   1.00
C823   C     0.98594   0.87347   0.40368   0.00000  Uiso   1.00
C824   C     0.67572   0.82243   0.08784   0.00000  Uiso   1.00
C825   C     0.91037   0.83734   0.40998   0.00000  Uiso   1.00
C826   C     0.75636   0.84428   0.09016   0.00000  Uiso   1.00
C827   C     0.88843   0.85679   0.45132   0.00000  Uiso   1.00
C828   C     0.77180   0.84807   0.04260   0.00000  Uiso   1.00
C829   C     0.91798   0.87970   0.47239   0.00000  Uiso   1.00
C830   C     0.73977   0.83466   0.01742   0.00000  Uiso   1.00
C831   C     0.83760   0.85364   0.47217   0.00000  Uiso   1.00
C832   C     0.81948   0.86229   0.01925   0.00000  Uiso   1.00
Cu833  Cu    0.71355   0.83334   0.25000   0.00000  Uiso   1.00
Cu834  Cu    0.95311   0.83333   0.25000   0.00000  Uiso   1.00
H835   H     0.91919   0.91358   0.03253   0.00000  Uiso   1.00
H836   H     0.73115   0.82639   0.45011   0.00000  Uiso   1.00
H837   H     0.78181   0.84878   0.11001   0.00000  Uiso   1.00
H838   H     0.89026   0.81530   0.39598   0.00000  Uiso   1.00
H839   H     0.85730   0.80443   0.31437   0.00000  Uiso   1.00
H840   H     0.80989   0.86027   0.18452   0.00000  Uiso   1.00
H841   H     0.77055   0.80548   0.31485   0.00000  Uiso   1.00
H842   H     0.89617   0.86058   0.18490   0.00000  Uiso   1.00
N843   N     0.78403   0.83334   0.24999   0.00000  Uiso   1.00
N844   N     0.88264   0.83332   0.25001   0.00000  Uiso   1.00
O845   O     0.70625   0.77322   0.25000   0.00000  Uiso   1.00
O846   O     0.96042   0.89345   0.25000   0.00000  Uiso   1.00
O847   O     0.96039   0.77321   0.25001   0.00000  Uiso   1.00
O848   O     0.70628   0.89346   0.25000   0.00000  Uiso   1.00
O849   O     0.68519   0.83334   0.31492   0.00000  Uiso   1.00
O850   O     0.98148   0.83332   0.18509   0.00000  Uiso   1.00
O851   O     0.93933   0.83333   0.31492   0.00000  Uiso   1.00
O852   O     0.72733   0.83333   0.18508   0.00000  Uiso   1.00
N853   N     0.95996   0.81067   0.11083   0.00000  Uiso   1.00
H854   H     0.95360   0.78122   0.10087   0.00000  Uiso   1.00
H855   H     0.93602   0.83064   0.10144   0.00000  Uiso   1.00
N856   N     0.69973   0.88622   0.37662   0.00000  Uiso   1.00
H857   H     0.70004   0.91788   0.37323   0.00000  Uiso   1.00
H858   H     0.72514   0.87796   0.39363   0.00000  Uiso   1.00
N859   N     0.99554   0.91461   0.46854   0.00000  Uiso   1.00
H860   H     0.69376   0.89923   0.46960   0.00000  Uiso   1.00
H861   H     0.67216   0.94058   0.44834   0.00000  Uiso   1.00
N862   N     0.99311   0.80882   0.01386   0.00000  Uiso   1.00
H863   H     0.98351   0.77847   0.02204   0.00000  Uiso   1.00
H864   H     0.96158   0.82643   0.02257   0.00000  Uiso   1.00
N865   N     0.82953   0.90648   0.08234   0.00000  Uiso   1.00
H866   H     0.85452   0.91247   0.10030   0.00000  Uiso   1.00
C867   C     0.80008   0.94159   0.07952   0.00000  Uiso   1.00
H868   H     0.78449   0.95441   0.11398   0.00000  Uiso   1.00
H869   H     0.76945   0.93295   0.06552   0.00000  Uiso   1.00
H870   H     0.82276   0.96537   0.05759   0.00000  Uiso   1.00
N871   N     0.81593   0.84973   0.39884   0.00000  Uiso   1.00
H872   H     0.79333   0.83443   0.38328   0.00000  Uiso   1.00
C873   C     0.82582   0.89131   0.38290   0.00000  Uiso   1.00
H874   H     0.83250   0.89232   0.34542   0.00000  Uiso   1.00
H875   H     0.85870   0.90351   0.39102   0.00000  Uiso   1.00
H876   H     0.79448   0.91125   0.39884   0.00000  Uiso   1.00
N877   N     0.92253   0.70717   0.22691   0.00000  Uiso   1.00
H878   H     0.89904   0.72227   0.25356   0.00000  Uiso   1.00
C879   C     0.92838   0.72332   0.18169   0.00000  Uiso   1.00
H880   H     0.90095   0.70900   0.16691   0.00000  Uiso   1.00
H881   H     0.96539   0.71729   0.15893   0.00000  Uiso   1.00
H882   H     0.92215   0.75666   0.18350   0.00000  Uiso   1.00
N883   N     0.75147   0.95811   0.25767   0.00000  Uiso   1.00
H884   H     0.76569   0.96969   0.28263   0.00000  Uiso   1.00
C885   C     0.78852   0.94868   0.21596   0.00000  Uiso   1.00
H886   H     0.80433   0.97666   0.19755   0.00000  Uiso   1.00
H887   H     0.77309   0.93001   0.19304   0.00000  Uiso   1.00
H888   H     0.81831   0.93147   0.22416   0.00000  Uiso   1.00
N889   N     0.92928   0.95699   0.21668   0.00000  Uiso   1.00
H890   H     0.89481   0.96926   0.22668   0.00000  Uiso   1.00
C891   C     0.94425   0.94627   0.16898   0.00000  Uiso   1.00
H892   H     0.95315   0.97406   0.14758   0.00000  Uiso   1.00
H893   H     0.91415   0.92989   0.15993   0.00000  Uiso   1.00
H894   H     0.97660   0.92610   0.16157   0.00000  Uiso   1.00
N895   N     0.74499   0.70777   0.27053   0.00000  Uiso   1.00
H896   H     0.73463   0.72722   0.29791   0.00000  Uiso   1.00
C897   C     0.78916   0.71817   0.23559   0.00000  Uiso   1.00
H898   H     0.78578   0.71166   0.20095   0.00000  Uiso   1.00
H899   H     0.81997   0.70070   0.24146   0.00000  Uiso   1.00
H900   H     0.79751   0.75093   0.23697   0.00000  Uiso   1.00
C901   C     0.33322   0.08728   0.75009   0.00000  Uiso   1.00
C902   C     0.00110   0.24587   0.74740   0.00000  Uiso   1.00
C903   C     0.18254   0.21952   0.54015   0.00000  Uiso   1.00
C904   C     0.13716   0.17790   0.94699   0.00000  Uiso   1.00
C905   C     0.23099   0.22802   0.51634   0.00000  Uiso   1.00
C906   C     0.08927   0.16763   0.96995   0.00000  Uiso   1.00
C907   C     0.29665   0.02071   0.73567   0.00000  Uiso   1.00
C908   C     0.04310   0.31214   0.75159   0.00000  Uiso   1.00
C909   C     0.29883   0.31165   0.73202   0.00000  Uiso   1.00
C910   C     0.04067   0.02110   0.75611   0.00000  Uiso   1.00
C911   C     0.00360   0.29044   0.74297   0.00000  Uiso   1.00
C912   C     0.00060   0.04251   0.74836   0.00000  Uiso   1.00
C913   C     0.18069   0.15093   0.78585   0.00000  Uiso   1.00
C914   C     0.15283   0.18149   0.71369   0.00000  Uiso   1.00
C915   C     0.13107   0.15145   0.78612   0.00000  Uiso   1.00
C916   C     0.20229   0.18175   0.71385   0.00000  Uiso   1.00
C917   C     0.30598   0.16916   0.83631   0.00000  Uiso   1.00
C918   C     0.02735   0.16613   0.66341   0.00000  Uiso   1.00
C919   C     0.29095   0.18043   0.88486   0.00000  Uiso   1.00
C920   C     0.04190   0.16636   0.61308   0.00000  Uiso   1.00
C921   C     0.30009   0.22190   0.94837   0.00000  Uiso   1.00
C922   C     0.02511   0.15557   0.53992   0.00000  Uiso   1.00
C923   C     0.31928   0.20681   0.90368   0.00000  Uiso   1.00
C924   C     0.00905   0.15576   0.58784   0.00000  Uiso   1.00
C925   C     0.24370   0.17067   0.90998   0.00000  Uiso   1.00
C926   C     0.08969   0.17761   0.59016   0.00000  Uiso   1.00
C927   C     0.22176   0.19012   0.95132   0.00000  Uiso   1.00
C928   C     0.10514   0.18140   0.54260   0.00000  Uiso   1.00
C929   C     0.25132   0.21303   0.97239   0.00000  Uiso   1.00
C930   C     0.07311   0.16799   0.51742   0.00000  Uiso   1.00
C931   C     0.17094   0.18698   0.97217   0.00000  Uiso   1.00
C932   C     0.15281   0.19562   0.51925   0.00000  Uiso   1.00
Cu933  Cu    0.04689   0.16667   0.75000   0.00000  Uiso   1.00
Cu934  Cu    0.28645   0.16666   0.75000   0.00000  Uiso   1.00
H935   H     0.25252   0.24691   0.53253   0.00000  Uiso   1.00
H936   H     0.06448   0.15972   0.95011   0.00000  Uiso   1.00
H937   H     0.11515   0.18211   0.61001   0.00000  Uiso   1.00
H938   H     0.22359   0.14863   0.89598   0.00000  Uiso   1.00
H939   H     0.19063   0.13776   0.81437   0.00000  Uiso   1.00
H940   H     0.14322   0.19360   0.68452   0.00000  Uiso   1.00
H941   H     0.10388   0.13882   0.81485   0.00000  Uiso   1.00
H942   H     0.22950   0.19391   0.68490   0.00000  Uiso   1.00
N943   N     0.11736   0.16668   0.74999   0.00000  Uiso   1.00
N944   N     0.21597   0.16666   0.75001   0.00000  Uiso   1.00
O945   O     0.03958   0.10655   0.75000   0.00000  Uiso   1.00
O946   O     0.29375   0.22678   0.75000   0.00000  Uiso   1.00
O947   O     0.29372   0.10654   0.75001   0.00000  Uiso   1.00
O948   O     0.03961   0.22679   0.75000   0.00000  Uiso   1.00
O949   O     0.01852   0.16668   0.81492   0.00000  Uiso   1.00
O950   O     0.31481   0.16666   0.68509   0.00000  Uiso   1.00
O951   O     0.27267   0.16667   0.81492   0.00000  Uiso   1.00
O952   O     0.06067   0.16667   0.68508   0.00000  Uiso   1.00
N953   N     0.29329   0.14401   0.61083   0.00000  Uiso   1.00
H954   H     0.28694   0.11455   0.60087   0.00000  Uiso   1.00
H955   H     0.26936   0.16398   0.60144   0.00000  Uiso   1.00
N956   N     0.03307   0.21955   0.87662   0.00000  Uiso   1.00
H957   H     0.03338   0.25121   0.87323   0.00000  Uiso   1.00
H958   H     0.05848   0.21129   0.89363   0.00000  Uiso   1.00
N959   N     0.32887   0.24795   0.96854   0.00000  Uiso   1.00
H960   H     0.02709   0.23256   0.96960   0.00000  Uiso   1.00
H961   H     0.00549   0.27392   0.94834   0.00000  Uiso   1.00
N962   N     0.32644   0.14215   0.51386   0.00000  Uiso   1.00
H963   H     0.31684   0.11180   0.52204   0.00000  Uiso   1.00
H964   H     0.29491   0.15977   0.52257   0.00000  Uiso   1.00
N965   N     0.16286   0.23982   0.58234   0.00000  Uiso   1.00
H966   H     0.18785   0.24580   0.60030   0.00000  Uiso   1.00
C967   C     0.13341   0.27493   0.57952   0.00000  Uiso   1.00
H968   H     0.11782   0.28774   0.61398   0.00000  Uiso   1.00
H969   H     0.10278   0.26629   0.56552   0.00000  Uiso   1.00
H970   H     0.15609   0.29871   0.55759   0.00000  Uiso   1.00
N971   N     0.14926   0.18306   0.89884   0.00000  Uiso   1.00
H972   H     0.12666   0.16776   0.88328   0.00000  Uiso   1.00
C973   C     0.15915   0.22465   0.88290   0.00000  Uiso   1.00
H974   H     0.16583   0.22565   0.84542   0.00000  Uiso   1.00
H975   H     0.19203   0.23684   0.89102   0.00000  Uiso   1.00
H976   H     0.12781   0.24459   0.89884   0.00000  Uiso   1.00
N977   N     0.25586   0.04050   0.72691   0.00000  Uiso   1.00
H978   H     0.23238   0.05560   0.75356   0.00000  Uiso   1.00
C979   C     0.26171   0.05665   0.68169   0.00000  Uiso   1.00
H980   H     0.23429   0.04233   0.66691   0.00000  Uiso   1.00
H981   H     0.29872   0.05063   0.65893   0.00000  Uiso   1.00
H982   H     0.25548   0.08999   0.68350   0.00000  Uiso   1.00
N983   N     0.08480   0.29144   0.75767   0.00000  Uiso   1.00
H984   H     0.09903   0.30302   0.78263   0.00000  Uiso   1.00
C985   C     0.12185   0.28201   0.71596   0.00000  Uiso   1.00
H986   H     0.13767   0.30999   0.69755   0.00000  Uiso   1.00
H987   H     0.10643   0.26334   0.69304   0.00000  Uiso   1.00
H988   H     0.15165   0.26480   0.72416   0.00000  Uiso   1.00
N989   N     0.26262   0.29032   0.71668   0.00000  Uiso   1.00
H990   H     0.22814   0.30259   0.72668   0.00000  Uiso   1.00
C991   C     0.27758   0.27960   0.66898   0.00000  Uiso   1.00
H992   H     0.28648   0.30739   0.64758   0.00000  Uiso   1.00
H993   H     0.24748   0.26323   0.65993   0.00000  Uiso   1.00
H994   H     0.30993   0.25943   0.66157   0.00000  Uiso   1.00
N995   N     0.07832   0.04110   0.77053   0.00000  Uiso   1.00
H996   H     0.06797   0.06055   0.79791   0.00000  Uiso   1.00
C997   C     0.12250   0.05150   0.73559   0.00000  Uiso   1.00
H998   H     0.11911   0.04499   0.70095   0.00000  Uiso   1.00
H999   H     0.15331   0.03403   0.74146   0.00000  Uiso   1.00
H1000  H     0.13084   0.08427   0.73697   0.00000  Uiso   1.00
C1001  C     0.66656   0.08728   0.75009   0.00000  Uiso   1.00
C1002  C     0.33443   0.24587   0.74740   0.00000  Uiso   1.00
C1003  C     0.51588   0.21952   0.54015   0.00000  Uiso   1.00
C1004  C     0.47049   0.17790   0.94699   0.00000  Uiso   1.00
C1005  C     0.56432   0.22802   0.51634   0.00000  Uiso   1.00
C1006  C     0.42261   0.16763   0.96995   0.00000  Uiso   1.00
C1007  C     0.62998   0.02071   0.73567   0.00000  Uiso   1.00
C1008  C     0.37643   0.31214   0.75159   0.00000  Uiso   1.00
C1009  C     0.63216   0.31165   0.73202   0.00000  Uiso   1.00
C1010  C     0.37401   0.02110   0.75611   0.00000  Uiso   1.00
C1011  C     0.33694   0.29044   0.74297   0.00000  Uiso   1.00
C1012  C     0.33394   0.04251   0.74836   0.00000  Uiso   1.00
C1013  C     0.51403   0.15093   0.78585   0.00000  Uiso   1.00
C1014  C     0.48616   0.18149   0.71369   0.00000  Uiso   1.00
C1015  C     0.46440   0.15145   0.78612   0.00000  Uiso   1.00
C1016  C     0.53562   0.18175   0.71385   0.00000  Uiso   1.00
C1017  C     0.63932   0.16916   0.83631   0.00000  Uiso   1.00
C1018  C     0.36069   0.16613   0.66341   0.00000  Uiso   1.00
C1019  C     0.62428   0.18043   0.88486   0.00000  Uiso   1.00
C1020  C     0.37524   0.16636   0.61308   0.00000  Uiso   1.00
C1021  C     0.63342   0.22190   0.94837   0.00000  Uiso   1.00
C1022  C     0.35845   0.15557   0.53992   0.00000  Uiso   1.00
C1023  C     0.65261   0.20681   0.90368   0.00000  Uiso   1.00
C1024  C     0.34238   0.15576   0.58784   0.00000  Uiso   1.00
C1025  C     0.57704   0.17067   0.90998   0.00000  Uiso   1.00
C1026  C     0.42302   0.17761   0.59016   0.00000  Uiso   1.00
C1027  C     0.55509   0.19012   0.95132   0.00000  Uiso   1.00
C1028  C     0.43847   0.18140   0.54260   0.00000  Uiso   1.00
C1029  C     0.58465   0.21303   0.97239   0.00000  Uiso   1.00
C1030  C     0.40644   0.16799   0.51742   0.00000  Uiso   1.00
C1031  C     0.50427   0.18698   0.97217   0.00000  Uiso   1.00
C1032  C     0.48614   0.19562   0.51925   0.00000  Uiso   1.00
Cu1033 Cu    0.38022   0.16667   0.75000   0.00000  Uiso   1.00
Cu1034 Cu    0.61978   0.16666   0.75000   0.00000  Uiso   1.00
H1035  H     0.58586   0.24691   0.53253   0.00000  Uiso   1.00
H1036  H     0.39782   0.15972   0.95011   0.00000  Uiso   1.00
H1037  H     0.44848   0.18211   0.61001   0.00000  Uiso   1.00
H1038  H     0.55692   0.14863   0.89598   0.00000  Uiso   1.00
H1039  H     0.52396   0.13776   0.81437   0.00000  Uiso   1.00
H1040  H     0.47656   0.19360   0.68452   0.00000  Uiso   1.00
H1041  H     0.43721   0.13882   0.81485   0.00000  Uiso   1.00
H1042  H     0.56284   0.19391   0.68490   0.00000  Uiso   1.00
N1043  N     0.45069   0.16668   0.74999   0.00000  Uiso   1.00
N1044  N     0.54931   0.16666   0.75001   0.00000  Uiso   1.00
O1045  O     0.37291   0.10655   0.75000   0.00000  Uiso   1.00
O1046  O     0.62709   0.22678   0.75000   0.00000  Uiso   1.00
O1047  O     0.62706   0.10654   0.75001   0.00000  Uiso   1.00
O1048  O     0.37294   0.22679   0.75000   0.00000  Uiso   1.00
O1049  O     0.35186   0.16668   0.81492   0.00000  Uiso   1.00
O1050  O     0.64814   0.16666   0.68509   0.00000  Uiso   1.00
O1051  O     0.60600   0.16667   0.81492   0.00000  Uiso   1.00
O1052  O     0.39400   0.16667   0.68508   0.00000  Uiso   1.00
N1053  N     0.62662   0.14401   0.61083   0.00000  Uiso   1.00
H1054  H     0.62027   0.11455   0.60087   0.00000  Uiso   1.00
H1055  H     0.60269   0.16398   0.60144   0.00000  Uiso   1.00
N1056  N     0.36640   0.21955   0.87662   0.00000  Uiso   1.00
H1057  H     0.36671   0.25121   0.87323   0.00000  Uiso   1.00
H1058  H     0.39181   0.21129   0.89363   0.00000  Uiso   1.00
N1059  N     0.66220   0.24795   0.96854   0.00000  Uiso   1.00
H1060  H     0.36043   0.23256   0.96960   0.00000  Uiso   1.00
H1061  H     0.33883   0.27392   0.94834   0.00000  Uiso   1.00
N1062  N     0.65978   0.14215   0.51386   0.00000  Uiso   1.00
H1063  H     0.65017   0.11180   0.52204   0.00000  Uiso   1.00
H1064  H     0.62824   0.15977   0.52257   0.00000  Uiso   1.00
N1065  N     0.49620   0.23982   0.58234   0.00000  Uiso   1.00
H1066  H     0.52118   0.24580   0.60030   0.00000  Uiso   1.00
C1067  C     0.46674   0.27493   0.57952   0.00000  Uiso   1.00
H1068  H     0.45115   0.28774   0.61398   0.00000  Uiso   1.00
H1069  H     0.43611   0.26629   0.56552   0.00000  Uiso   1.00
H1070  H     0.48943   0.29871   0.55759   0.00000  Uiso   1.00
N1071  N     0.48260   0.18306   0.89884   0.00000  Uiso   1.00
H1072  H     0.46000   0.16776   0.88328   0.00000  Uiso   1.00
C1073  C     0.49248   0.22465   0.88290   0.00000  Uiso   1.00
H1074  H     0.49916   0.22565   0.84542   0.00000  Uiso   1.00
H1075  H     0.52536   0.23684   0.89102   0.00000  Uiso   1.00
H1076  H     0.46114   0.24459   0.89884   0.00000  Uiso   1.00
N1077  N     0.58920   0.04050   0.72691   0.00000  Uiso   1.00
H1078  H     0.56571   0.05560   0.75356   0.00000  Uiso   1.00
C1079  C     0.59504   0.05665   0.68169   0.00000  Uiso   1.00
H1080  H     0.56762   0.04233   0.66691   0.00000  Uiso   1.00
H1081  H     0.63206   0.05063   0.65893   0.00000  Uiso   1.00
H1082  H     0.58882   0.08999   0.68350   0.00000  Uiso   1.00
N1083  N     0.41813   0.29144   0.75767   0.00000  Uiso   1.00
H1084  H     0.43236   0.30302   0.78263   0.00000  Uiso   1.00
C1085  C     0.45518   0.28201   0.71596   0.00000  Uiso   1.00
H1086  H     0.47100   0.30999   0.69755   0.00000  Uiso   1.00
H1087  H     0.43976   0.26334   0.69304   0.00000  Uiso   1.00
H1088  H     0.48498   0.26480   0.72416   0.00000  Uiso   1.00
N1089  N     0.59595   0.29032   0.71668   0.00000  Uiso   1.00
H1090  H     0.56147   0.30259   0.72668   0.00000  Uiso   1.00
C1091  C     0.61091   0.27960   0.66898   0.00000  Uiso   1.00
H1092  H     0.61981   0.30739   0.64758   0.00000  Uiso   1.00
H1093  H     0.58082   0.26323   0.65993   0.00000  Uiso   1.00
H1094  H     0.64327   0.25943   0.66157   0.00000  Uiso   1.00
N1095  N     0.41165   0.04110   0.77053   0.00000  Uiso   1.00
H1096  H     0.40130   0.06055   0.79791   0.00000  Uiso   1.00
C1097  C     0.45583   0.05150   0.73559   0.00000  Uiso   1.00
H1098  H     0.45245   0.04499   0.70095   0.00000  Uiso   1.00
H1099  H     0.48664   0.03403   0.74146   0.00000  Uiso   1.00
H1100  H     0.46417   0.08427   0.73697   0.00000  Uiso   1.00
C1101  C     0.99989   0.08728   0.75009   0.00000  Uiso   1.00
C1102  C     0.66777   0.24587   0.74740   0.00000  Uiso   1.00
C1103  C     0.84921   0.21952   0.54015   0.00000  Uiso   1.00
C1104  C     0.80383   0.17790   0.94699   0.00000  Uiso   1.00
C1105  C     0.89765   0.22802   0.51634   0.00000  Uiso   1.00
C1106  C     0.75594   0.16763   0.96995   0.00000  Uiso   1.00
C1107  C     0.96332   0.02071   0.73567   0.00000  Uiso   1.00
C1108  C     0.70977   0.31214   0.75159   0.00000  Uiso   1.00
C1109  C     0.96549   0.31165   0.73202   0.00000  Uiso   1.00
C1110  C     0.70734   0.02110   0.75611   0.00000  Uiso   1.00
C1111  C     0.67027   0.29044   0.74297   0.00000  Uiso   1.00
C1112  C     0.66727   0.04251   0.74836   0.00000  Uiso   1.00
C1113  C     0.84736   0.15093   0.78585   0.00000  Uiso   1.00
C1114  C     0.81949   0.18149   0.71369   0.00000  Uiso   1.00
C1115  C     0.79773   0.15145   0.78612   0.00000  Uiso   1.00
C1116  C     0.86896   0.18175   0.71385   0.00000  Uiso   1.00
C1117  C     0.97265   0.16916   0.83631   0.00000  Uiso   1.00
C1118  C     0.69402   0.16613   0.66341   0.00000  Uiso   1.00
C1119  C     0.95762   0.18043   0.88486   0.00000  Uiso   1.00
C1120  C     0.70857   0.16636   0.61308   0.00000  Uiso   1.00
C1121  C     0.96676   0.22190   0.94837   0.00000  Uiso   1.00
C1122  C     0.69178   0.15557   0.53992   0.00000  Uiso   1.00
C1123  C     0.98594   0.20681   0.90368   0.00000  Uiso   1.00
C1124  C     0.67572   0.15576   0.58784   0.00000  Uiso   1.00
C1125  C     0.91037   0.17067   0.90998   0.00000  Uiso   1.00
C1126  C     0.75636   0.17761   0.59016   0.00000  Uiso   1.00
C1127  C     0.88843   0.19012   0.95132   0.00000  Uiso   1.00
C1128  C     0.77180   0.18140   0.54260   0.00000  Uiso   1.00
C1129  C     0.91798   0.21303   0.97239   0.00000  Uiso   1.00
C1130  C     0.73977   0.16799   0.51742   0.00000  Uiso   1.00
C1131  C     0.83760   0.18698   0.97217   0.00000  Uiso   1.00
C1132  C     0.81948   0.19562   0.51925   0.00000  Uiso   1.00
Cu1133 Cu    0.71355   0.16667   0.75000   0.00000  Uiso   1.00
Cu1134 Cu    0.95311   0.16666   0.75000   0.00000  Uiso   1.00
H1135  H     0.91919   0.24691   0.53253   0.00000  Uiso   1.00
H1136  H     0.73115   0.15972   0.95011   0.00000  Uiso   1.00
H1137  H     0.78181   0.18211   0.61001   0.00000  Uiso   1.00
H1138  H     0.89026   0.14863   0.89598   0.00000  Uiso   1.00
H1139  H     0.85730   0.13776   0.81437   0.00000  Uiso   1.00
H1140  H     0.80989   0.19360   0.68452   0.00000  Uiso   1.00
H1141  H     0.77055   0.13882   0.81485   0.00000  Uiso   1.00
H1142  H     0.89617   0.19391   0.68490   0.00000  Uiso   1.00
N1143  N     0.78403   0.16668   0.74999   0.00000  Uiso   1.00
N1144  N     0.88264   0.16666   0.75001   0.00000  Uiso   1.00
O1145  O     0.70625   0.10655   0.75000   0.00000  Uiso   1.00
O1146  O     0.96042   0.22678   0.75000   0.00000  Uiso   1.00
O1147  O     0.96039   0.10654   0.75001   0.00000  Uiso   1.00
O1148  O     0.70628   0.22679   0.75000   0.00000  Uiso   1.00
O1149  O     0.68519   0.16668   0.81492   0.00000  Uiso   1.00
O1150  O     0.98148   0.16666   0.68509   0.00000  Uiso   1.00
O1151  O     0.93933   0.16667   0.81492   0.00000  Uiso   1.00
O1152  O     0.72733   0.16667   0.68508   0.00000  Uiso   1.00
N1153  N     0.95996   0.14401   0.61083   0.00000  Uiso   1.00
H1154  H     0.95360   0.11455   0.60087   0.00000  Uiso   1.00
H1155  H     0.93602   0.16398   0.60144   0.00000  Uiso   1.00
N1156  N     0.69973   0.21955   0.87662   0.00000  Uiso   1.00
H1157  H     0.70004   0.25121   0.87323   0.00000  Uiso   1.00
H1158  H     0.72514   0.21129   0.89363   0.00000  Uiso   1.00
N1159  N     0.99554   0.24795   0.96854   0.00000  Uiso   1.00
H1160  H     0.69376   0.23256   0.96960   0.00000  Uiso   1.00
H1161  H     0.67216   0.27392   0.94834   0.00000  Uiso   1.00
N1162  N     0.99311   0.14215   0.51386   0.00000  Uiso   1.00
H1163  H     0.98351   0.11180   0.52204   0.00000  Uiso   1.00
H1164  H     0.96158   0.15977   0.52257   0.00000  Uiso   1.00
N1165  N     0.82953   0.23982   0.58234   0.00000  Uiso   1.00
H1166  H     0.85452   0.24580   0.60030   0.00000  Uiso   1.00
C1167  C     0.80008   0.27493   0.57952   0.00000  Uiso   1.00
H1168  H     0.78449   0.28774   0.61398   0.00000  Uiso   1.00
H1169  H     0.76945   0.26629   0.56552   0.00000  Uiso   1.00
H1170  H     0.82276   0.29871   0.55759   0.00000  Uiso   1.00
N1171  N     0.81593   0.18306   0.89884   0.00000  Uiso   1.00
H1172  H     0.79333   0.16776   0.88328   0.00000  Uiso   1.00
C1173  C     0.82582   0.22465   0.88290   0.00000  Uiso   1.00
H1174  H     0.83250   0.22565   0.84542   0.00000  Uiso   1.00
H1175  H     0.85870   0.23684   0.89102   0.00000  Uiso   1.00
H1176  H     0.79448   0.24459   0.89884   0.00000  Uiso   1.00
N1177  N     0.92253   0.04050   0.72691   0.00000  Uiso   1.00
H1178  H     0.89904   0.05560   0.75356   0.00000  Uiso   1.00
C1179  C     0.92838   0.05665   0.68169   0.00000  Uiso   1.00
H1180  H     0.90095   0.04233   0.66691   0.00000  Uiso   1.00
H1181  H     0.96539   0.05063   0.65893   0.00000  Uiso   1.00
H1182  H     0.92215   0.08999   0.68350   0.00000  Uiso   1.00
N1183  N     0.75147   0.29144   0.75767   0.00000  Uiso   1.00
H1184  H     0.76569   0.30302   0.78263   0.00000  Uiso   1.00
C1185  C     0.78852   0.28201   0.71596   0.00000  Uiso   1.00
H1186  H     0.80433   0.30999   0.69755   0.00000  Uiso   1.00
H1187  H     0.77309   0.26334   0.69304   0.00000  Uiso   1.00
H1188  H     0.81831   0.26480   0.72416   0.00000  Uiso   1.00
N1189  N     0.92928   0.29032   0.71668   0.00000  Uiso   1.00
H1190  H     0.89481   0.30259   0.72668   0.00000  Uiso   1.00
C1191  C     0.94425   0.27960   0.66898   0.00000  Uiso   1.00
H1192  H     0.95315   0.30739   0.64758   0.00000  Uiso   1.00
H1193  H     0.91415   0.26323   0.65993   0.00000  Uiso   1.00
H1194  H     0.97660   0.25943   0.66157   0.00000  Uiso   1.00
N1195  N     0.74499   0.04110   0.77053   0.00000  Uiso   1.00
H1196  H     0.73463   0.06055   0.79791   0.00000  Uiso   1.00
C1197  C     0.78916   0.05150   0.73559   0.00000  Uiso   1.00
H1198  H     0.78578   0.04499   0.70095   0.00000  Uiso   1.00
H1199  H     0.81997   0.03403   0.74146   0.00000  Uiso   1.00
H1200  H     0.79751   0.08427   0.73697   0.00000  Uiso   1.00
C1201  C     0.33322   0.42062   0.75009   0.00000  Uiso   1.00
C1202  C     0.00110   0.57921   0.74740   0.00000  Uiso   1.00
C1203  C     0.18254   0.55285   0.54015   0.00000  Uiso   1.00
C1204  C     0.13716   0.51123   0.94699   0.00000  Uiso   1.00
C1205  C     0.23099   0.56135   0.51634   0.00000  Uiso   1.00
C1206  C     0.08927   0.50097   0.96995   0.00000  Uiso   1.00
C1207  C     0.29665   0.35405   0.73567   0.00000  Uiso   1.00
C1208  C     0.04310   0.64548   0.75159   0.00000  Uiso   1.00
C1209  C     0.29883   0.64498   0.73202   0.00000  Uiso   1.00
C1210  C     0.04067   0.35443   0.75611   0.00000  Uiso   1.00
C1211  C     0.00360   0.62377   0.74297   0.00000  Uiso   1.00
C1212  C     0.00060   0.37584   0.74836   0.00000  Uiso   1.00
C1213  C     0.18069   0.48426   0.78585   0.00000  Uiso   1.00
C1214  C     0.15283   0.51482   0.71369   0.00000  Uiso   1.00
C1215  C     0.13107   0.48478   0.78612   0.00000  Uiso   1.00
C1216  C     0.20229   0.51508   0.71385   0.00000  Uiso   1.00
C1217  C     0.30598   0.50249   0.83631   0.00000  Uiso   1.00
C1218  C     0.02735   0.49947   0.66341   0.00000  Uiso   1.00
C1219  C     0.29095   0.51377   0.88486   0.00000  Uiso   1.00
C1220  C     0.04190   0.49969   0.61308   0.00000  Uiso   1.00
C1221  C     0.30009   0.55523   0.94837   0.00000  Uiso   1.00
C1222  C     0.02511   0.48891   0.53992   0.00000  Uiso   1.00
C1223  C     0.31928   0.54014   0.90368   0.00000  Uiso   1.00
C1224  C     0.00905   0.48910   0.58784   0.00000  Uiso   1.00
C1225  C     0.24370   0.50401   0.90998   0.00000  Uiso   1.00
C1226  C     0.08969   0.51095   0.59016   0.00000  Uiso   1.00
C1227  C     0.22176   0.52345   0.95132   0.00000  Uiso   1.00
C1228  C     0.10514   0.51474   0.54260   0.00000  Uiso   1.00
C1229  C     0.25132   0.54637   0.97239   0.00000  Uiso   1.00
C1230  C     0.07311   0.50132   0.51742   0.00000  Uiso   1.00
C1231  C     0.17094   0.52031   0.97217   0.00000  Uiso   1.00
C1232  C     0.15281   0.52895   0.51925   0.00000  Uiso   1.00
Cu1233 Cu    0.04689   0.50001   0.75000   0.00000  Uiso   1.00
Cu1234 Cu    0.28645   0.49999   0.75000   0.00000  Uiso   1.00
H1235  H     0.25252   0.58024   0.53253   0.00000  Uiso   1.00
H1236  H     0.06448   0.49306   0.95011   0.00000  Uiso   1.00
H1237  H     0.11515   0.51545   0.61001   0.00000  Uiso   1.00
H1238  H     0.22359   0.48197   0.89598   0.00000  Uiso   1.00
H1239  H     0.19063   0.47109   0.81437   0.00000  Uiso   1.00
H1240  H     0.14322   0.52694   0.68452   0.00000  Uiso   1.00
H1241  H     0.10388   0.47215   0.81485   0.00000  Uiso   1.00
H1242  H     0.22950   0.52724   0.68490   0.00000  Uiso   1.00
N1243  N     0.11736   0.50001   0.74999   0.00000  Uiso   1.00
N1244  N     0.21597   0.49999   0.75001   0.00000  Uiso   1.00
O1245  O     0.03958   0.43989   0.75000   0.00000  Uiso   1.00
O1246  O     0.29375   0.56011   0.75000   0.00000  Uiso   1.00
O1247  O     0.29372   0.43988   0.75001   0.00000  Uiso   1.00
O1248  O     0.03961   0.56012   0.75000   0.00000  Uiso   1.00
O1249  O     0.01852   0.50001   0.81492   0.00000  Uiso   1.00
O1250  O     0.31481   0.49999   0.68509   0.00000  Uiso   1.00
O1251  O     0.27267   0.50000   0.81492   0.00000  Uiso   1.00
O1252  O     0.06067   0.50000   0.68508   0.00000  Uiso   1.00
N1253  N     0.29329   0.47734   0.61083   0.00000  Uiso   1.00
H1254  H     0.28694   0.44788   0.60087   0.00000  Uiso   1.00
H1255  H     0.26936   0.49731   0.60144   0.00000  Uiso   1.00
N1256  N     0.03307   0.55289   0.87662   0.00000  Uiso   1.00
H1257  H     0.03338   0.58455   0.87323   0.00000  Uiso   1.00
H1258  H     0.05848   0.54462   0.89363   0.00000  Uiso   1.00
N1259  N     0.32887   0.58128   0.96854   0.00000  Uiso   1.00
H1260  H     0.02709   0.56590   0.96960   0.00000  Uiso   1.00
H1261  H     0.00549   0.60725   0.94834   0.00000  Uiso   1.00
N1262  N     0.32644   0.47549   0.51386   0.00000  Uiso   1.00
H1263  H     0.31684   0.44513   0.52204   0.00000  Uiso   1.00
H1264  H     0.29491   0.49310   0.52257   0.00000  Uiso   1.00
N1265  N     0.16286   0.57315   0.58234   0.00000  Uiso   1.00
H1266  H     0.18785   0.57914   0.60030   0.00000  Uiso   1.00
C1267  C     0.13341   0.60826   0.57952   0.00000  Uiso   1.00
H1268  H     0.11782   0.62107   0.61398   0.00000  Uiso   1.00
H1269  H     0.10278   0.59962   0.56552   0.00000  Uiso   1.00
H1270  H     0.15609   0.63204   0.55759   0.00000  Uiso   1.00
N1271  N     0.14926   0.51639   0.89884   0.00000  Uiso   1.00
H1272  H     0.12666   0.50109   0.88328   0.00000  Uiso   1.00
C1273  C     0.15915   0.55798   0.88290   0.00000  Uiso   1.00
H1274  H     0.16583   0.55898   0.84542   0.00000  Uiso   1.00
H1275  H     0.19203   0.57017   0.89102   0.00000  Uiso   1.00
H1276  H     0.12781   0.57792   0.89884   0.00000  Uiso   1.00
N1277  N     0.25586   0.37384   0.72691   0.00000  Uiso   1.00
H1278  H     0.23238   0.38894   0.75356   0.00000  Uiso   1.00
C1279  C     0.26171   0.38998   0.68169   0.00000  Uiso   1.00
H1280  H     0.23429   0.37566   0.66691   0.00000  Uiso   1.00
H1281  H     0.29872   0.38396   0.65893   0.00000  Uiso   1.00
H1282  H     0.25548   0.42333   0.68350   0.00000  Uiso   1.00
N1283  N     0.08480   0.62478   0.75767   0.00000  Uiso   1.00
H1284  H     0.09903   0.63635   0.78263   0.00000  Uiso   1.00
C1285  C     0.12185   0.61534   0.71596   0.00000  Uiso   1.00
H1286  H     0.13767   0.64333   0.69755   0.00000  Uiso   1.00
H1287  H     0.10643   0.59667   0.69304   0.00000  Uiso   1.00
H1288  H     0.15165   0.59814   0.72416   0.00000  Uiso   1.00
N1289  N     0.26262   0.62365   0.71668   0.00000  Uiso   1.00
H1290  H     0.22814   0.63593   0.72668   0.00000  Uiso   1.00
C1291  C     0.27758   0.61294   0.66898   0.00000  Uiso   1.00
H1292  H     0.28648   0.64072   0.64758   0.00000  Uiso   1.00
H1293  H     0.24748   0.59656   0.65993   0.00000  Uiso   1.00
H1294  H     0.30993   0.59277   0.66157   0.00000  Uiso   1.00
N1295  N     0.07832   0.37444   0.77053   0.00000  Uiso   1.00
H1296  H     0.06797   0.39389   0.79791   0.00000  Uiso   1.00
C1297  C     0.12250   0.38483   0.73559   0.00000  Uiso   1.00
H1298  H     0.11911   0.37833   0.70095   0.00000  Uiso   1.00
H1299  H     0.15331   0.36736   0.74146   0.00000  Uiso   1.00
H1300  H     0.13084   0.41760   0.73697   0.00000  Uiso   1.00
C1301  C     0.66656   0.42062   0.75009   0.00000  Uiso   1.00
C1302  C     0.33443   0.57921   0.74740   0.00000  Uiso   1.00
C1303  C     0.51588   0.55285   0.54015   0.00000  Uiso   1.00
C1304  C     0.47049   0.51123   0.94699   0.00000  Uiso   1.00
C1305  C     0.56432   0.56135   0.51634   0.00000  Uiso   1.00
C1306  C     0.42261   0.50097   0.96995   0.00000  Uiso   1.00
C1307  C     0.62998   0.35405   0.73567   0.00000  Uiso   1.00
C1308  C     0.37643   0.64548   0.75159   0.00000  Uiso   1.00
C1309  C     0.63216   0.64498   0.73202   0.00000  Uiso   1.00
C1310  C     0.37401   0.35443   0.75611   0.00000  Uiso   1.00
C1311  C     0.33694   0.62377   0.74297   0.00000  Uiso   1.00
C1312  C     0.33394   0.37584   0.74836   0.00000  Uiso   1.00
C1313  C     0.51403   0.48426   0.78585   0.00000  Uiso   1.00
C1314  C     0.48616   0.51482   0.71369   0.00000  Uiso   1.00
C1315  C     0.46440   0.48478   0.78612   0.00000  Uiso   1.00
C1316  C     0.53562   0.51508   0.71385   0.00000  Uiso   1.00
C1317  C     0.63932   0.50249   0.83631   0.00000  Uiso   1.00
C1318  C     0.36069   0.49947   0.66341   0.00000  Uiso   1.00
C1319  C     0.62428   0.51377   0.88486   0.00000  Uiso   1.00
C1320  C     0.37524   0.49969   0.61308   0.00000  Uiso   1.00
C1321  C     0.63342   0.55523   0.94837   0.00000  Uiso   1.00
C1322  C     0.35845   0.48891   0.53992   0.00000  Uiso   1.00
C1323  C     0.65261   0.54014   0.90368   0.00000  Uiso   1.00
C1324  C     0.34238   0.48910   0.58784   0.00000  Uiso   1.00
C1325  C     0.57704   0.50401   0.90998   0.00000  Uiso   1.00
C1326  C     0.42302   0.51095   0.59016   0.00000  Uiso   1.00
C1327  C     0.55509   0.52345   0.95132   0.00000  Uiso   1.00
C1328  C     0.43847   0.51474   0.54260   0.00000  Uiso   1.00
C1329  C     0.58465   0.54637   0.97239   0.00000  Uiso   1.00
C1330  C     0.40644   0.50132   0.51742   0.00000  Uiso   1.00
C1331  C     0.50427   0.52031   0.97217   0.00000  Uiso   1.00
C1332  C     0.48614   0.52895   0.51925   0.00000  Uiso   1.00
Cu1333 Cu    0.38022   0.50001   0.75000   0.00000  Uiso   1.00
Cu1334 Cu    0.61978   0.49999   0.75000   0.00000  Uiso   1.00
H1335  H     0.58586   0.58024   0.53253   0.00000  Uiso   1.00
H1336  H     0.39782   0.49306   0.95011   0.00000  Uiso   1.00
H1337  H     0.44848   0.51545   0.61001   0.00000  Uiso   1.00
H1338  H     0.55692   0.48197   0.89598   0.00000  Uiso   1.00
H1339  H     0.52396   0.47109   0.81437   0.00000  Uiso   1.00
H1340  H     0.47656   0.52694   0.68452   0.00000  Uiso   1.00
H1341  H     0.43721   0.47215   0.81485   0.00000  Uiso   1.00
H1342  H     0.56284   0.52724   0.68490   0.00000  Uiso   1.00
N1343  N     0.45069   0.50001   0.74999   0.00000  Uiso   1.00
N1344  N     0.54931   0.49999   0.75001   0.00000  Uiso   1.00
O1345  O     0.37291   0.43989   0.75000   0.00000  Uiso   1.00
O1346  O     0.62709   0.56011   0.75000   0.00000  Uiso   1.00
O1347  O     0.62706   0.43988   0.75001   0.00000  Uiso   1.00
O1348  O     0.37294   0.56012   0.75000   0.00000  Uiso   1.00
O1349  O     0.35186   0.50001   0.81492   0.00000  Uiso   1.00
O1350  O     0.64814   0.49999   0.68509   0.00000  Uiso   1.00
O1351  O     0.60600   0.50000   0.81492   0.00000  Uiso   1.00
O1352  O     0.39400   0.50000   0.68508   0.00000  Uiso   1.00
N1353  N     0.62662   0.47734   0.61083   0.00000  Uiso   1.00
H1354  H     0.62027   0.44788   0.60087   0.00000  Uiso   1.00
H1355  H     0.60269   0.49731   0.60144   0.00000  Uiso   1.00
N1356  N     0.36640   0.55289   0.87662   0.00000  Uiso   1.00
H1357  H     0.36671   0.58455   0.87323   0.00000  Uiso   1.00
H1358  H     0.39181   0.54462   0.89363   0.00000  Uiso   1.00
N1359  N     0.66220   0.58128   0.96854   0.00000  Uiso   1.00
H1360  H     0.36043   0.56590   0.96960   0.00000  Uiso   1.00
H1361  H     0.33883   0.60725   0.94834   0.00000  Uiso   1.00
N1362  N     0.65978   0.47549   0.51386   0.00000  Uiso   1.00
H1363  H     0.65017   0.44513   0.52204   0.00000  Uiso   1.00
H1364  H     0.62824   0.49310   0.52257   0.00000  Uiso   1.00
N1365  N     0.49620   0.57315   0.58234   0.00000  Uiso   1.00
H1366  H     0.52118   0.57914   0.60030   0.00000  Uiso   1.00
C1367  C     0.46674   0.60826   0.57952   0.00000  Uiso   1.00
H1368  H     0.45115   0.62107   0.61398   0.00000  Uiso   1.00
H1369  H     0.43611   0.59962   0.56552   0.00000  Uiso   1.00
H1370  H     0.48943   0.63204   0.55759   0.00000  Uiso   1.00
N1371  N     0.48260   0.51639   0.89884   0.00000  Uiso   1.00
H1372  H     0.46000   0.50109   0.88328   0.00000  Uiso   1.00
C1373  C     0.49248   0.55798   0.88290   0.00000  Uiso   1.00
H1374  H     0.49916   0.55898   0.84542   0.00000  Uiso   1.00
H1375  H     0.52536   0.57017   0.89102   0.00000  Uiso   1.00
H1376  H     0.46114   0.57792   0.89884   0.00000  Uiso   1.00
N1377  N     0.58920   0.37384   0.72691   0.00000  Uiso   1.00
H1378  H     0.56571   0.38894   0.75356   0.00000  Uiso   1.00
C1379  C     0.59504   0.38998   0.68169   0.00000  Uiso   1.00
H1380  H     0.56762   0.37566   0.66691   0.00000  Uiso   1.00
H1381  H     0.63206   0.38396   0.65893   0.00000  Uiso   1.00
H1382  H     0.58882   0.42333   0.68350   0.00000  Uiso   1.00
N1383  N     0.41813   0.62478   0.75767   0.00000  Uiso   1.00
H1384  H     0.43236   0.63635   0.78263   0.00000  Uiso   1.00
C1385  C     0.45518   0.61534   0.71596   0.00000  Uiso   1.00
H1386  H     0.47100   0.64333   0.69755   0.00000  Uiso   1.00
H1387  H     0.43976   0.59667   0.69304   0.00000  Uiso   1.00
H1388  H     0.48498   0.59814   0.72416   0.00000  Uiso   1.00
N1389  N     0.59595   0.62365   0.71668   0.00000  Uiso   1.00
H1390  H     0.56147   0.63593   0.72668   0.00000  Uiso   1.00
C1391  C     0.61091   0.61294   0.66898   0.00000  Uiso   1.00
H1392  H     0.61981   0.64072   0.64758   0.00000  Uiso   1.00
H1393  H     0.58082   0.59656   0.65993   0.00000  Uiso   1.00
H1394  H     0.64327   0.59277   0.66157   0.00000  Uiso   1.00
N1395  N     0.41165   0.37444   0.77053   0.00000  Uiso   1.00
H1396  H     0.40130   0.39389   0.79791   0.00000  Uiso   1.00
C1397  C     0.45583   0.38483   0.73559   0.00000  Uiso   1.00
H1398  H     0.45245   0.37833   0.70095   0.00000  Uiso   1.00
H1399  H     0.48664   0.36736   0.74146   0.00000  Uiso   1.00
H1400  H     0.46417   0.41760   0.73697   0.00000  Uiso   1.00
C1401  C     0.99989   0.42062   0.75009   0.00000  Uiso   1.00
C1402  C     0.66777   0.57921   0.74740   0.00000  Uiso   1.00
C1403  C     0.84921   0.55285   0.54015   0.00000  Uiso   1.00
C1404  C     0.80383   0.51123   0.94699   0.00000  Uiso   1.00
C1405  C     0.89765   0.56135   0.51634   0.00000  Uiso   1.00
C1406  C     0.75594   0.50097   0.96995   0.00000  Uiso   1.00
C1407  C     0.96332   0.35405   0.73567   0.00000  Uiso   1.00
C1408  C     0.70977   0.64548   0.75159   0.00000  Uiso   1.00
C1409  C     0.96549   0.64498   0.73202   0.00000  Uiso   1.00
C1410  C     0.70734   0.35443   0.75611   0.00000  Uiso   1.00
C1411  C     0.67027   0.62377   0.74297   0.00000  Uiso   1.00
C1412  C     0.66727   0.37584   0.74836   0.00000  Uiso   1.00
C1413  C     0.84736   0.48426   0.78585   0.00000  Uiso   1.00
C1414  C     0.81949   0.51482   0.71369   0.00000  Uiso   1.00
C1415  C     0.79773   0.48478   0.78612   0.00000  Uiso   1.00
C1416  C     0.86896   0.51508   0.71385   0.00000  Uiso   1.00
C1417  C     0.97265   0.50249   0.83631   0.00000  Uiso   1.00
C1418  C     0.69402   0.49947   0.66341   0.00000  Uiso   1.00
C1419  C     0.95762   0.51377   0.88486   0.00000  Uiso   1.00
C1420  C     0.70857   0.49969   0.61308   0.00000  Uiso   1.00
C1421  C     0.96676   0.55523   0.94837   0.00000  Uiso   1.00
C1422  C     0.69178   0.48891   0.53992   0.00000  Uiso   1.00
C1423  C     0.98594   0.54014   0.90368   0.00000  Uiso   1.00
C1424  C     0.67572   0.48910   0.58784   0.00000  Uiso   1.00
C1425  C     0.91037   0.50401   0.90998   0.00000  Uiso   1.00
C1426  C     0.75636   0.51095   0.59016   0.00000  Uiso   1.00
C1427  C     0.88843   0.52345   0.95132   0.00000  Uiso   1.00
C1428  C     0.77180   0.51474   0.54260   0.00000  Uiso   1.00
C1429  C     0.91798   0.54637   0.97239   0.00000  Uiso   1.00
C1430  C     0.73977   0.50132   0.51742   0.00000  Uiso   1.00
C1431  C     0.83760   0.52031   0.97217   0.00000  Uiso   1.00
C1432  C     0.81948   0.52895   0.51925   0.00000  Uiso   1.00
Cu1433 Cu    0.71355   0.50001   0.75000   0.00000  Uiso   1.00
Cu1434 Cu    0.95311   0.49999   0.75000   0.00000  Uiso   1.00
H1435  H     0.91919   0.58024   0.53253   0.00000  Uiso   1.00
H1436  H     0.73115   0.49306   0.95011   0.00000  Uiso   1.00
H1437  H     0.78181   0.51545   0.61001   0.00000  Uiso   1.00
H1438  H     0.89026   0.48197   0.89598   0.00000  Uiso   1.00
H1439  H     0.85730   0.47109   0.81437   0.00000  Uiso   1.00
H1440  H     0.80989   0.52694   0.68452   0.00000  Uiso   1.00
H1441  H     0.77055   0.47215   0.81485   0.00000  Uiso   1.00
H1442  H     0.89617   0.52724   0.68490   0.00000  Uiso   1.00
N1443  N     0.78403   0.50001   0.74999   0.00000  Uiso   1.00
N1444  N     0.88264   0.49999   0.75001   0.00000  Uiso   1.00
O1445  O     0.70625   0.43989   0.75000   0.00000  Uiso   1.00
O1446  O     0.96042   0.56011   0.75000   0.00000  Uiso   1.00
O1447  O     0.96039   0.43988   0.75001   0.00000  Uiso   1.00
O1448  O     0.70628   0.56012   0.75000   0.00000  Uiso   1.00
O1449  O     0.68519   0.50001   0.81492   0.00000  Uiso   1.00
O1450  O     0.98148   0.49999   0.68509   0.00000  Uiso   1.00
O1451  O     0.93933   0.50000   0.81492   0.00000  Uiso   1.00
O1452  O     0.72733   0.50000   0.68508   0.00000  Uiso   1.00
N1453  N     0.95996   0.47734   0.61083   0.00000  Uiso   1.00
H1454  H     0.95360   0.44788   0.60087   0.00000  Uiso   1.00
H1455  H     0.93602   0.49731   0.60144   0.00000  Uiso   1.00
N1456  N     0.69973   0.55289   0.87662   0.00000  Uiso   1.00
H1457  H     0.70004   0.58455   0.87323   0.00000  Uiso   1.00
H1458  H     0.72514   0.54462   0.89363   0.00000  Uiso   1.00
N1459  N     0.99554   0.58128   0.96854   0.00000  Uiso   1.00
H1460  H     0.69376   0.56590   0.96960   0.00000  Uiso   1.00
H1461  H     0.67216   0.60725   0.94834   0.00000  Uiso   1.00
N1462  N     0.99311   0.47549   0.51386   0.00000  Uiso   1.00
H1463  H     0.98351   0.44513   0.52204   0.00000  Uiso   1.00
H1464  H     0.96158   0.49310   0.52257   0.00000  Uiso   1.00
N1465  N     0.82953   0.57315   0.58234   0.00000  Uiso   1.00
H1466  H     0.85452   0.57914   0.60030   0.00000  Uiso   1.00
C1467  C     0.80008   0.60826   0.57952   0.00000  Uiso   1.00
H1468  H     0.78449   0.62107   0.61398   0.00000  Uiso   1.00
H1469  H     0.76945   0.59962   0.56552   0.00000  Uiso   1.00
H1470  H     0.82276   0.63204   0.55759   0.00000  Uiso   1.00
N1471  N     0.81593   0.51639   0.89884   0.00000  Uiso   1.00
H1472  H     0.79333   0.50109   0.88328   0.00000  Uiso   1.00
C1473  C     0.82582   0.55798   0.88290   0.00000  Uiso   1.00
H1474  H     0.83250   0.55898   0.84542   0.00000  Uiso   1.00
H1475  H     0.85870   0.57017   0.89102   0.00000  Uiso   1.00
H1476  H     0.79448   0.57792   0.89884   0.00000  Uiso   1.00
N1477  N     0.92253   0.37384   0.72691   0.00000  Uiso   1.00
H1478  H     0.89904   0.38894   0.75356   0.00000  Uiso   1.00
C1479  C     0.92838   0.38998   0.68169   0.00000  Uiso   1.00
H1480  H     0.90095   0.37566   0.66691   0.00000  Uiso   1.00
H1481  H     0.96539   0.38396   0.65893   0.00000  Uiso   1.00
H1482  H     0.92215   0.42333   0.68350   0.00000  Uiso   1.00
N1483  N     0.75147   0.62478   0.75767   0.00000  Uiso   1.00
H1484  H     0.76569   0.63635   0.78263   0.00000  Uiso   1.00
C1485  C     0.78852   0.61534   0.71596   0.00000  Uiso   1.00
H1486  H     0.80433   0.64333   0.69755   0.00000  Uiso   1.00
H1487  H     0.77309   0.59667   0.69304   0.00000  Uiso   1.00
H1488  H     0.81831   0.59814   0.72416   0.00000  Uiso   1.00
N1489  N     0.92928   0.62365   0.71668   0.00000  Uiso   1.00
H1490  H     0.89481   0.63593   0.72668   0.00000  Uiso   1.00
C1491  C     0.94425   0.61294   0.66898   0.00000  Uiso   1.00
H1492  H     0.95315   0.64072   0.64758   0.00000  Uiso   1.00
H1493  H     0.91415   0.59656   0.65993   0.00000  Uiso   1.00
H1494  H     0.97660   0.59277   0.66157   0.00000  Uiso   1.00
N1495  N     0.74499   0.37444   0.77053   0.00000  Uiso   1.00
H1496  H     0.73463   0.39389   0.79791   0.00000  Uiso   1.00
C1497  C     0.78916   0.38483   0.73559   0.00000  Uiso   1.00
H1498  H     0.78578   0.37833   0.70095   0.00000  Uiso   1.00
H1499  H     0.81997   0.36736   0.74146   0.00000  Uiso   1.00
H1500  H     0.79751   0.41760   0.73697   0.00000  Uiso   1.00
C1501  C     0.33322   0.75395   0.75009   0.00000  Uiso   1.00
C1502  C     0.00110   0.91254   0.74740   0.00000  Uiso   1.00
C1503  C     0.18254   0.88619   0.54015   0.00000  Uiso   1.00
C1504  C     0.13716   0.84457   0.94699   0.00000  Uiso   1.00
C1505  C     0.23099   0.89469   0.51634   0.00000  Uiso   1.00
C1506  C     0.08927   0.83430   0.96995   0.00000  Uiso   1.00
C1507  C     0.29665   0.68738   0.73567   0.00000  Uiso   1.00
C1508  C     0.04310   0.97881   0.75159   0.00000  Uiso   1.00
C1509  C     0.29883   0.97831   0.73202   0.00000  Uiso   1.00
C1510  C     0.04067   0.68776   0.75611   0.00000  Uiso   1.00
C1511  C     0.00360   0.95711   0.74297   0.00000  Uiso   1.00
C1512  C     0.00060   0.70917   0.74836   0.00000  Uiso   1.00
C1513  C     0.18069   0.81759   0.78585   0.00000  Uiso   1.00
C1514  C     0.15283   0.84816   0.71369   0.00000  Uiso   1.00
C1515  C     0.13107   0.81812   0.78612   0.00000  Uiso   1.00
C1516  C     0.20229   0.84842   0.71385   0.00000  Uiso   1.00
C1517  C     0.30598   0.83583   0.83631   0.00000  Uiso   1.00
C1518  C     0.02735   0.83280   0.66341   0.00000  Uiso   1.00
C1519  C     0.29095   0.84710   0.88486   0.00000  Uiso   1.00
C1520  C     0.04190   0.83303   0.61308   0.00000  Uiso   1.00
C1521  C     0.30009   0.88856   0.94837   0.00000  Uiso   1.00
C1522  C     0.02511   0.82224   0.53992   0.00000  Uiso   1.00
C1523  C     0.31928   0.87347   0.90368   0.00000  Uiso   1.00
C1524  C     0.00905   0.82243   0.58784   0.00000  Uiso   1.00
C1525  C     0.24370   0.83734   0.90998   0.00000  Uiso   1.00
C1526  C     0.08969   0.84428   0.59016   0.00000  Uiso   1.00
C1527  C     0.22176   0.85679   0.95132   0.00000  Uiso   1.00
C1528  C     0.10514   0.84807   0.54260   0.00000  Uiso   1.00
C1529  C     0.25132   0.87970   0.97239   0.00000  Uiso   1.00
C1530  C     0.07311   0.83466   0.51742   0.00000  Uiso   1.00
C1531  C     0.17094   0.85364   0.97217   0.00000  Uiso   1.00
C1532  C     0.15281   0.86229   0.51925   0.00000  Uiso   1.00
Cu1533 Cu    0.04689   0.83334   0.75000   0.00000  Uiso   1.00
Cu1534 Cu    0.28645   0.83333   0.75000   0.00000  Uiso   1.00
H1535  H     0.25252   0.91358   0.53253   0.00000  Uiso   1.00
H1536  H     0.06448   0.82639   0.95011   0.00000  Uiso   1.00
H1537  H     0.11515   0.84878   0.61001   0.00000  Uiso   1.00
H1538  H     0.22359   0.81530   0.89598   0.00000  Uiso   1.00
H1539  H     0.19063   0.80443   0.81437   0.00000  Uiso   1.00
H1540  H     0.14322   0.86027   0.68452   0.00000  Uiso   1.00
H1541  H     0.10388   0.80548   0.81485   0.00000  Uiso   1.00
H1542  H     0.22950   0.86058   0.68490   0.00000  Uiso   1.00
N1543  N     0.11736   0.83334   0.74999   0.00000  Uiso   1.00
N1544  N     0.21597   0.83332   0.75001   0.00000  Uiso   1.00
O1545  O     0.03958   0.77322   0.75000   0.00000  Uiso   1.00
O1546  O     0.29375   0.89345   0.75000   0.00000  Uiso   1.00
O1547  O     0.29372   0.77321   0.75001   0.00000  Uiso   1.00
O1548  O     0.03961   0.89346   0.75000   0.00000  Uiso   1.00
O1549  O     0.01852   0.83334   0.81492   0.00000  Uiso   1.00
O1550  O     0.31481   0.83332   0.68509   0.00000  Uiso   1.00
O1551  O     0.27267   0.83333   0.81492   0.00000  Uiso   1.00
O1552  O     0.06067   0.83333   0.68508   0.00000  Uiso   1.00
N1553  N     0.29329   0.81067   0.61083   0.00000  Uiso   1.00
H1554  H     0.28694   0.78122   0.60087   0.00000  Uiso   1.00
H1555  H     0.26936   0.83064   0.60144   0.00000  Uiso   1.00
N1556  N     0.03307   0.88622   0.87662   0.00000  Uiso   1.00
H1557  H     0.03338   0.91788   0.87323   0.00000  Uiso   1.00
H1558  H     0.05848   0.87796   0.89363   0.00000  Uiso   1.00
N1559  N     0.32887   0.91461   0.96854   0.00000  Uiso   1.00
H1560  H     0.02709   0.89923   0.96960   0.00000  Uiso   1.00
H1561  H     0.00549   0.94058   0.94834   0.00000  Uiso   1.00
N1562  N     0.32644   0.80882   0.51386   0.00000  Uiso   1.00
H1563  H     0.31684   0.77847   0.52204   0.00000  Uiso   1.00
H1564  H     0.29491   0.82643   0.52257   0.00000  Uiso   1.00
N1565  N     0.16286   0.90648   0.58234   0.00000  Uiso   1.00
H1566  H     0.18785   0.91247   0.60030   0.00000  Uiso   1.00
C1567  C     0.13341   0.94159   0.57952   0.00000  Uiso   1.00
H1568  H     0.11782   0.95441   0.61398   0.00000  Uiso   1.00
H1569  H     0.10278   0.93295   0.56552   0.00000  Uiso   1.00
H1570  H     0.15609   0.96537   0.55759   0.00000  Uiso   1.00
N1571  N     0.14926   0.84973   0.89884   0.00000  Uiso   1.00
H1572  H     0.12666   0.83443   0.88328   0.00000  Uiso   1.00
C1573  C     0.15915   0.89131   0.88290   0.00000  Uiso   1.00
H1574  H     0.16583   0.89232   0.84542   0.00000  Uiso   1.00
H1575  H     0.19203   0.90351   0.89102   0.00000  Uiso   1.00
H1576  H     0.12781   0.91125   0.89884   0.00000  Uiso   1.00
N1577  N     0.25586   0.70717   0.72691   0.00000  Uiso   1.00
H1578  H     0.23238   0.72227   0.75356   0.00000  Uiso   1.00
C1579  C     0.26171   0.72332   0.68169   0.00000  Uiso   1.00
H1580  H     0.23429   0.70900   0.66691   0.00000  Uiso   1.00
H1581  H     0.29872   0.71729   0.65893   0.00000  Uiso   1.00
H1582  H     0.25548   0.75666   0.68350   0.00000  Uiso   1.00
N1583  N     0.08480   0.95811   0.75767   0.00000  Uiso   1.00
H1584  H     0.09903   0.96969   0.78263   0.00000  Uiso   1.00
C1585  C     0.12185   0.94868   0.71596   0.00000  Uiso   1.00
H1586  H     0.13767   0.97666   0.69755   0.00000  Uiso   1.00
H1587  H     0.10643   0.93001   0.69304   0.00000  Uiso   1.00
H1588  H     0.15165   0.93147   0.72416   0.00000  Uiso   1.00
N1589  N     0.26262   0.95699   0.71668   0.00000  Uiso   1.00
H1590  H     0.22814   0.96926   0.72668   0.00000  Uiso   1.00
C1591  C     0.27758   0.94627   0.66898   0.00000  Uiso   1.00
H1592  H     0.28648   0.97406   0.64758   0.00000  Uiso   1.00
H1593  H     0.24748   0.92989   0.65993   0.00000  Uiso   1.00
H1594  H     0.30993   0.92610   0.66157   0.00000  Uiso   1.00
N1595  N     0.07832   0.70777   0.77053   0.00000  Uiso   1.00
H1596  H     0.06797   0.72722   0.79791   0.00000  Uiso   1.00
C1597  C     0.12250   0.71817   0.73559   0.00000  Uiso   1.00
H1598  H     0.11911   0.71166   0.70095   0.00000  Uiso   1.00
H1599  H     0.15331   0.70070   0.74146   0.00000  Uiso   1.00
H1600  H     0.13084   0.75093   0.73697   0.00000  Uiso   1.00
C1601  C     0.66656   0.75395   0.75009   0.00000  Uiso   1.00
C1602  C     0.33443   0.91254   0.74740   0.00000  Uiso   1.00
C1603  C     0.51588   0.88619   0.54015   0.00000  Uiso   1.00
C1604  C     0.47049   0.84457   0.94699   0.00000  Uiso   1.00
C1605  C     0.56432   0.89469   0.51634   0.00000  Uiso   1.00
C1606  C     0.42261   0.83430   0.96995   0.00000  Uiso   1.00
C1607  C     0.62998   0.68738   0.73567   0.00000  Uiso   1.00
C1608  C     0.37643   0.97881   0.75159   0.00000  Uiso   1.00
C1609  C     0.63216   0.97831   0.73202   0.00000  Uiso   1.00
C1610  C     0.37401   0.68776   0.75611   0.00000  Uiso   1.00
C1611  C     0.33694   0.95711   0.74297   0.00000  Uiso   1.00
C1612  C     0.33394   0.70917   0.74836   0.00000  Uiso   1.00
C1613  C     0.51403   0.81759   0.78585   0.00000  Uiso   1.00
C1614  C     0.48616   0.84816   0.71369   0.00000  Uiso   1.00
C1615  C     0.46440   0.81812   0.78612   0.00000  Uiso   1.00
C1616  C     0.53562   0.84842   0.71385   0.00000  Uiso   1.00
C1617  C     0.63932   0.83583   0.83631   0.00000  Uiso   1.00
C1618  C     0.36069   0.83280   0.66341   0.00000  Uiso   1.00
C1619  C     0.62428   0.84710   0.88486   0.00000  Uiso   1.00
C1620  C     0.37524   0.83303   0.61308   0.00000  Uiso   1.00
C1621  C     0.63342   0.88856   0.94837   0.00000  Uiso   1.00
C1622  C     0.35845   0.82224   0.53992   0.00000  Uiso   1.00
C1623  C     0.65261   0.87347   0.90368   0.00000  Uiso   1.00
C1624  C     0.34238   0.82243   0.58784   0.00000  Uiso   1.00
C1625  C     0.57704   0.83734   0.90998   0.00000  Uiso   1.00
C1626  C     0.42302   0.84428   0.59016   0.00000  Uiso   1.00
C1627  C     0.55509   0.85679   0.95132   0.00000  Uiso   1.00
C1628  C     0.43847   0.84807   0.54260   0.00000  Uiso   1.00
C1629  C     0.58465   0.87970   0.97239   0.00000  Uiso   1.00
C1630  C     0.40644   0.83466   0.51742   0.00000  Uiso   1.00
C1631  C     0.50427   0.85364   0.97217   0.00000  Uiso   1.00
C1632  C     0.48614   0.86229   0.51925   0.00000  Uiso   1.00
Cu1633 Cu    0.38022   0.83334   0.75000   0.00000  Uiso   1.00
Cu1634 Cu    0.61978   0.83333   0.75000   0.00000  Uiso   1.00
H1635  H     0.58586   0.91358   0.53253   0.00000  Uiso   1.00
H1636  H     0.39782   0.82639   0.95011   0.00000  Uiso   1.00
H1637  H     0.44848   0.84878   0.61001   0.00000  Uiso   1.00
H1638  H     0.55692   0.81530   0.89598   0.00000  Uiso   1.00
H1639  H     0.52396   0.80443   0.81437   0.00000  Uiso   1.00
H1640  H     0.47656   0.86027   0.68452   0.00000  Uiso   1.00
H1641  H     0.43721   0.80548   0.81485   0.00000  Uiso   1.00
H1642  H     0.56284   0.86058   0.68490   0.00000  Uiso   1.00
N1643  N     0.45069   0.83334   0.74999   0.00000  Uiso   1.00
N1644  N     0.54931   0.83332   0.75001   0.00000  Uiso   1.00
O1645  O     0.37291   0.77322   0.75000   0.00000  Uiso   1.00
O1646  O     0.62709   0.89345   0.75000   0.00000  Uiso   1.00
O1647  O     0.62706   0.77321   0.75001   0.00000  Uiso   1.00
O1648  O     0.37294   0.89346   0.75000   0.00000  Uiso   1.00
O1649  O     0.35186   0.83334   0.81492   0.00000  Uiso   1.00
O1650  O     0.64814   0.83332   0.68509   0.00000  Uiso   1.00
O1651  O     0.60600   0.83333   0.81492   0.00000  Uiso   1.00
O1652  O     0.39400   0.83333   0.68508   0.00000  Uiso   1.00
N1653  N     0.62662   0.81067   0.61083   0.00000  Uiso   1.00
H1654  H     0.62027   0.78122   0.60087   0.00000  Uiso   1.00
H1655  H     0.60269   0.83064   0.60144   0.00000  Uiso   1.00
N1656  N     0.36640   0.88622   0.87662   0.00000  Uiso   1.00
H1657  H     0.36671   0.91788   0.87323   0.00000  Uiso   1.00
H1658  H     0.39181   0.87796   0.89363   0.00000  Uiso   1.00
N1659  N     0.66220   0.91461   0.96854   0.00000  Uiso   1.00
H1660  H     0.36043   0.89923   0.96960   0.00000  Uiso   1.00
H1661  H     0.33883   0.94058   0.94834   0.00000  Uiso   1.00
N1662  N     0.65978   0.80882   0.51386   0.00000  Uiso   1.00
H1663  H     0.65017   0.77847   0.52204   0.00000  Uiso   1.00
H1664  H     0.62824   0.82643   0.52257   0.00000  Uiso   1.00
N1665  N     0.49620   0.90648   0.58234   0.00000  Uiso   1.00
H1666  H     0.52118   0.91247   0.60030   0.00000  Uiso   1.00
C1667  C     0.46674   0.94159   0.57952   0.00000  Uiso   1.00
H1668  H     0.45115   0.95441   0.61398   0.00000  Uiso   1.00
H1669  H     0.43611   0.93295   0.56552   0.00000  Uiso   1.00
H1670  H     0.48943   0.96537   0.55759   0.00000  Uiso   1.00
N1671  N     0.48260   0.84973   0.89884   0.00000  Uiso   1.00
H1672  H     0.46000   0.83443   0.88328   0.00000  Uiso   1.00
C1673  C     0.49248   0.89131   0.88290   0.00000  Uiso   1.00
H1674  H     0.49916   0.89232   0.84542   0.00000  Uiso   1.00
H1675  H     0.52536   0.90351   0.89102   0.00000  Uiso   1.00
H1676  H     0.46114   0.91125   0.89884   0.00000  Uiso   1.00
N1677  N     0.58920   0.70717   0.72691   0.00000  Uiso   1.00
H1678  H     0.56571   0.72227   0.75356   0.00000  Uiso   1.00
C1679  C     0.59504   0.72332   0.68169   0.00000  Uiso   1.00
H1680  H     0.56762   0.70900   0.66691   0.00000  Uiso   1.00
H1681  H     0.63206   0.71729   0.65893   0.00000  Uiso   1.00
H1682  H     0.58882   0.75666   0.68350   0.00000  Uiso   1.00
N1683  N     0.41813   0.95811   0.75767   0.00000  Uiso   1.00
H1684  H     0.43236   0.96969   0.78263   0.00000  Uiso   1.00
C1685  C     0.45518   0.94868   0.71596   0.00000  Uiso   1.00
H1686  H     0.47100   0.97666   0.69755   0.00000  Uiso   1.00
H1687  H     0.43976   0.93001   0.69304   0.00000  Uiso   1.00
H1688  H     0.48498   0.93147   0.72416   0.00000  Uiso   1.00
N1689  N     0.59595   0.95699   0.71668   0.00000  Uiso   1.00
H1690  H     0.56147   0.96926   0.72668   0.00000  Uiso   1.00
C1691  C     0.61091   0.94627   0.66898   0.00000  Uiso   1.00
H1692  H     0.61981   0.97406   0.64758   0.00000  Uiso   1.00
H1693  H     0.58082   0.92989   0.65993   0.00000  Uiso   1.00
H1694  H     0.64327   0.92610   0.66157   0.00000  Uiso   1.00
N1695  N     0.41165   0.70777   0.77053   0.00000  Uiso   1.00
H1696  H     0.40130   0.72722   0.79791   0.00000  Uiso   1.00
C1697  C     0.45583   0.71817   0.73559   0.00000  Uiso   1.00
H1698  H     0.45245   0.71166   0.70095   0.00000  Uiso   1.00
H1699  H     0.48664   0.70070   0.74146   0.00000  Uiso   1.00
H1700  H     0.46417   0.75093   0.73697   0.00000  Uiso   1.00
C1701  C     0.99989   0.75395   0.75009   0.00000  Uiso   1.00
C1702  C     0.66777   0.91254   0.74740   0.00000  Uiso   1.00
C1703  C     0.84921   0.88619   0.54015   0.00000  Uiso   1.00
C1704  C     0.80383   0.84457   0.94699   0.00000  Uiso   1.00
C1705  C     0.89765   0.89469   0.51634   0.00000  Uiso   1.00
C1706  C     0.75594   0.83430   0.96995   0.00000  Uiso   1.00
C1707  C     0.96332   0.68738   0.73567   0.00000  Uiso   1.00
C1708  C     0.70977   0.97881   0.75159   0.00000  Uiso   1.00
C1709  C     0.96549   0.97831   0.73202   0.00000  Uiso   1.00
C1710  C     0.70734   0.68776   0.75611   0.00000  Uiso   1.00
C1711  C     0.67027   0.95711   0.74297   0.00000  Uiso   1.00
C1712  C     0.66727   0.70917   0.74836   0.00000  Uiso   1.00
C1713  C     0.84736   0.81759   0.78585   0.00000  Uiso   1.00
C1714  C     0.81949   0.84816   0.71369   0.00000  Uiso   1.00
C1715  C     0.79773   0.81812   0.78612   0.00000  Uiso   1.00
C1716  C     0.86896   0.84842   0.71385   0.00000  Uiso   1.00
C1717  C     0.97265   0.83583   0.83631   0.00000  Uiso   1.00
C1718  C     0.69402   0.83280   0.66341   0.00000  Uiso   1.00
C1719  C     0.95762   0.84710   0.88486   0.00000  Uiso   1.00
C1720  C     0.70857   0.83303   0.61308   0.00000  Uiso   1.00
C1721  C     0.96676   0.88856   0.94837   0.00000  Uiso   1.00
C1722  C     0.69178   0.82224   0.53992   0.00000  Uiso   1.00
C1723  C     0.98594   0.87347   0.90368   0.00000  Uiso   1.00
C1724  C     0.67572   0.82243   0.58784   0.00000  Uiso   1.00
C1725  C     0.91037   0.83734   0.90998   0.00000  Uiso   1.00
C1726  C     0.75636   0.84428   0.59016   0.00000  Uiso   1.00
C1727  C     0.88843   0.85679   0.95132   0.00000  Uiso   1.00
C1728  C     0.77180   0.84807   0.54260   0.00000  Uiso   1.00
C1729  C     0.91798   0.87970   0.97239   0.00000  Uiso   1.00
C1730  C     0.73977   0.83466   0.51742   0.00000  Uiso   1.00
C1731  C     0.83760   0.85364   0.97217   0.00000  Uiso   1.00
C1732  C     0.81948   0.86229   0.51925   0.00000  Uiso   1.00
Cu1733 Cu    0.71355   0.83334   0.75000   0.00000  Uiso   1.00
Cu1734 Cu    0.95311   0.83333   0.75000   0.00000  Uiso   1.00
H1735  H     0.91919   0.91358   0.53253   0.00000  Uiso   1.00
H1736  H     0.73115   0.82639   0.95011   0.00000  Uiso   1.00
H1737  H     0.78181   0.84878   0.61001   0.00000  Uiso   1.00
H1738  H     0.89026   0.81530   0.89598   0.00000  Uiso   1.00
H1739  H     0.85730   0.80443   0.81437   0.00000  Uiso   1.00
H1740  H     0.80989   0.86027   0.68452   0.00000  Uiso   1.00
H1741  H     0.77055   0.80548   0.81485   0.00000  Uiso   1.00
H1742  H     0.89617   0.86058   0.68490   0.00000  Uiso   1.00
N1743  N     0.78403   0.83334   0.74999   0.00000  Uiso   1.00
N1744  N     0.88264   0.83332   0.75001   0.00000  Uiso   1.00
O1745  O     0.70625   0.77322   0.75000   0.00000  Uiso   1.00
O1746  O     0.96042   0.89345   0.75000   0.00000  Uiso   1.00
O1747  O     0.96039   0.77321   0.75001   0.00000  Uiso   1.00
O1748  O     0.70628   0.89346   0.75000   0.00000  Uiso   1.00
O1749  O     0.68519   0.83334   0.81492   0.00000  Uiso   1.00
O1750  O     0.98148   0.83332   0.68509   0.00000  Uiso   1.00
O1751  O     0.93933   0.83333   0.81492   0.00000  Uiso   1.00
O1752  O     0.72733   0.83333   0.68508   0.00000  Uiso   1.00
N1753  N     0.95996   0.81067   0.61083   0.00000  Uiso   1.00
H1754  H     0.95360   0.78122   0.60087   0.00000  Uiso   1.00
H1755  H     0.93602   0.83064   0.60144   0.00000  Uiso   1.00
N1756  N     0.69973   0.88622   0.87662   0.00000  Uiso   1.00
H1757  H     0.70004   0.91788   0.87323   0.00000  Uiso   1.00
H1758  H     0.72514   0.87796   0.89363   0.00000  Uiso   1.00
N1759  N     0.99554   0.91461   0.96854   0.00000  Uiso   1.00
H1760  H     0.69376   0.89923   0.96960   0.00000  Uiso   1.00
H1761  H     0.67216   0.94058   0.94834   0.00000  Uiso   1.00
N1762  N     0.99311   0.80882   0.51386   0.00000  Uiso   1.00
H1763  H     0.98351   0.77847   0.52204   0.00000  Uiso   1.00
H1764  H     0.96158   0.82643   0.52257   0.00000  Uiso   1.00
N1765  N     0.82953   0.90648   0.58234   0.00000  Uiso   1.00
H1766  H     0.85452   0.91247   0.60030   0.00000  Uiso   1.00
C1767  C     0.80008   0.94159   0.57952   0.00000  Uiso   1.00
H1768  H     0.78449   0.95441   0.61398   0.00000  Uiso   1.00
H1769  H     0.76945   0.93295   0.56552   0.00000  Uiso   1.00
H1770  H     0.82276   0.96537   0.55759   0.00000  Uiso   1.00
N1771  N     0.81593   0.84973   0.89884   0.00000  Uiso   1.00
H1772  H     0.79333   0.83443   0.88328   0.00000  Uiso   1.00
C1773  C     0.82582   0.89131   0.88290   0.00000  Uiso   1.00
H1774  H     0.83250   0.89232   0.84542   0.00000  Uiso   1.00
H1775  H     0.85870   0.90351   0.89102   0.00000  Uiso   1.00
H1776  H     0.79448   0.91125   0.89884   0.00000  Uiso   1.00
N1777  N     0.92253   0.70717   0.72691   0.00000  Uiso   1.00
H1778  H     0.89904   0.72227   0.75356   0.00000  Uiso   1.00
C1779  C     0.92838   0.72332   0.68169   0.00000  Uiso   1.00
H1780  H     0.90095   0.70900   0.66691   0.00000  Uiso   1.00
H1781  H     0.96539   0.71729   0.65893   0.00000  Uiso   1.00
H1782  H     0.92215   0.75666   0.68350   0.00000  Uiso   1.00
N1783  N     0.75147   0.95811   0.75767   0.00000  Uiso   1.00
H1784  H     0.76569   0.96969   0.78263   0.00000  Uiso   1.00
C1785  C     0.78852   0.94868   0.71596   0.00000  Uiso   1.00
H1786  H     0.80433   0.97666   0.69755   0.00000  Uiso   1.00
H1787  H     0.77309   0.93001   0.69304   0.00000  Uiso   1.00
H1788  H     0.81831   0.93147   0.72416   0.00000  Uiso   1.00
N1789  N     0.92928   0.95699   0.71668   0.00000  Uiso   1.00
H1790  H     0.89481   0.96926   0.72668   0.00000  Uiso   1.00
C1791  C     0.94425   0.94627   0.66898   0.00000  Uiso   1.00
H1792  H     0.95315   0.97406   0.64758   0.00000  Uiso   1.00
H1793  H     0.91415   0.92989   0.65993   0.00000  Uiso   1.00
H1794  H     0.97660   0.92610   0.66157   0.00000  Uiso   1.00
N1795  N     0.74499   0.70777   0.77053   0.00000  Uiso   1.00
H1796  H     0.73463   0.72722   0.79791   0.00000  Uiso   1.00
C1797  C     0.78916   0.71817   0.73559   0.00000  Uiso   1.00
H1798  H     0.78578   0.71166   0.70095   0.00000  Uiso   1.00
H1799  H     0.81997   0.70070   0.74146   0.00000  Uiso   1.00
H1800  H     0.79751   0.75093   0.73697   0.00000  Uiso   1.00
loop_
_geom_bond_atom_site_label_1
_geom_bond_atom_site_label_2
_geom_bond_distance
_geom_bond_site_symmetry_2
_ccdc_geom_bond_type
C1     O47     1.296   .     A
C1     C112    1.472   .     S
C1     O145    1.295   .     S
C2     C11     1.470   .     S
C2     O48     1.290   .     A
C2     O246    1.300   1_455 S
C3     N65     1.426   .     S
C3     C5      1.401   .     A
C3     C32     1.428   .     A
C4     C6      1.394   .     A
C4     C31     1.421   .     A
C4     N71     1.428   .     S
C5     H35     1.083   .     S
C5     C929    1.401   1_554 S
C6     H36     1.083   .     S
C6     C930    1.398   .     S
C7     N77     1.425   .     S
C7     C609    1.398   1_545 S
C7     C112    1.421   .     S
C8     N83     1.430   .     S
C8     C11     1.416   .     A
C8     C310    1.396   .     S
C9     N89     1.429   .     S
C9     C307    1.398   .     S
C9     C111    1.411   .     S
C10    C12     1.420   .     A
C10    N95     1.427   .     S
C10    C608    1.396   1_545 S
C11    C209    1.411   1_455 S
C12    C207    1.421   1_455 S
C12    C201    1.472   1_455 S
C13    C15     1.415   .     A
C13    N44     1.367   .     A
C13    H39     1.080   .     S
C14    C16     1.414   .     A
C14    H40     1.080   .     S
C14    N43     1.368   .     A
C15    H41     1.081   .     S
C15    N43     1.366   .     A
C16    N44     1.365   .     A
C16    H42     1.080   .     S
C17    O51     1.297   .     A
C17    C19     1.476   .     S
C17    O149    1.296   .     S
C18    O52     1.301   .     A
C18    C20     1.481   .     S
C18    O250    1.295   1_455 S
C19    C23     1.410   .     A
C19    C25     1.392   .     A
C20    C24     1.412   .     A
C20    C26     1.399   .     A
C21    N59     1.436   .     S
C21    C29     1.413   .     A
C21    C23     1.416   .     A
C22    C30     1.411   .     A
C22    C24     1.411   .     A
C22    N262    1.437   1_455 S
C23    N156    1.432   .     S
C24    N253    1.435   1_455 S
C25    H38     1.082   .     S
C25    C27     1.403   .     A
C26    H37     1.078   .     S
C26    C28     1.405   .     A
C27    C29     1.410   .     A
C27    C31     1.418   .     A
C28    C32     1.428   .     A
C28    C30     1.418   .     A
C29    C905    1.401   .     S
C30    C906    1.398   1_554 S
C31    C932    1.420   .     S
C32    C931    1.420   1_554 S
Cu33   O45     1.985   .     S
Cu33   O52     1.916   .     S
Cu33   O49     1.928   .     S
Cu33   N43     2.012   .     S
Cu33   O48     1.987   .     S
Cu33   Cu234   2.677   1_455 S
Cu34   O51     1.916   .     S
Cu34   O46     1.985   .     S
Cu34   O50     1.928   .     S
Cu34   N44     2.012   .     S
Cu34   O47     1.987   .     S
Cu34   Cu133   2.677   .     S
O45    C201    1.295   1_455 S
O46    C102    1.300   .     S
O49    C217    1.296   1_455 S
O50    C118    1.295   .     S
N53    H55     1.045   .     S
N53    H54     1.045   .     S
N53    C124    1.435   .     S
N56    H57     1.045   .     S
N56    H58     1.040   .     S
N56    C223    1.432   1_455 S
N59    H160    1.043   .     S
N59    H161    1.045   .     S
H60    N259    1.043   1_455 S
H61    N259    1.045   1_455 S
N62    H64     1.044   .     S
N62    H63     1.045   .     S
N62    C122    1.437   .     S
N65    C67     1.447   .     S
N65    H66     1.032   .     S
C67    H68     1.110   .     S
C67    H69     1.111   .     S
C67    H70     1.111   .     S
N71    C73     1.451   .     S
N71    H72     1.031   .     S
C73    H74     1.111   .     S
C73    H75     1.109   .     S
C73    H76     1.110   .     S
N77    H78     1.031   .     S
N77    C79     1.448   .     S
C79    H81     1.112   .     S
C79    H82     1.110   .     S
C79    H80     1.110   .     S
N83    H84     1.031   .     S
N83    C85     1.450   .     S
C85    H86     1.105   .     S
C85    H87     1.109   .     S
C85    H88     1.108   .     S
N89    C91     1.448   .     S
N89    H90     1.031   .     S
C91    H93     1.110   .     S
C91    H92     1.110   .     S
C91    H94     1.111   .     S
N95    H96     1.031   .     S
N95    C97     1.450   .     S
C97    H98     1.112   .     S
C97    H99     1.108   .     S
C97    H100    1.105   .     S
C101   O147    1.296   .     A
C101   C212    1.472   .     S
C101   O245    1.295   .     S
C102   C111    1.470   .     S
C102   O148    1.290   .     A
C103   N165    1.426   .     S
C103   C105    1.401   .     A
C103   C132    1.428   .     A
C104   C106    1.394   .     A
C104   C131    1.421   .     A
C104   N171    1.428   .     S
C105   H135    1.083   .     S
C105   C1029   1.401   1_554 S
C106   H136    1.083   .     S
C106   C1030   1.398   .     S
C107   N177    1.425   .     S
C107   C709    1.398   1_545 S
C107   C212    1.421   .     S
C108   N183    1.430   .     S
C108   C111    1.416   .     A
C108   C410    1.396   .     S
C109   N189    1.429   .     S
C109   C407    1.398   .     S
C109   C211    1.411   .     S
C110   C112    1.420   .     A
C110   N195    1.427   .     S
C110   C708    1.396   1_545 S
C113   C115    1.415   .     A
C113   N144    1.367   .     A
C113   H139    1.080   .     S
C114   C116    1.414   .     A
C114   H140    1.080   .     S
C114   N143    1.368   .     A
C115   H141    1.081   .     S
C115   N143    1.366   .     A
C116   N144    1.365   .     A
C116   H142    1.080   .     S
C117   O151    1.297   .     A
C117   C119    1.476   .     S
C117   O249    1.296   .     S
C118   O152    1.301   .     A
C118   C120    1.481   .     S
C119   C123    1.410   .     A
C119   C125    1.392   .     A
C120   C124    1.412   .     A
C120   C126    1.399   .     A
C121   N159    1.436   .     S
C121   C129    1.413   .     A
C121   C123    1.416   .     A
C122   C130    1.411   .     A
C122   C124    1.411   .     A
C123   N256    1.432   .     S
C125   H138    1.082   .     S
C125   C127    1.403   .     A
C126   H137    1.078   .     S
C126   C128    1.405   .     A
C127   C129    1.410   .     A
C127   C131    1.418   .     A
C128   C132    1.428   .     A
C128   C130    1.418   .     A
C129   C1005   1.401   .     S
C130   C1006   1.398   1_554 S
C131   C1032   1.420   .     S
C132   C1031   1.420   1_554 S
Cu133  O145    1.985   .     S
Cu133  O152    1.916   .     S
Cu133  O149    1.928   .     S
Cu133  N143    2.012   .     S
Cu133  O148    1.987   .     S
Cu134  O151    1.916   .     S
Cu134  O146    1.985   .     S
Cu134  O150    1.928   .     S
Cu134  N144    2.012   .     S
Cu134  O147    1.987   .     S
Cu134  Cu233   2.677   .     S
O146   C202    1.300   .     S
O150   C218    1.295   .     S
N153   H155    1.045   .     S
N153   H154    1.045   .     S
N153   C224    1.435   .     S
N156   H157    1.045   .     S
N156   H158    1.040   .     S
N159   H260    1.043   .     S
N159   H261    1.045   .     S
N162   H164    1.044   .     S
N162   H163    1.045   .     S
N162   C222    1.437   .     S
N165   C167    1.447   .     S
N165   H166    1.032   .     S
C167   H168    1.110   .     S
C167   H169    1.111   .     S
C167   H170    1.111   .     S
N171   C173    1.451   .     S
N171   H172    1.031   .     S
C173   H174    1.111   .     S
C173   H175    1.109   .     S
C173   H176    1.110   .     S
N177   H178    1.031   .     S
N177   C179    1.448   .     S
C179   H181    1.112   .     S
C179   H182    1.110   .     S
C179   H180    1.110   .     S
N183   H184    1.031   .     S
N183   C185    1.450   .     S
C185   H186    1.105   .     S
C185   H187    1.109   .     S
C185   H188    1.108   .     S
N189   C191    1.448   .     S
N189   H190    1.031   .     S
C191   H193    1.110   .     S
C191   H192    1.110   .     S
C191   H194    1.111   .     S
N195   H196    1.031   .     S
N195   C197    1.450   .     S
C197   H198    1.112   .     S
C197   H199    1.108   .     S
C197   H200    1.105   .     S
C201   O247    1.296   .     A
C201   C12     1.472   1_655 S
C201   O45     1.295   1_655 S
C202   C211    1.470   .     S
C202   O248    1.290   .     A
C203   N265    1.426   .     S
C203   C205    1.401   .     A
C203   C232    1.428   .     A
C204   C206    1.394   .     A
C204   C231    1.421   .     A
C204   N271    1.428   .     S
C205   H235    1.083   .     S
C205   C1129   1.401   1_554 S
C206   H236    1.083   .     S
C206   C1130   1.398   .     S
C207   N277    1.425   .     S
C207   C809    1.398   1_545 S
C207   C12     1.421   1_655 S
C208   N283    1.430   .     S
C208   C211    1.416   .     A
C208   C510    1.396   .     S
C209   N289    1.429   .     S
C209   C507    1.398   .     S
C209   C11     1.411   1_655 S
C210   C212    1.420   .     A
C210   N295    1.427   .     S
C210   C808    1.396   1_545 S
C213   C215    1.415   .     A
C213   N244    1.367   .     A
C213   H239    1.080   .     S
C214   C216    1.414   .     A
C214   H240    1.080   .     S
C214   N243    1.368   .     A
C215   H241    1.081   .     S
C215   N243    1.366   .     A
C216   N244    1.365   .     A
C216   H242    1.080   .     S
C217   O251    1.297   .     A
C217   C219    1.476   .     S
C217   O49     1.296   1_655 S
C218   O252    1.301   .     A
C218   C220    1.481   .     S
C219   C223    1.410   .     A
C219   C225    1.392   .     A
C220   C224    1.412   .     A
C220   C226    1.399   .     A
C221   N259    1.436   .     S
C221   C229    1.413   .     A
C221   C223    1.416   .     A
C222   C230    1.411   .     A
C222   C224    1.411   .     A
C223   N56     1.432   1_655 S
C225   H238    1.082   .     S
C225   C227    1.403   .     A
C226   H237    1.078   .     S
C226   C228    1.405   .     A
C227   C229    1.410   .     A
C227   C231    1.418   .     A
C228   C232    1.428   .     A
C228   C230    1.418   .     A
C229   C1105   1.401   .     S
C230   C1106   1.398   1_554 S
C231   C1132   1.420   .     S
C232   C1131   1.420   1_554 S
Cu233  O245    1.985   .     S
Cu233  O252    1.916   .     S
Cu233  O249    1.928   .     S
Cu233  N243    2.012   .     S
Cu233  O248    1.987   .     S
Cu234  O251    1.916   .     S
Cu234  O246    1.985   .     S
Cu234  O250    1.928   .     S
Cu234  N244    2.012   .     S
Cu234  O247    1.987   .     S
Cu234  Cu33    2.677   1_655 S
O246   C2      1.300   1_655 S
O250   C18     1.295   1_655 S
N253   H255    1.045   .     S
N253   H254    1.045   .     S
N253   C24     1.435   1_655 S
N256   H257    1.045   .     S
N256   H258    1.040   .     S
N259   H60     1.043   1_655 S
N259   H61     1.045   1_655 S
N262   H264    1.044   .     S
N262   H263    1.045   .     S
N262   C22     1.437   1_655 S
N265   C267    1.447   .     S
N265   H266    1.032   .     S
C267   H268    1.110   .     S
C267   H269    1.111   .     S
C267   H270    1.111   .     S
N271   C273    1.451   .     S
N271   H272    1.031   .     S
C273   H274    1.111   .     S
C273   H275    1.109   .     S
C273   H276    1.110   .     S
N277   H278    1.031   .     S
N277   C279    1.448   .     S
C279   H281    1.112   .     S
C279   H282    1.110   .     S
C279   H280    1.110   .     S
N283   H284    1.031   .     S
N283   C285    1.450   .     S
C285   H286    1.105   .     S
C285   H287    1.109   .     S
C285   H288    1.108   .     S
N289   C291    1.448   .     S
N289   H290    1.031   .     S
C291   H293    1.110   .     S
C291   H292    1.110   .     S
C291   H294    1.111   .     S
N295   H296    1.031   .     S
N295   C297    1.450   .     S
C297   H298    1.112   .     S
C297   H299    1.108   .     S
C297   H300    1.105   .     S
C301   O347    1.296   .     A
C301   C412    1.472   .     S
C301   O445    1.295   .     S
C302   C311    1.470   .     S
C302   O348    1.290   .     A
C302   O546    1.300   1_455 S
C303   N365    1.426   .     S
C303   C305    1.401   .     A
C303   C332    1.428   .     A
C304   C306    1.394   .     A
C304   C331    1.421   .     A
C304   N371    1.428   .     S
C305   H335    1.083   .     S
C305   C1229   1.401   1_554 S
C306   H336    1.083   .     S
C306   C1230   1.398   .     S
C307   N377    1.425   .     S
C307   C412    1.421   .     S
C308   N383    1.430   .     S
C308   C311    1.416   .     A
C308   C610    1.396   .     S
C309   N389    1.429   .     S
C309   C607    1.398   .     S
C309   C411    1.411   .     S
C310   C312    1.420   .     A
C310   N395    1.427   .     S
C311   C509    1.411   1_455 S
C312   C507    1.421   1_455 S
C312   C501    1.472   1_455 S
C313   C315    1.415   .     A
C313   N344    1.367   .     A
C313   H339    1.080   .     S
C314   C316    1.414   .     A
C314   H340    1.080   .     S
C314   N343    1.368   .     A
C315   H341    1.081   .     S
C315   N343    1.366   .     A
C316   N344    1.365   .     A
C316   H342    1.080   .     S
C317   O351    1.297   .     A
C317   C319    1.476   .     S
C317   O449    1.296   .     S
C318   O352    1.301   .     A
C318   C320    1.481   .     S
C318   O550    1.295   1_455 S
C319   C323    1.410   .     A
C319   C325    1.392   .     A
C320   C324    1.412   .     A
C320   C326    1.399   .     A
C321   N359    1.436   .     S
C321   C329    1.413   .     A
C321   C323    1.416   .     A
C322   C330    1.411   .     A
C322   C324    1.411   .     A
C322   N562    1.437   1_455 S
C323   N456    1.432   .     S
C324   N553    1.435   1_455 S
C325   H338    1.082   .     S
C325   C327    1.403   .     A
C326   H337    1.078   .     S
C326   C328    1.405   .     A
C327   C329    1.410   .     A
C327   C331    1.418   .     A
C328   C332    1.428   .     A
C328   C330    1.418   .     A
C329   C1205   1.401   .     S
C330   C1206   1.398   1_554 S
C331   C1232   1.420   .     S
C332   C1231   1.420   1_554 S
Cu333  O345    1.985   .     S
Cu333  O352    1.916   .     S
Cu333  O349    1.928   .     S
Cu333  N343    2.012   .     S
Cu333  O348    1.987   .     S
Cu333  Cu534   2.677   1_455 S
Cu334  O351    1.916   .     S
Cu334  O346    1.985   .     S
Cu334  O350    1.928   .     S
Cu334  N344    2.012   .     S
Cu334  O347    1.987   .     S
Cu334  Cu433   2.677   .     S
O345   C501    1.295   1_455 S
O346   C402    1.300   .     S
O349   C517    1.296   1_455 S
O350   C418    1.295   .     S
N353   H355    1.045   .     S
N353   H354    1.045   .     S
N353   C424    1.435   .     S
N356   H357    1.045   .     S
N356   H358    1.040   .     S
N356   C523    1.432   1_455 S
N359   H460    1.043   .     S
N359   H461    1.045   .     S
H360   N559    1.043   1_455 S
H361   N559    1.045   1_455 S
N362   H364    1.044   .     S
N362   H363    1.045   .     S
N362   C422    1.437   .     S
N365   C367    1.447   .     S
N365   H366    1.032   .     S
C367   H368    1.110   .     S
C367   H369    1.111   .     S
C367   H370    1.111   .     S
N371   C373    1.451   .     S
N371   H372    1.031   .     S
C373   H374    1.111   .     S
C373   H375    1.109   .     S
C373   H376    1.110   .     S
N377   H378    1.031   .     S
N377   C379    1.448   .     S
C379   H381    1.112   .     S
C379   H382    1.110   .     S
C379   H380    1.110   .     S
N383   H384    1.031   .     S
N383   C385    1.450   .     S
C385   H386    1.105   .     S
C385   H387    1.109   .     S
C385   H388    1.108   .     S
N389   C391    1.448   .     S
N389   H390    1.031   .     S
C391   H393    1.110   .     S
C391   H392    1.110   .     S
C391   H394    1.111   .     S
N395   H396    1.031   .     S
N395   C397    1.450   .     S
C397   H398    1.112   .     S
C397   H399    1.108   .     S
C397   H400    1.105   .     S
C401   O447    1.296   .     A
C401   C512    1.472   .     S
C401   O545    1.295   .     S
C402   C411    1.470   .     S
C402   O448    1.290   .     A
C403   N465    1.426   .     S
C403   C405    1.401   .     A
C403   C432    1.428   .     A
C404   C406    1.394   .     A
C404   C431    1.421   .     A
C404   N471    1.428   .     S
C405   H435    1.083   .     S
C405   C1329   1.401   1_554 S
C406   H436    1.083   .     S
C406   C1330   1.398   .     S
C407   N477    1.425   .     S
C407   C512    1.421   .     S
C408   N483    1.430   .     S
C408   C411    1.416   .     A
C408   C710    1.396   .     S
C409   N489    1.429   .     S
C409   C707    1.398   .     S
C409   C511    1.411   .     S
C410   C412    1.420   .     A
C410   N495    1.427   .     S
C413   C415    1.415   .     A
C413   N444    1.367   .     A
C413   H439    1.080   .     S
C414   C416    1.414   .     A
C414   H440    1.080   .     S
C414   N443    1.368   .     A
C415   H441    1.081   .     S
C415   N443    1.366   .     A
C416   N444    1.365   .     A
C416   H442    1.080   .     S
C417   O451    1.297   .     A
C417   C419    1.476   .     S
C417   O549    1.296   .     S
C418   O452    1.301   .     A
C418   C420    1.481   .     S
C419   C423    1.410   .     A
C419   C425    1.392   .     A
C420   C424    1.412   .     A
C420   C426    1.399   .     A
C421   N459    1.436   .     S
C421   C429    1.413   .     A
C421   C423    1.416   .     A
C422   C430    1.411   .     A
C422   C424    1.411   .     A
C423   N556    1.432   .     S
C425   H438    1.082   .     S
C425   C427    1.403   .     A
C426   H437    1.078   .     S
C426   C428    1.405   .     A
C427   C429    1.410   .     A
C427   C431    1.418   .     A
C428   C432    1.428   .     A
C428   C430    1.418   .     A
C429   C1305   1.401   .     S
C430   C1306   1.398   1_554 S
C431   C1332   1.420   .     S
C432   C1331   1.420   1_554 S
Cu433  O445    1.985   .     S
Cu433  O452    1.916   .     S
Cu433  O449    1.928   .     S
Cu433  N443    2.012   .     S
Cu433  O448    1.987   .     S
Cu434  O451    1.916   .     S
Cu434  O446    1.985   .     S
Cu434  O450    1.928   .     S
Cu434  N444    2.012   .     S
Cu434  O447    1.987   .     S
Cu434  Cu533   2.677   .     S
O446   C502    1.300   .     S
O450   C518    1.295   .     S
N453   H455    1.045   .     S
N453   H454    1.045   .     S
N453   C524    1.435   .     S
N456   H457    1.045   .     S
N456   H458    1.040   .     S
N459   H560    1.043   .     S
N459   H561    1.045   .     S
N462   H464    1.044   .     S
N462   H463    1.045   .     S
N462   C522    1.437   .     S
N465   C467    1.447   .     S
N465   H466    1.032   .     S
C467   H468    1.110   .     S
C467   H469    1.111   .     S
C467   H470    1.111   .     S
N471   C473    1.451   .     S
N471   H472    1.031   .     S
C473   H474    1.111   .     S
C473   H475    1.109   .     S
C473   H476    1.110   .     S
N477   H478    1.031   .     S
N477   C479    1.448   .     S
C479   H481    1.112   .     S
C479   H482    1.110   .     S
C479   H480    1.110   .     S
N483   H484    1.031   .     S
N483   C485    1.450   .     S
C485   H486    1.105   .     S
C485   H487    1.109   .     S
C485   H488    1.108   .     S
N489   C491    1.448   .     S
N489   H490    1.031   .     S
C491   H493    1.110   .     S
C491   H492    1.110   .     S
C491   H494    1.111   .     S
N495   H496    1.031   .     S
N495   C497    1.450   .     S
C497   H498    1.112   .     S
C497   H499    1.108   .     S
C497   H500    1.105   .     S
C501   O547    1.296   .     A
C501   C312    1.472   1_655 S
C501   O345    1.295   1_655 S
C502   C511    1.470   .     S
C502   O548    1.290   .     A
C503   N565    1.426   .     S
C503   C505    1.401   .     A
C503   C532    1.428   .     A
C504   C506    1.394   .     A
C504   C531    1.421   .     A
C504   N571    1.428   .     S
C505   H535    1.083   .     S
C505   C1429   1.401   1_554 S
C506   H536    1.083   .     S
C506   C1430   1.398   .     S
C507   N577    1.425   .     S
C507   C312    1.421   1_655 S
C508   N583    1.430   .     S
C508   C511    1.416   .     A
C508   C810    1.396   .     S
C509   N589    1.429   .     S
C509   C807    1.398   .     S
C509   C311    1.411   1_655 S
C510   C512    1.420   .     A
C510   N595    1.427   .     S
C513   C515    1.415   .     A
C513   N544    1.367   .     A
C513   H539    1.080   .     S
C514   C516    1.414   .     A
C514   H540    1.080   .     S
C514   N543    1.368   .     A
C515   H541    1.081   .     S
C515   N543    1.366   .     A
C516   N544    1.365   .     A
C516   H542    1.080   .     S
C517   O551    1.297   .     A
C517   C519    1.476   .     S
C517   O349    1.296   1_655 S
C518   O552    1.301   .     A
C518   C520    1.481   .     S
C519   C523    1.410   .     A
C519   C525    1.392   .     A
C520   C524    1.412   .     A
C520   C526    1.399   .     A
C521   N559    1.436   .     S
C521   C529    1.413   .     A
C521   C523    1.416   .     A
C522   C530    1.411   .     A
C522   C524    1.411   .     A
C523   N356    1.432   1_655 S
C525   H538    1.082   .     S
C525   C527    1.403   .     A
C526   H537    1.078   .     S
C526   C528    1.405   .     A
C527   C529    1.410   .     A
C527   C531    1.418   .     A
C528   C532    1.428   .     A
C528   C530    1.418   .     A
C529   C1405   1.401   .     S
C530   C1406   1.398   1_554 S
C531   C1432   1.420   .     S
C532   C1431   1.420   1_554 S
Cu533  O545    1.985   .     S
Cu533  O552    1.916   .     S
Cu533  O549    1.928   .     S
Cu533  N543    2.012   .     S
Cu533  O548    1.987   .     S
Cu534  O551    1.916   .     S
Cu534  O546    1.985   .     S
Cu534  O550    1.928   .     S
Cu534  N544    2.012   .     S
Cu534  O547    1.987   .     S
Cu534  Cu333   2.677   1_655 S
O546   C302    1.300   1_655 S
O550   C318    1.295   1_655 S
N553   H555    1.045   .     S
N553   H554    1.045   .     S
N553   C324    1.435   1_655 S
N556   H557    1.045   .     S
N556   H558    1.040   .     S
N559   H360    1.043   1_655 S
N559   H361    1.045   1_655 S
N562   H564    1.044   .     S
N562   H563    1.045   .     S
N562   C322    1.437   1_655 S
N565   C567    1.447   .     S
N565   H566    1.032   .     S
C567   H568    1.110   .     S
C567   H569    1.111   .     S
C567   H570    1.111   .     S
N571   C573    1.451   .     S
N571   H572    1.031   .     S
C573   H574    1.111   .     S
C573   H575    1.109   .     S
C573   H576    1.110   .     S
N577   H578    1.031   .     S
N577   C579    1.448   .     S
C579   H581    1.112   .     S
C579   H582    1.110   .     S
C579   H580    1.110   .     S
N583   H584    1.031   .     S
N583   C585    1.450   .     S
C585   H586    1.105   .     S
C585   H587    1.109   .     S
C585   H588    1.108   .     S
N589   C591    1.448   .     S
N589   H590    1.031   .     S
C591   H593    1.110   .     S
C591   H592    1.110   .     S
C591   H594    1.111   .     S
N595   H596    1.031   .     S
N595   C597    1.450   .     S
C597   H598    1.112   .     S
C597   H599    1.108   .     S
C597   H600    1.105   .     S
C601   O647    1.296   .     A
C601   C712    1.472   .     S
C601   O745    1.295   .     S
C602   C611    1.470   .     S
C602   O648    1.290   .     A
C602   O846    1.300   1_455 S
C603   N665    1.426   .     S
C603   C605    1.401   .     A
C603   C632    1.428   .     A
C604   C606    1.394   .     A
C604   C631    1.421   .     A
C604   N671    1.428   .     S
C605   H635    1.083   .     S
C605   C1529   1.401   1_554 S
C606   H636    1.083   .     S
C606   C1530   1.398   .     S
C607   N677    1.425   .     S
C607   C712    1.421   .     S
C608   N683    1.430   .     S
C608   C611    1.416   .     A
C608   C10     1.396   1_565 S
C609   N689    1.429   .     S
C609   C7      1.398   1_565 S
C609   C711    1.411   .     S
C610   C612    1.420   .     A
C610   N695    1.427   .     S
C611   C809    1.411   1_455 S
C612   C807    1.421   1_455 S
C612   C801    1.472   1_455 S
C613   C615    1.415   .     A
C613   N644    1.367   .     A
C613   H639    1.080   .     S
C614   C616    1.414   .     A
C614   H640    1.080   .     S
C614   N643    1.368   .     A
C615   H641    1.081   .     S
C615   N643    1.366   .     A
C616   N644    1.365   .     A
C616   H642    1.080   .     S
C617   O651    1.297   .     A
C617   C619    1.476   .     S
C617   O749    1.296   .     S
C618   O652    1.301   .     A
C618   C620    1.481   .     S
C618   O850    1.295   1_455 S
C619   C623    1.410   .     A
C619   C625    1.392   .     A
C620   C624    1.412   .     A
C620   C626    1.399   .     A
C621   N659    1.436   .     S
C621   C629    1.413   .     A
C621   C623    1.416   .     A
C622   C630    1.411   .     A
C622   C624    1.411   .     A
C622   N862    1.437   1_455 S
C623   N756    1.432   .     S
C624   N853    1.435   1_455 S
C625   H638    1.082   .     S
C625   C627    1.403   .     A
C626   H637    1.078   .     S
C626   C628    1.405   .     A
C627   C629    1.410   .     A
C627   C631    1.418   .     A
C628   C632    1.428   .     A
C628   C630    1.418   .     A
C629   C1505   1.401   .     S
C630   C1506   1.398   1_554 S
C631   C1532   1.420   .     S
C632   C1531   1.420   1_554 S
Cu633  O645    1.985   .     S
Cu633  O652    1.916   .     S
Cu633  O649    1.928   .     S
Cu633  N643    2.012   .     S
Cu633  O648    1.987   .     S
Cu633  Cu834   2.677   1_455 S
Cu634  O651    1.916   .     S
Cu634  O646    1.985   .     S
Cu634  O650    1.928   .     S
Cu634  N644    2.012   .     S
Cu634  O647    1.987   .     S
Cu634  Cu733   2.677   .     S
O645   C801    1.295   1_455 S
O646   C702    1.300   .     S
O649   C817    1.296   1_455 S
O650   C718    1.295   .     S
N653   H655    1.045   .     S
N653   H654    1.045   .     S
N653   C724    1.435   .     S
N656   H657    1.045   .     S
N656   H658    1.040   .     S
N656   C823    1.432   1_455 S
N659   H760    1.043   .     S
N659   H761    1.045   .     S
H660   N859    1.043   1_455 S
H661   N859    1.045   1_455 S
N662   H664    1.044   .     S
N662   H663    1.045   .     S
N662   C722    1.437   .     S
N665   C667    1.447   .     S
N665   H666    1.032   .     S
C667   H668    1.110   .     S
C667   H669    1.111   .     S
C667   H670    1.111   .     S
N671   C673    1.451   .     S
N671   H672    1.031   .     S
C673   H674    1.111   .     S
C673   H675    1.109   .     S
C673   H676    1.110   .     S
N677   H678    1.031   .     S
N677   C679    1.448   .     S
C679   H681    1.112   .     S
C679   H682    1.110   .     S
C679   H680    1.110   .     S
N683   H684    1.031   .     S
N683   C685    1.450   .     S
C685   H686    1.105   .     S
C685   H687    1.109   .     S
C685   H688    1.108   .     S
N689   C691    1.448   .     S
N689   H690    1.031   .     S
C691   H693    1.110   .     S
C691   H692    1.110   .     S
C691   H694    1.111   .     S
N695   H696    1.031   .     S
N695   C697    1.450   .     S
C697   H698    1.112   .     S
C697   H699    1.108   .     S
C697   H700    1.105   .     S
C701   O747    1.296   .     A
C701   C812    1.472   .     S
C701   O845    1.295   .     S
C702   C711    1.470   .     S
C702   O748    1.290   .     A
C703   N765    1.426   .     S
C703   C705    1.401   .     A
C703   C732    1.428   .     A
C704   C706    1.394   .     A
C704   C731    1.421   .     A
C704   N771    1.428   .     S
C705   H735    1.083   .     S
C705   C1629   1.401   1_554 S
C706   H736    1.083   .     S
C706   C1630   1.398   .     S
C707   N777    1.425   .     S
C707   C812    1.421   .     S
C708   N783    1.430   .     S
C708   C711    1.416   .     A
C708   C110    1.396   1_565 S
C709   N789    1.429   .     S
C709   C107    1.398   1_565 S
C709   C811    1.411   .     S
C710   C712    1.420   .     A
C710   N795    1.427   .     S
C713   C715    1.415   .     A
C713   N744    1.367   .     A
C713   H739    1.080   .     S
C714   C716    1.414   .     A
C714   H740    1.080   .     S
C714   N743    1.368   .     A
C715   H741    1.081   .     S
C715   N743    1.366   .     A
C716   N744    1.365   .     A
C716   H742    1.080   .     S
C717   O751    1.297   .     A
C717   C719    1.476   .     S
C717   O849    1.296   .     S
C718   O752    1.301   .     A
C718   C720    1.481   .     S
C719   C723    1.410   .     A
C719   C725    1.392   .     A
C720   C724    1.412   .     A
C720   C726    1.399   .     A
C721   N759    1.436   .     S
C721   C729    1.413   .     A
C721   C723    1.416   .     A
C722   C730    1.411   .     A
C722   C724    1.411   .     A
C723   N856    1.432   .     S
C725   H738    1.082   .     S
C725   C727    1.403   .     A
C726   H737    1.078   .     S
C726   C728    1.405   .     A
C727   C729    1.410   .     A
C727   C731    1.418   .     A
C728   C732    1.428   .     A
C728   C730    1.418   .     A
C729   C1605   1.401   .     S
C730   C1606   1.398   1_554 S
C731   C1632   1.420   .     S
C732   C1631   1.420   1_554 S
Cu733  O745    1.985   .     S
Cu733  O752    1.916   .     S
Cu733  O749    1.928   .     S
Cu733  N743    2.012   .     S
Cu733  O748    1.987   .     S
Cu734  O751    1.916   .     S
Cu734  O746    1.985   .     S
Cu734  O750    1.928   .     S
Cu734  N744    2.012   .     S
Cu734  O747    1.987   .     S
Cu734  Cu833   2.677   .     S
O746   C802    1.300   .     S
O750   C818    1.295   .     S
N753   H755    1.045   .     S
N753   H754    1.045   .     S
N753   C824    1.435   .     S
N756   H757    1.045   .     S
N756   H758    1.040   .     S
N759   H860    1.043   .     S
N759   H861    1.045   .     S
N762   H764    1.044   .     S
N762   H763    1.045   .     S
N762   C822    1.437   .     S
N765   C767    1.447   .     S
N765   H766    1.032   .     S
C767   H768    1.110   .     S
C767   H769    1.111   .     S
C767   H770    1.111   .     S
N771   C773    1.451   .     S
N771   H772    1.031   .     S
C773   H774    1.111   .     S
C773   H775    1.109   .     S
C773   H776    1.110   .     S
N777   H778    1.031   .     S
N777   C779    1.448   .     S
C779   H781    1.112   .     S
C779   H782    1.110   .     S
C779   H780    1.110   .     S
N783   H784    1.031   .     S
N783   C785    1.450   .     S
C785   H786    1.105   .     S
C785   H787    1.109   .     S
C785   H788    1.108   .     S
N789   C791    1.448   .     S
N789   H790    1.031   .     S
C791   H793    1.110   .     S
C791   H792    1.110   .     S
C791   H794    1.111   .     S
N795   H796    1.031   .     S
N795   C797    1.450   .     S
C797   H798    1.112   .     S
C797   H799    1.108   .     S
C797   H800    1.105   .     S
C801   O847    1.296   .     A
C801   C612    1.472   1_655 S
C801   O645    1.295   1_655 S
C802   C811    1.470   .     S
C802   O848    1.290   .     A
C803   N865    1.426   .     S
C803   C805    1.401   .     A
C803   C832    1.428   .     A
C804   C806    1.394   .     A
C804   C831    1.421   .     A
C804   N871    1.428   .     S
C805   H835    1.083   .     S
C805   C1729   1.401   1_554 S
C806   H836    1.083   .     S
C806   C1730   1.398   .     S
C807   N877    1.425   .     S
C807   C612    1.421   1_655 S
C808   N883    1.430   .     S
C808   C811    1.416   .     A
C808   C210    1.396   1_565 S
C809   N889    1.429   .     S
C809   C207    1.398   1_565 S
C809   C611    1.411   1_655 S
C810   C812    1.420   .     A
C810   N895    1.427   .     S
C813   C815    1.415   .     A
C813   N844    1.367   .     A
C813   H839    1.080   .     S
C814   C816    1.414   .     A
C814   H840    1.080   .     S
C814   N843    1.368   .     A
C815   H841    1.081   .     S
C815   N843    1.366   .     A
C816   N844    1.365   .     A
C816   H842    1.080   .     S
C817   O851    1.297   .     A
C817   C819    1.476   .     S
C817   O649    1.296   1_655 S
C818   O852    1.301   .     A
C818   C820    1.481   .     S
C819   C823    1.410   .     A
C819   C825    1.392   .     A
C820   C824    1.412   .     A
C820   C826    1.399   .     A
C821   N859    1.436   .     S
C821   C829    1.413   .     A
C821   C823    1.416   .     A
C822   C830    1.411   .     A
C822   C824    1.411   .     A
C823   N656    1.432   1_655 S
C825   H838    1.082   .     S
C825   C827    1.403   .     A
C826   H837    1.078   .     S
C826   C828    1.405   .     A
C827   C829    1.410   .     A
C827   C831    1.418   .     A
C828   C832    1.428   .     A
C828   C830    1.418   .     A
C829   C1705   1.401   .     S
C830   C1706   1.398   1_554 S
C831   C1732   1.420   .     S
C832   C1731   1.420   1_554 S
Cu833  O845    1.985   .     S
Cu833  O852    1.916   .     S
Cu833  O849    1.928   .     S
Cu833  N843    2.012   .     S
Cu833  O848    1.987   .     S
Cu834  O851    1.916   .     S
Cu834  O846    1.985   .     S
Cu834  O850    1.928   .     S
Cu834  N844    2.012   .     S
Cu834  O847    1.987   .     S
Cu834  Cu633   2.677   1_655 S
O846   C602    1.300   1_655 S
O850   C618    1.295   1_655 S
N853   H855    1.045   .     S
N853   H854    1.045   .     S
N853   C624    1.435   1_655 S
N856   H857    1.045   .     S
N856   H858    1.040   .     S
N859   H660    1.043   1_655 S
N859   H661    1.045   1_655 S
N862   H864    1.044   .     S
N862   H863    1.045   .     S
N862   C622    1.437   1_655 S
N865   C867    1.447   .     S
N865   H866    1.032   .     S
C867   H868    1.110   .     S
C867   H869    1.111   .     S
C867   H870    1.111   .     S
N871   C873    1.451   .     S
N871   H872    1.031   .     S
C873   H874    1.111   .     S
C873   H875    1.109   .     S
C873   H876    1.110   .     S
N877   H878    1.031   .     S
N877   C879    1.448   .     S
C879   H881    1.112   .     S
C879   H882    1.110   .     S
C879   H880    1.110   .     S
N883   H884    1.031   .     S
N883   C885    1.450   .     S
C885   H886    1.105   .     S
C885   H887    1.109   .     S
C885   H888    1.108   .     S
N889   C891    1.448   .     S
N889   H890    1.031   .     S
C891   H893    1.110   .     S
C891   H892    1.110   .     S
C891   H894    1.111   .     S
N895   H896    1.031   .     S
N895   C897    1.450   .     S
C897   H898    1.112   .     S
C897   H899    1.108   .     S
C897   H900    1.105   .     S
C901   O947    1.296   .     A
C901   C1012   1.472   .     S
C901   O1045   1.295   .     S
C902   C911    1.470   .     S
C902   O948    1.290   .     A
C902   O1146   1.300   1_455 S
C903   N965    1.426   .     S
C903   C905    1.401   .     A
C903   C932    1.428   .     A
C904   C906    1.394   .     A
C904   C931    1.421   .     A
C904   N971    1.428   .     S
C905   H935    1.083   .     S
C906   H936    1.083   .     S
C906   C30     1.398   1_556 S
C907   N977    1.425   .     S
C907   C1509   1.398   1_545 S
C907   C1012   1.421   .     S
C908   N983    1.430   .     S
C908   C911    1.416   .     A
C908   C1210   1.396   .     S
C909   N989    1.429   .     S
C909   C1207   1.398   .     S
C909   C1011   1.411   .     S
C910   C912    1.420   .     A
C910   N995    1.427   .     S
C910   C1508   1.396   1_545 S
C911   C1109   1.411   1_455 S
C912   C1107   1.421   1_455 S
C912   C1101   1.472   1_455 S
C913   C915    1.415   .     A
C913   N944    1.367   .     A
C913   H939    1.080   .     S
C914   C916    1.414   .     A
C914   H940    1.080   .     S
C914   N943    1.368   .     A
C915   H941    1.081   .     S
C915   N943    1.366   .     A
C916   N944    1.365   .     A
C916   H942    1.080   .     S
C917   O951    1.297   .     A
C917   C919    1.476   .     S
C917   O1049   1.296   .     S
C918   O952    1.301   .     A
C918   C920    1.481   .     S
C918   O1150   1.295   1_455 S
C919   C923    1.410   .     A
C919   C925    1.392   .     A
C920   C924    1.412   .     A
C920   C926    1.399   .     A
C921   N959    1.436   .     S
C921   C929    1.413   .     A
C921   C923    1.416   .     A
C922   C930    1.411   .     A
C922   C924    1.411   .     A
C922   N1162   1.437   1_455 S
C923   N1056   1.432   .     S
C924   N1153   1.435   1_455 S
C925   H938    1.082   .     S
C925   C927    1.403   .     A
C926   H937    1.078   .     S
C926   C928    1.405   .     A
C927   C929    1.410   .     A
C927   C931    1.418   .     A
C928   C932    1.428   .     A
C928   C930    1.418   .     A
C929   C5      1.401   1_556 S
C931   C32     1.420   1_556 S
Cu933  O945    1.985   .     S
Cu933  O952    1.916   .     S
Cu933  O949    1.928   .     S
Cu933  N943    2.012   .     S
Cu933  O948    1.987   .     S
Cu933  Cu1134  2.677   1_455 S
Cu934  O951    1.916   .     S
Cu934  O946    1.985   .     S
Cu934  O950    1.928   .     S
Cu934  N944    2.012   .     S
Cu934  O947    1.987   .     S
Cu934  Cu1033  2.677   .     S
O945   C1101   1.295   1_455 S
O946   C1002   1.300   .     S
O949   C1117   1.296   1_455 S
O950   C1018   1.295   .     S
N953   H955    1.045   .     S
N953   H954    1.045   .     S
N953   C1024   1.435   .     S
N956   H957    1.045   .     S
N956   H958    1.040   .     S
N956   C1123   1.432   1_455 S
N959   H1060   1.043   .     S
N959   H1061   1.045   .     S
H960   N1159   1.043   1_455 S
H961   N1159   1.045   1_455 S
N962   H964    1.044   .     S
N962   H963    1.045   .     S
N962   C1022   1.437   .     S
N965   C967    1.447   .     S
N965   H966    1.032   .     S
C967   H968    1.110   .     S
C967   H969    1.111   .     S
C967   H970    1.111   .     S
N971   C973    1.451   .     S
N971   H972    1.031   .     S
C973   H974    1.111   .     S
C973   H975    1.109   .     S
C973   H976    1.110   .     S
N977   H978    1.031   .     S
N977   C979    1.448   .     S
C979   H981    1.112   .     S
C979   H982    1.110   .     S
C979   H980    1.110   .     S
N983   H984    1.031   .     S
N983   C985    1.450   .     S
C985   H986    1.105   .     S
C985   H987    1.109   .     S
C985   H988    1.108   .     S
N989   C991    1.448   .     S
N989   H990    1.031   .     S
C991   H993    1.110   .     S
C991   H992    1.110   .     S
C991   H994    1.111   .     S
N995   H996    1.031   .     S
N995   C997    1.450   .     S
C997   H998    1.112   .     S
C997   H999    1.108   .     S
C997   H1000   1.105   .     S
C1001  O1047   1.296   .     A
C1001  C1112   1.472   .     S
C1001  O1145   1.295   .     S
C1002  C1011   1.470   .     S
C1002  O1048   1.290   .     A
C1003  N1065   1.426   .     S
C1003  C1005   1.401   .     A
C1003  C1032   1.428   .     A
C1004  C1006   1.394   .     A
C1004  C1031   1.421   .     A
C1004  N1071   1.428   .     S
C1005  H1035   1.083   .     S
C1006  H1036   1.083   .     S
C1006  C130    1.398   1_556 S
C1007  N1077   1.425   .     S
C1007  C1609   1.398   1_545 S
C1007  C1112   1.421   .     S
C1008  N1083   1.430   .     S
C1008  C1011   1.416   .     A
C1008  C1310   1.396   .     S
C1009  N1089   1.429   .     S
C1009  C1307   1.398   .     S
C1009  C1111   1.411   .     S
C1010  C1012   1.420   .     A
C1010  N1095   1.427   .     S
C1010  C1608   1.396   1_545 S
C1013  C1015   1.415   .     A
C1013  N1044   1.367   .     A
C1013  H1039   1.080   .     S
C1014  C1016   1.414   .     A
C1014  H1040   1.080   .     S
C1014  N1043   1.368   .     A
C1015  H1041   1.081   .     S
C1015  N1043   1.366   .     A
C1016  N1044   1.365   .     A
C1016  H1042   1.080   .     S
C1017  O1051   1.297   .     A
C1017  C1019   1.476   .     S
C1017  O1149   1.296   .     S
C1018  O1052   1.301   .     A
C1018  C1020   1.481   .     S
C1019  C1023   1.410   .     A
C1019  C1025   1.392   .     A
C1020  C1024   1.412   .     A
C1020  C1026   1.399   .     A
C1021  N1059   1.436   .     S
C1021  C1029   1.413   .     A
C1021  C1023   1.416   .     A
C1022  C1030   1.411   .     A
C1022  C1024   1.411   .     A
C1023  N1156   1.432   .     S
C1025  H1038   1.082   .     S
C1025  C1027   1.403   .     A
C1026  H1037   1.078   .     S
C1026  C1028   1.405   .     A
C1027  C1029   1.410   .     A
C1027  C1031   1.418   .     A
C1028  C1032   1.428   .     A
C1028  C1030   1.418   .     A
C1029  C105    1.401   1_556 S
C1031  C132    1.420   1_556 S
Cu1033 O1045   1.985   .     S
Cu1033 O1052   1.916   .     S
Cu1033 O1049   1.928   .     S
Cu1033 N1043   2.012   .     S
Cu1033 O1048   1.987   .     S
Cu1034 O1051   1.916   .     S
Cu1034 O1046   1.985   .     S
Cu1034 O1050   1.928   .     S
Cu1034 N1044   2.012   .     S
Cu1034 O1047   1.987   .     S
Cu1034 Cu1133  2.677   .     S
O1046  C1102   1.300   .     S
O1050  C1118   1.295   .     S
N1053  H1055   1.045   .     S
N1053  H1054   1.045   .     S
N1053  C1124   1.435   .     S
N1056  H1057   1.045   .     S
N1056  H1058   1.040   .     S
N1059  H1160   1.043   .     S
N1059  H1161   1.045   .     S
N1062  H1064   1.044   .     S
N1062  H1063   1.045   .     S
N1062  C1122   1.437   .     S
N1065  C1067   1.447   .     S
N1065  H1066   1.032   .     S
C1067  H1068   1.110   .     S
C1067  H1069   1.111   .     S
C1067  H1070   1.111   .     S
N1071  C1073   1.451   .     S
N1071  H1072   1.031   .     S
C1073  H1074   1.111   .     S
C1073  H1075   1.109   .     S
C1073  H1076   1.110   .     S
N1077  H1078   1.031   .     S
N1077  C1079   1.448   .     S
C1079  H1081   1.112   .     S
C1079  H1082   1.110   .     S
C1079  H1080   1.110   .     S
N1083  H1084   1.031   .     S
N1083  C1085   1.450   .     S
C1085  H1086   1.105   .     S
C1085  H1087   1.109   .     S
C1085  H1088   1.108   .     S
N1089  C1091   1.448   .     S
N1089  H1090   1.031   .     S
C1091  H1093   1.110   .     S
C1091  H1092   1.110   .     S
C1091  H1094   1.111   .     S
N1095  H1096   1.031   .     S
N1095  C1097   1.450   .     S
C1097  H1098   1.112   .     S
C1097  H1099   1.108   .     S
C1097  H1100   1.105   .     S
C1101  O1147   1.296   .     A
C1101  C912    1.472   1_655 S
C1101  O945    1.295   1_655 S
C1102  C1111   1.470   .     S
C1102  O1148   1.290   .     A
C1103  N1165   1.426   .     S
C1103  C1105   1.401   .     A
C1103  C1132   1.428   .     A
C1104  C1106   1.394   .     A
C1104  C1131   1.421   .     A
C1104  N1171   1.428   .     S
C1105  H1135   1.083   .     S
C1106  H1136   1.083   .     S
C1106  C230    1.398   1_556 S
C1107  N1177   1.425   .     S
C1107  C1709   1.398   1_545 S
C1107  C912    1.421   1_655 S
C1108  N1183   1.430   .     S
C1108  C1111   1.416   .     A
C1108  C1410   1.396   .     S
C1109  N1189   1.429   .     S
C1109  C1407   1.398   .     S
C1109  C911    1.411   1_655 S
C1110  C1112   1.420   .     A
C1110  N1195   1.427   .     S
C1110  C1708   1.396   1_545 S
C1113  C1115   1.415   .     A
C1113  N1144   1.367   .     A
C1113  H1139   1.080   .     S
C1114  C1116   1.414   .     A
C1114  H1140   1.080   .     S
C1114  N1143   1.368   .     A
C1115  H1141   1.081   .     S
C1115  N1143   1.366   .     A
C1116  N1144   1.365   .     A
C1116  H1142   1.080   .     S
C1117  O1151   1.297   .     A
C1117  C1119   1.476   .     S
C1117  O949    1.296   1_655 S
C1118  O1152   1.301   .     A
C1118  C1120   1.481   .     S
C1119  C1123   1.410   .     A
C1119  C1125   1.392   .     A
C1120  C1124   1.412   .     A
C1120  C1126   1.399   .     A
C1121  N1159   1.436   .     S
C1121  C1129   1.413   .     A
C1121  C1123   1.416   .     A
C1122  C1130   1.411   .     A
C1122  C1124   1.411   .     A
C1123  N956    1.432   1_655 S
C1125  H1138   1.082   .     S
C1125  C1127   1.403   .     A
C1126  H1137   1.078   .     S
C1126  C1128   1.405   .     A
C1127  C1129   1.410   .     A
C1127  C1131   1.418   .     A
C1128  C1132   1.428   .     A
C1128  C1130   1.418   .     A
C1129  C205    1.401   1_556 S
C1131  C232    1.420   1_556 S
Cu1133 O1145   1.985   .     S
Cu1133 O1152   1.916   .     S
Cu1133 O1149   1.928   .     S
Cu1133 N1143   2.012   .     S
Cu1133 O1148   1.987   .     S
Cu1134 O1151   1.916   .     S
Cu1134 O1146   1.985   .     S
Cu1134 O1150   1.928   .     S
Cu1134 N1144   2.012   .     S
Cu1134 O1147   1.987   .     S
Cu1134 Cu933   2.677   1_655 S
O1146  C902    1.300   1_655 S
O1150  C918    1.295   1_655 S
N1153  H1155   1.045   .     S
N1153  H1154   1.045   .     S
N1153  C924    1.435   1_655 S
N1156  H1157   1.045   .     S
N1156  H1158   1.040   .     S
N1159  H960    1.043   1_655 S
N1159  H961    1.045   1_655 S
N1162  H1164   1.044   .     S
N1162  H1163   1.045   .     S
N1162  C922    1.437   1_655 S
N1165  C1167   1.447   .     S
N1165  H1166   1.032   .     S
C1167  H1168   1.110   .     S
C1167  H1169   1.111   .     S
C1167  H1170   1.111   .     S
N1171  C1173   1.451   .     S
N1171  H1172   1.031   .     S
C1173  H1174   1.111   .     S
C1173  H1175   1.109   .     S
C1173  H1176   1.110   .     S
N1177  H1178   1.031   .     S
N1177  C1179   1.448   .     S
C1179  H1181   1.112   .     S
C1179  H1182   1.110   .     S
C1179  H1180   1.110   .     S
N1183  H1184   1.031   .     S
N1183  C1185   1.450   .     S
C1185  H1186   1.105   .     S
C1185  H1187   1.109   .     S
C1185  H1188   1.108   .     S
N1189  C1191   1.448   .     S
N1189  H1190   1.031   .     S
C1191  H1193   1.110   .     S
C1191  H1192   1.110   .     S
C1191  H1194   1.111   .     S
N1195  H1196   1.031   .     S
N1195  C1197   1.450   .     S
C1197  H1198   1.112   .     S
C1197  H1199   1.108   .     S
C1197  H1200   1.105   .     S
C1201  O1247   1.296   .     A
C1201  C1312   1.472   .     S
C1201  O1345   1.295   .     S
C1202  C1211   1.470   .     S
C1202  O1248   1.290   .     A
C1202  O1446   1.300   1_455 S
C1203  N1265   1.426   .     S
C1203  C1205   1.401   .     A
C1203  C1232   1.428   .     A
C1204  C1206   1.394   .     A
C1204  C1231   1.421   .     A
C1204  N1271   1.428   .     S
C1205  H1235   1.083   .     S
C1206  H1236   1.083   .     S
C1206  C330    1.398   1_556 S
C1207  N1277   1.425   .     S
C1207  C1312   1.421   .     S
C1208  N1283   1.430   .     S
C1208  C1211   1.416   .     A
C1208  C1510   1.396   .     S
C1209  N1289   1.429   .     S
C1209  C1507   1.398   .     S
C1209  C1311   1.411   .     S
C1210  C1212   1.420   .     A
C1210  N1295   1.427   .     S
C1211  C1409   1.411   1_455 S
C1212  C1407   1.421   1_455 S
C1212  C1401   1.472   1_455 S
C1213  C1215   1.415   .     A
C1213  N1244   1.367   .     A
C1213  H1239   1.080   .     S
C1214  C1216   1.414   .     A
C1214  H1240   1.080   .     S
C1214  N1243   1.368   .     A
C1215  H1241   1.081   .     S
C1215  N1243   1.366   .     A
C1216  N1244   1.365   .     A
C1216  H1242   1.080   .     S
C1217  O1251   1.297   .     A
C1217  C1219   1.476   .     S
C1217  O1349   1.296   .     S
C1218  O1252   1.301   .     A
C1218  C1220   1.481   .     S
C1218  O1450   1.295   1_455 S
C1219  C1223   1.410   .     A
C1219  C1225   1.392   .     A
C1220  C1224   1.412   .     A
C1220  C1226   1.399   .     A
C1221  N1259   1.436   .     S
C1221  C1229   1.413   .     A
C1221  C1223   1.416   .     A
C1222  C1230   1.411   .     A
C1222  C1224   1.411   .     A
C1222  N1462   1.437   1_455 S
C1223  N1356   1.432   .     S
C1224  N1453   1.435   1_455 S
C1225  H1238   1.082   .     S
C1225  C1227   1.403   .     A
C1226  H1237   1.078   .     S
C1226  C1228   1.405   .     A
C1227  C1229   1.410   .     A
C1227  C1231   1.418   .     A
C1228  C1232   1.428   .     A
C1228  C1230   1.418   .     A
C1229  C305    1.401   1_556 S
C1231  C332    1.420   1_556 S
Cu1233 O1245   1.985   .     S
Cu1233 O1252   1.916   .     S
Cu1233 O1249   1.928   .     S
Cu1233 N1243   2.012   .     S
Cu1233 O1248   1.987   .     S
Cu1233 Cu1434  2.677   1_455 S
Cu1234 O1251   1.916   .     S
Cu1234 O1246   1.985   .     S
Cu1234 O1250   1.928   .     S
Cu1234 N1244   2.012   .     S
Cu1234 O1247   1.987   .     S
Cu1234 Cu1333  2.677   .     S
O1245  C1401   1.295   1_455 S
O1246  C1302   1.300   .     S
O1249  C1417   1.296   1_455 S
O1250  C1318   1.295   .     S
N1253  H1255   1.045   .     S
N1253  H1254   1.045   .     S
N1253  C1324   1.435   .     S
N1256  H1257   1.045   .     S
N1256  H1258   1.040   .     S
N1256  C1423   1.432   1_455 S
N1259  H1360   1.043   .     S
N1259  H1361   1.045   .     S
H1260  N1459   1.043   1_455 S
H1261  N1459   1.045   1_455 S
N1262  H1264   1.044   .     S
N1262  H1263   1.045   .     S
N1262  C1322   1.437   .     S
N1265  C1267   1.447   .     S
N1265  H1266   1.032   .     S
C1267  H1268   1.110   .     S
C1267  H1269   1.111   .     S
C1267  H1270   1.111   .     S
N1271  C1273   1.451   .     S
N1271  H1272   1.031   .     S
C1273  H1274   1.111   .     S
C1273  H1275   1.109   .     S
C1273  H1276   1.110   .     S
N1277  H1278   1.031   .     S
N1277  C1279   1.448   .     S
C1279  H1281   1.112   .     S
C1279  H1282   1.110   .     S
C1279  H1280   1.110   .     S
N1283  H1284   1.031   .     S
N1283  C1285   1.450   .     S
C1285  H1286   1.105   .     S
C1285  H1287   1.109   .     S
C1285  H1288   1.108   .     S
N1289  C1291   1.448   .     S
N1289  H1290   1.031   .     S
C1291  H1293   1.110   .     S
C1291  H1292   1.110   .     S
C1291  H1294   1.111   .     S
N1295  H1296   1.031   .     S
N1295  C1297   1.450   .     S
C1297  H1298   1.112   .     S
C1297  H1299   1.108   .     S
C1297  H1300   1.105   .     S
C1301  O1347   1.296   .     A
C1301  C1412   1.472   .     S
C1301  O1445   1.295   .     S
C1302  C1311   1.470   .     S
C1302  O1348   1.290   .     A
C1303  N1365   1.426   .     S
C1303  C1305   1.401   .     A
C1303  C1332   1.428   .     A
C1304  C1306   1.394   .     A
C1304  C1331   1.421   .     A
C1304  N1371   1.428   .     S
C1305  H1335   1.083   .     S
C1306  H1336   1.083   .     S
C1306  C430    1.398   1_556 S
C1307  N1377   1.425   .     S
C1307  C1412   1.421   .     S
C1308  N1383   1.430   .     S
C1308  C1311   1.416   .     A
C1308  C1610   1.396   .     S
C1309  N1389   1.429   .     S
C1309  C1607   1.398   .     S
C1309  C1411   1.411   .     S
C1310  C1312   1.420   .     A
C1310  N1395   1.427   .     S
C1313  C1315   1.415   .     A
C1313  N1344   1.367   .     A
C1313  H1339   1.080   .     S
C1314  C1316   1.414   .     A
C1314  H1340   1.080   .     S
C1314  N1343   1.368   .     A
C1315  H1341   1.081   .     S
C1315  N1343   1.366   .     A
C1316  N1344   1.365   .     A
C1316  H1342   1.080   .     S
C1317  O1351   1.297   .     A
C1317  C1319   1.476   .     S
C1317  O1449   1.296   .     S
C1318  O1352   1.301   .     A
C1318  C1320   1.481   .     S
C1319  C1323   1.410   .     A
C1319  C1325   1.392   .     A
C1320  C1324   1.412   .     A
C1320  C1326   1.399   .     A
C1321  N1359   1.436   .     S
C1321  C1329   1.413   .     A
C1321  C1323   1.416   .     A
C1322  C1330   1.411   .     A
C1322  C1324   1.411   .     A
C1323  N1456   1.432   .     S
C1325  H1338   1.082   .     S
C1325  C1327   1.403   .     A
C1326  H1337   1.078   .     S
C1326  C1328   1.405   .     A
C1327  C1329   1.410   .     A
C1327  C1331   1.418   .     A
C1328  C1332   1.428   .     A
C1328  C1330   1.418   .     A
C1329  C405    1.401   1_556 S
C1331  C432    1.420   1_556 S
Cu1333 O1345   1.985   .     S
Cu1333 O1352   1.916   .     S
Cu1333 O1349   1.928   .     S
Cu1333 N1343   2.012   .     S
Cu1333 O1348   1.987   .     S
Cu1334 O1351   1.916   .     S
Cu1334 O1346   1.985   .     S
Cu1334 O1350   1.928   .     S
Cu1334 N1344   2.012   .     S
Cu1334 O1347   1.987   .     S
Cu1334 Cu1433  2.677   .     S
O1346  C1402   1.300   .     S
O1350  C1418   1.295   .     S
N1353  H1355   1.045   .     S
N1353  H1354   1.045   .     S
N1353  C1424   1.435   .     S
N1356  H1357   1.045   .     S
N1356  H1358   1.040   .     S
N1359  H1460   1.043   .     S
N1359  H1461   1.045   .     S
N1362  H1364   1.044   .     S
N1362  H1363   1.045   .     S
N1362  C1422   1.437   .     S
N1365  C1367   1.447   .     S
N1365  H1366   1.032   .     S
C1367  H1368   1.110   .     S
C1367  H1369   1.111   .     S
C1367  H1370   1.111   .     S
N1371  C1373   1.451   .     S
N1371  H1372   1.031   .     S
C1373  H1374   1.111   .     S
C1373  H1375   1.109   .     S
C1373  H1376   1.110   .     S
N1377  H1378   1.031   .     S
N1377  C1379   1.448   .     S
C1379  H1381   1.112   .     S
C1379  H1382   1.110   .     S
C1379  H1380   1.110   .     S
N1383  H1384   1.031   .     S
N1383  C1385   1.450   .     S
C1385  H1386   1.105   .     S
C1385  H1387   1.109   .     S
C1385  H1388   1.108   .     S
N1389  C1391   1.448   .     S
N1389  H1390   1.031   .     S
C1391  H1393   1.110   .     S
C1391  H1392   1.110   .     S
C1391  H1394   1.111   .     S
N1395  H1396   1.031   .     S
N1395  C1397   1.450   .     S
C1397  H1398   1.112   .     S
C1397  H1399   1.108   .     S
C1397  H1400   1.105   .     S
C1401  O1447   1.296   .     A
C1401  C1212   1.472   1_655 S
C1401  O1245   1.295   1_655 S
C1402  C1411   1.470   .     S
C1402  O1448   1.290   .     A
C1403  N1465   1.426   .     S
C1403  C1405   1.401   .     A
C1403  C1432   1.428   .     A
C1404  C1406   1.394   .     A
C1404  C1431   1.421   .     A
C1404  N1471   1.428   .     S
C1405  H1435   1.083   .     S
C1406  H1436   1.083   .     S
C1406  C530    1.398   1_556 S
C1407  N1477   1.425   .     S
C1407  C1212   1.421   1_655 S
C1408  N1483   1.430   .     S
C1408  C1411   1.416   .     A
C1408  C1710   1.396   .     S
C1409  N1489   1.429   .     S
C1409  C1707   1.398   .     S
C1409  C1211   1.411   1_655 S
C1410  C1412   1.420   .     A
C1410  N1495   1.427   .     S
C1413  C1415   1.415   .     A
C1413  N1444   1.367   .     A
C1413  H1439   1.080   .     S
C1414  C1416   1.414   .     A
C1414  H1440   1.080   .     S
C1414  N1443   1.368   .     A
C1415  H1441   1.081   .     S
C1415  N1443   1.366   .     A
C1416  N1444   1.365   .     A
C1416  H1442   1.080   .     S
C1417  O1451   1.297   .     A
C1417  C1419   1.476   .     S
C1417  O1249   1.296   1_655 S
C1418  O1452   1.301   .     A
C1418  C1420   1.481   .     S
C1419  C1423   1.410   .     A
C1419  C1425   1.392   .     A
C1420  C1424   1.412   .     A
C1420  C1426   1.399   .     A
C1421  N1459   1.436   .     S
C1421  C1429   1.413   .     A
C1421  C1423   1.416   .     A
C1422  C1430   1.411   .     A
C1422  C1424   1.411   .     A
C1423  N1256   1.432   1_655 S
C1425  H1438   1.082   .     S
C1425  C1427   1.403   .     A
C1426  H1437   1.078   .     S
C1426  C1428   1.405   .     A
C1427  C1429   1.410   .     A
C1427  C1431   1.418   .     A
C1428  C1432   1.428   .     A
C1428  C1430   1.418   .     A
C1429  C505    1.401   1_556 S
C1431  C532    1.420   1_556 S
Cu1433 O1445   1.985   .     S
Cu1433 O1452   1.916   .     S
Cu1433 O1449   1.928   .     S
Cu1433 N1443   2.012   .     S
Cu1433 O1448   1.987   .     S
Cu1434 O1451   1.916   .     S
Cu1434 O1446   1.985   .     S
Cu1434 O1450   1.928   .     S
Cu1434 N1444   2.012   .     S
Cu1434 O1447   1.987   .     S
Cu1434 Cu1233  2.677   1_655 S
O1446  C1202   1.300   1_655 S
O1450  C1218   1.295   1_655 S
N1453  H1455   1.045   .     S
N1453  H1454   1.045   .     S
N1453  C1224   1.435   1_655 S
N1456  H1457   1.045   .     S
N1456  H1458   1.040   .     S
N1459  H1260   1.043   1_655 S
N1459  H1261   1.045   1_655 S
N1462  H1464   1.044   .     S
N1462  H1463   1.045   .     S
N1462  C1222   1.437   1_655 S
N1465  C1467   1.447   .     S
N1465  H1466   1.032   .     S
C1467  H1468   1.110   .     S
C1467  H1469   1.111   .     S
C1467  H1470   1.111   .     S
N1471  C1473   1.451   .     S
N1471  H1472   1.031   .     S
C1473  H1474   1.111   .     S
C1473  H1475   1.109   .     S
C1473  H1476   1.110   .     S
N1477  H1478   1.031   .     S
N1477  C1479   1.448   .     S
C1479  H1481   1.112   .     S
C1479  H1482   1.110   .     S
C1479  H1480   1.110   .     S
N1483  H1484   1.031   .     S
N1483  C1485   1.450   .     S
C1485  H1486   1.105   .     S
C1485  H1487   1.109   .     S
C1485  H1488   1.108   .     S
N1489  C1491   1.448   .     S
N1489  H1490   1.031   .     S
C1491  H1493   1.110   .     S
C1491  H1492   1.110   .     S
C1491  H1494   1.111   .     S
N1495  H1496   1.031   .     S
N1495  C1497   1.450   .     S
C1497  H1498   1.112   .     S
C1497  H1499   1.108   .     S
C1497  H1500   1.105   .     S
C1501  O1547   1.296   .     A
C1501  C1612   1.472   .     S
C1501  O1645   1.295   .     S
C1502  C1511   1.470   .     S
C1502  O1548   1.290   .     A
C1502  O1746   1.300   1_455 S
C1503  N1565   1.426   .     S
C1503  C1505   1.401   .     A
C1503  C1532   1.428   .     A
C1504  C1506   1.394   .     A
C1504  C1531   1.421   .     A
C1504  N1571   1.428   .     S
C1505  H1535   1.083   .     S
C1506  H1536   1.083   .     S
C1506  C630    1.398   1_556 S
C1507  N1577   1.425   .     S
C1507  C1612   1.421   .     S
C1508  N1583   1.430   .     S
C1508  C1511   1.416   .     A
C1508  C910    1.396   1_565 S
C1509  N1589   1.429   .     S
C1509  C907    1.398   1_565 S
C1509  C1611   1.411   .     S
C1510  C1512   1.420   .     A
C1510  N1595   1.427   .     S
C1511  C1709   1.411   1_455 S
C1512  C1707   1.421   1_455 S
C1512  C1701   1.472   1_455 S
C1513  C1515   1.415   .     A
C1513  N1544   1.367   .     A
C1513  H1539   1.080   .     S
C1514  C1516   1.414   .     A
C1514  H1540   1.080   .     S
C1514  N1543   1.368   .     A
C1515  H1541   1.081   .     S
C1515  N1543   1.366   .     A
C1516  N1544   1.365   .     A
C1516  H1542   1.080   .     S
C1517  O1551   1.297   .     A
C1517  C1519   1.476   .     S
C1517  O1649   1.296   .     S
C1518  O1552   1.301   .     A
C1518  C1520   1.481   .     S
C1518  O1750   1.295   1_455 S
C1519  C1523   1.410   .     A
C1519  C1525   1.392   .     A
C1520  C1524   1.412   .     A
C1520  C1526   1.399   .     A
C1521  N1559   1.436   .     S
C1521  C1529   1.413   .     A
C1521  C1523   1.416   .     A
C1522  C1530   1.411   .     A
C1522  C1524   1.411   .     A
C1522  N1762   1.437   1_455 S
C1523  N1656   1.432   .     S
C1524  N1753   1.435   1_455 S
C1525  H1538   1.082   .     S
C1525  C1527   1.403   .     A
C1526  H1537   1.078   .     S
C1526  C1528   1.405   .     A
C1527  C1529   1.410   .     A
C1527  C1531   1.418   .     A
C1528  C1532   1.428   .     A
C1528  C1530   1.418   .     A
C1529  C605    1.401   1_556 S
C1531  C632    1.420   1_556 S
Cu1533 O1545   1.985   .     S
Cu1533 O1552   1.916   .     S
Cu1533 O1549   1.928   .     S
Cu1533 N1543   2.012   .     S
Cu1533 O1548   1.987   .     S
Cu1533 Cu1734  2.677   1_455 S
Cu1534 O1551   1.916   .     S
Cu1534 O1546   1.985   .     S
Cu1534 O1550   1.928   .     S
Cu1534 N1544   2.012   .     S
Cu1534 O1547   1.987   .     S
Cu1534 Cu1633  2.677   .     S
O1545  C1701   1.295   1_455 S
O1546  C1602   1.300   .     S
O1549  C1717   1.296   1_455 S
O1550  C1618   1.295   .     S
N1553  H1555   1.045   .     S
N1553  H1554   1.045   .     S
N1553  C1624   1.435   .     S
N1556  H1557   1.045   .     S
N1556  H1558   1.040   .     S
N1556  C1723   1.432   1_455 S
N1559  H1660   1.043   .     S
N1559  H1661   1.045   .     S
H1560  N1759   1.043   1_455 S
H1561  N1759   1.045   1_455 S
N1562  H1564   1.044   .     S
N1562  H1563   1.045   .     S
N1562  C1622   1.437   .     S
N1565  C1567   1.447   .     S
N1565  H1566   1.032   .     S
C1567  H1568   1.110   .     S
C1567  H1569   1.111   .     S
C1567  H1570   1.111   .     S
N1571  C1573   1.451   .     S
N1571  H1572   1.031   .     S
C1573  H1574   1.111   .     S
C1573  H1575   1.109   .     S
C1573  H1576   1.110   .     S
N1577  H1578   1.031   .     S
N1577  C1579   1.448   .     S
C1579  H1581   1.112   .     S
C1579  H1582   1.110   .     S
C1579  H1580   1.110   .     S
N1583  H1584   1.031   .     S
N1583  C1585   1.450   .     S
C1585  H1586   1.105   .     S
C1585  H1587   1.109   .     S
C1585  H1588   1.108   .     S
N1589  C1591   1.448   .     S
N1589  H1590   1.031   .     S
C1591  H1593   1.110   .     S
C1591  H1592   1.110   .     S
C1591  H1594   1.111   .     S
N1595  H1596   1.031   .     S
N1595  C1597   1.450   .     S
C1597  H1598   1.112   .     S
C1597  H1599   1.108   .     S
C1597  H1600   1.105   .     S
C1601  O1647   1.296   .     A
C1601  C1712   1.472   .     S
C1601  O1745   1.295   .     S
C1602  C1611   1.470   .     S
C1602  O1648   1.290   .     A
C1603  N1665   1.426   .     S
C1603  C1605   1.401   .     A
C1603  C1632   1.428   .     A
C1604  C1606   1.394   .     A
C1604  C1631   1.421   .     A
C1604  N1671   1.428   .     S
C1605  H1635   1.083   .     S
C1606  H1636   1.083   .     S
C1606  C730    1.398   1_556 S
C1607  N1677   1.425   .     S
C1607  C1712   1.421   .     S
C1608  N1683   1.430   .     S
C1608  C1611   1.416   .     A
C1608  C1010   1.396   1_565 S
C1609  N1689   1.429   .     S
C1609  C1007   1.398   1_565 S
C1609  C1711   1.411   .     S
C1610  C1612   1.420   .     A
C1610  N1695   1.427   .     S
C1613  C1615   1.415   .     A
C1613  N1644   1.367   .     A
C1613  H1639   1.080   .     S
C1614  C1616   1.414   .     A
C1614  H1640   1.080   .     S
C1614  N1643   1.368   .     A
C1615  H1641   1.081   .     S
C1615  N1643   1.366   .     A
C1616  N1644   1.365   .     A
C1616  H1642   1.080   .     S
C1617  O1651   1.297   .     A
C1617  C1619   1.476   .     S
C1617  O1749   1.296   .     S
C1618  O1652   1.301   .     A
C1618  C1620   1.481   .     S
C1619  C1623   1.410   .     A
C1619  C1625   1.392   .     A
C1620  C1624   1.412   .     A
C1620  C1626   1.399   .     A
C1621  N1659   1.436   .     S
C1621  C1629   1.413   .     A
C1621  C1623   1.416   .     A
C1622  C1630   1.411   .     A
C1622  C1624   1.411   .     A
C1623  N1756   1.432   .     S
C1625  H1638   1.082   .     S
C1625  C1627   1.403   .     A
C1626  H1637   1.078   .     S
C1626  C1628   1.405   .     A
C1627  C1629   1.410   .     A
C1627  C1631   1.418   .     A
C1628  C1632   1.428   .     A
C1628  C1630   1.418   .     A
C1629  C705    1.401   1_556 S
C1631  C732    1.420   1_556 S
Cu1633 O1645   1.985   .     S
Cu1633 O1652   1.916   .     S
Cu1633 O1649   1.928   .     S
Cu1633 N1643   2.012   .     S
Cu1633 O1648   1.987   .     S
Cu1634 O1651   1.916   .     S
Cu1634 O1646   1.985   .     S
Cu1634 O1650   1.928   .     S
Cu1634 N1644   2.012   .     S
Cu1634 O1647   1.987   .     S
Cu1634 Cu1733  2.677   .     S
O1646  C1702   1.300   .     S
O1650  C1718   1.295   .     S
N1653  H1655   1.045   .     S
N1653  H1654   1.045   .     S
N1653  C1724   1.435   .     S
N1656  H1657   1.045   .     S
N1656  H1658   1.040   .     S
N1659  H1760   1.043   .     S
N1659  H1761   1.045   .     S
N1662  H1664   1.044   .     S
N1662  H1663   1.045   .     S
N1662  C1722   1.437   .     S
N1665  C1667   1.447   .     S
N1665  H1666   1.032   .     S
C1667  H1668   1.110   .     S
C1667  H1669   1.111   .     S
C1667  H1670   1.111   .     S
N1671  C1673   1.451   .     S
N1671  H1672   1.031   .     S
C1673  H1674   1.111   .     S
C1673  H1675   1.109   .     S
C1673  H1676   1.110   .     S
N1677  H1678   1.031   .     S
N1677  C1679   1.448   .     S
C1679  H1681   1.112   .     S
C1679  H1682   1.110   .     S
C1679  H1680   1.110   .     S
N1683  H1684   1.031   .     S
N1683  C1685   1.450   .     S
C1685  H1686   1.105   .     S
C1685  H1687   1.109   .     S
C1685  H1688   1.108   .     S
N1689  C1691   1.448   .     S
N1689  H1690   1.031   .     S
C1691  H1693   1.110   .     S
C1691  H1692   1.110   .     S
C1691  H1694   1.111   .     S
N1695  H1696   1.031   .     S
N1695  C1697   1.450   .     S
C1697  H1698   1.112   .     S
C1697  H1699   1.108   .     S
C1697  H1700   1.105   .     S
C1701  O1747   1.296   .     A
C1701  C1512   1.472   1_655 S
C1701  O1545   1.295   1_655 S
C1702  C1711   1.470   .     S
C1702  O1748   1.290   .     A
C1703  N1765   1.426   .     S
C1703  C1705   1.401   .     A
C1703  C1732   1.428   .     A
C1704  C1706   1.394   .     A
C1704  C1731   1.421   .     A
C1704  N1771   1.428   .     S
C1705  H1735   1.083   .     S
C1706  H1736   1.083   .     S
C1706  C830    1.398   1_556 S
C1707  N1777   1.425   .     S
C1707  C1512   1.421   1_655 S
C1708  N1783   1.430   .     S
C1708  C1711   1.416   .     A
C1708  C1110   1.396   1_565 S
C1709  N1789   1.429   .     S
C1709  C1107   1.398   1_565 S
C1709  C1511   1.411   1_655 S
C1710  C1712   1.420   .     A
C1710  N1795   1.427   .     S
C1713  C1715   1.415   .     A
C1713  N1744   1.367   .     A
C1713  H1739   1.080   .     S
C1714  C1716   1.414   .     A
C1714  H1740   1.080   .     S
C1714  N1743   1.368   .     A
C1715  H1741   1.081   .     S
C1715  N1743   1.366   .     A
C1716  N1744   1.365   .     A
C1716  H1742   1.080   .     S
C1717  O1751   1.297   .     A
C1717  C1719   1.476   .     S
C1717  O1549   1.296   1_655 S
C1718  O1752   1.301   .     A
C1718  C1720   1.481   .     S
C1719  C1723   1.410   .     A
C1719  C1725   1.392   .     A
C1720  C1724   1.412   .     A
C1720  C1726   1.399   .     A
C1721  N1759   1.436   .     S
C1721  C1729   1.413   .     A
C1721  C1723   1.416   .     A
C1722  C1730   1.411   .     A
C1722  C1724   1.411   .     A
C1723  N1556   1.432   1_655 S
C1725  H1738   1.082   .     S
C1725  C1727   1.403   .     A
C1726  H1737   1.078   .     S
C1726  C1728   1.405   .     A
C1727  C1729   1.410   .     A
C1727  C1731   1.418   .     A
C1728  C1732   1.428   .     A
C1728  C1730   1.418   .     A
C1729  C805    1.401   1_556 S
C1731  C832    1.420   1_556 S
Cu1733 O1745   1.985   .     S
Cu1733 O1752   1.916   .     S
Cu1733 O1749   1.928   .     S
Cu1733 N1743   2.012   .     S
Cu1733 O1748   1.987   .     S
Cu1734 O1751   1.916   .     S
Cu1734 O1746   1.985   .     S
Cu1734 O1750   1.928   .     S
Cu1734 N1744   2.012   .     S
Cu1734 O1747   1.987   .     S
Cu1734 Cu1533  2.677   1_655 S
O1746  C1502   1.300   1_655 S
O1750  C1518   1.295   1_655 S
N1753  H1755   1.045   .     S
N1753  H1754   1.045   .     S
N1753  C1524   1.435   1_655 S
N1756  H1757   1.045   .     S
N1756  H1758   1.040   .     S
N1759  H1560   1.043   1_655 S
N1759  H1561   1.045   1_655 S
N1762  H1764   1.044   .     S
N1762  H1763   1.045   .     S
N1762  C1522   1.437   1_655 S
N1765  C1767   1.447   .     S
N1765  H1766   1.032   .     S
C1767  H1768   1.110   .     S
C1767  H1769   1.111   .     S
C1767  H1770   1.111   .     S
N1771  C1773   1.451   .     S
N1771  H1772   1.031   .     S
C1773  H1774   1.111   .     S
C1773  H1775   1.109   .     S
C1773  H1776   1.110   .     S
N1777  H1778   1.031   .     S
N1777  C1779   1.448   .     S
C1779  H1781   1.112   .     S
C1779  H1782   1.110   .     S
C1779  H1780   1.110   .     S
N1783  H1784   1.031   .     S
N1783  C1785   1.450   .     S
C1785  H1786   1.105   .     S
C1785  H1787   1.109   .     S
C1785  H1788   1.108   .     S
N1789  C1791   1.448   .     S
N1789  H1790   1.031   .     S
C1791  H1793   1.110   .     S
C1791  H1792   1.110   .     S
C1791  H1794   1.111   .     S
N1795  H1796   1.031   .     S
N1795  C1797   1.450   .     S
C1797  H1798   1.112   .     S
C1797  H1799   1.108   .     S
C1797  H1800   1.105   .     S
