data_str_m2_o10_o18_pcu_sym.24
_audit_creation_date              2020-01-03
_audit_creation_method            'Materials Studio'
_symmetry_space_group_name_H-M    'P1'
_symmetry_Int_Tables_number       1
_symmetry_cell_setting            triclinic
loop_
_symmetry_equiv_pos_as_xyz
  x,y,z
_cell_length_a                    22.2680
_cell_length_b                    26.0749
_cell_length_c                    31.4308
_cell_angle_alpha                 94.2341
_cell_angle_beta                  75.1919
_cell_angle_gamma                 103.1529
loop_
_atom_site_label
_atom_site_type_symbol
_atom_site_fract_x
_atom_site_fract_y
_atom_site_fract_z
_atom_site_U_iso_or_equiv
_atom_site_adp_type
_atom_site_occupancy
C1     C     0.18169   0.26674   0.25133   0.00000  Uiso   1.00
C2     C     0.20466   0.16690   0.16647   0.00000  Uiso   1.00
C3     C     0.10388   0.15031   0.38017   0.00000  Uiso   1.00
C4     C     0.22697   0.16240   0.11777   0.00000  Uiso   1.00
C5     C     0.03768   0.08496   0.43287   0.00000  Uiso   1.00
C6     C     0.31225   0.18698   0.05243   0.00000  Uiso   1.00
C7     C     0.05045   0.10926   0.39272   0.00000  Uiso   1.00
C8     C     0.29123   0.18254   0.09789   0.00000  Uiso   1.00
C9     C     0.14165   0.17043   0.41011   0.00000  Uiso   1.00
C10    C     0.18417   0.14088   0.09076   0.00000  Uiso   1.00
C11    C     0.13575   0.13970   0.44710   0.00000  Uiso   1.00
C12    C     0.15161   0.06659   0.24872   0.00000  Uiso   1.00
C13    C     0.20600   0.14418   0.04396   0.00000  Uiso   1.00
C14    C     0.08094   0.09847   0.45937   0.00000  Uiso   1.00
C15    C     0.26961   0.17092   0.02571   0.00000  Uiso   1.00
C16    C     0.18225   0.14792   0.47227   0.00000  Uiso   1.00
C17    C     0.16590   0.12547   0.01451   0.00000  Uiso   1.00
C18    C     0.11569   0.12063   0.11139   0.00000  Uiso   1.00
C19    C     0.17756   0.22655   0.40702   0.00000  Uiso   1.00
C20    C     0.11281   0.08292   0.02425   0.00000  Uiso   1.00
C21    C     0.24627   0.17286   0.45488   0.00000  Uiso   1.00
C22    C     0.07103   0.06973   0.49714   0.00000  Uiso   1.00
C23    C     0.28977   0.18256   0.48091   0.00000  Uiso   1.00
C24    C     0.19017   0.32269   0.25202   0.00000  Uiso   1.00
C25    C     0.14310   0.01064   0.24811   0.00000  Uiso   1.00
C26    C     0.12799   0.16262   0.33324   0.00000  Uiso   1.00
Cu27   Cu    0.10737   0.16108   0.24516   0.00000  Uiso   1.00
Cu28   Cu    0.22596   0.17225   0.25484   0.00000  Uiso   1.00
H29    H     0.03077   0.03677   0.00580   0.00000  Uiso   1.00
H30    H     0.09773   0.32019   0.24440   0.00000  Uiso   1.00
H31    H     0.00136   0.20514   0.28455   0.00000  Uiso   1.00
H32    H     0.33198   0.12821   0.21544   0.00000  Uiso   1.00
H33    H     0.08003   0.13738   0.10284   0.00000  Uiso   1.00
H34    H     0.19671   0.24533   0.43410   0.00000  Uiso   1.00
H35    H     0.00536   0.20167   0.46640   0.00000  Uiso   1.00
H36    H     0.32483   0.19788   0.11771   0.00000  Uiso   1.00
H37    H     0.02030   0.09411   0.37048   0.00000  Uiso   1.00
H38    H     0.32946   0.05316   0.44184   0.00000  Uiso   1.00
H39    H     0.02820   0.20542   0.03826   0.00000  Uiso   1.00
H40    H     0.10485   0.05719   0.05142   0.00000  Uiso   1.00
H41    H     0.26390   0.18317   0.42053   0.00000  Uiso   1.00
H42    H     0.23553   0.01315   0.25574   0.00000  Uiso   1.00
N43    N     0.31506   0.18068   0.26212   0.00000  Uiso   1.00
N44    N     0.01827   0.15265   0.23788   0.00000  Uiso   1.00
O45    O     0.12815   0.23809   0.24686   0.00000  Uiso   1.00
O46    O     0.18319   0.25359   0.37555   0.00000  Uiso   1.00
O47    O     0.20518   0.09524   0.25314   0.00000  Uiso   1.00
O48    O     0.22829   0.24753   0.25502   0.00000  Uiso   1.00
O49    O     0.10504   0.08580   0.24498   0.00000  Uiso   1.00
O50    O     0.08851   0.15930   0.30854   0.00000  Uiso   1.00
O51    O     0.24482   0.17403   0.19146   0.00000  Uiso   1.00
O52    O     0.18866   0.16874   0.31671   0.00000  Uiso   1.00
O53    O     0.14468   0.16460   0.18329   0.00000  Uiso   1.00
O54    O     0.09879   0.08354   0.13645   0.00000  Uiso   1.00
C55    C     0.51503   0.26674   0.25133   0.00000  Uiso   1.00
C56    C     0.53799   0.16690   0.16647   0.00000  Uiso   1.00
C57    C     0.43721   0.15031   0.38017   0.00000  Uiso   1.00
C58    C     0.56031   0.16240   0.11777   0.00000  Uiso   1.00
C59    C     0.37101   0.08496   0.43287   0.00000  Uiso   1.00
C60    C     0.64558   0.18698   0.05243   0.00000  Uiso   1.00
C61    C     0.38378   0.10926   0.39272   0.00000  Uiso   1.00
C62    C     0.62456   0.18254   0.09789   0.00000  Uiso   1.00
C63    C     0.47498   0.17043   0.41011   0.00000  Uiso   1.00
C64    C     0.51750   0.14088   0.09076   0.00000  Uiso   1.00
C65    C     0.46909   0.13970   0.44710   0.00000  Uiso   1.00
C66    C     0.48495   0.06659   0.24872   0.00000  Uiso   1.00
C67    C     0.53933   0.14418   0.04396   0.00000  Uiso   1.00
C68    C     0.41427   0.09847   0.45937   0.00000  Uiso   1.00
C69    C     0.60294   0.17092   0.02571   0.00000  Uiso   1.00
C70    C     0.51558   0.14792   0.47227   0.00000  Uiso   1.00
C71    C     0.49924   0.12547   0.01451   0.00000  Uiso   1.00
C72    C     0.44903   0.12063   0.11139   0.00000  Uiso   1.00
C73    C     0.51089   0.22655   0.40702   0.00000  Uiso   1.00
C74    C     0.44614   0.08292   0.02425   0.00000  Uiso   1.00
C75    C     0.57961   0.17286   0.45488   0.00000  Uiso   1.00
C76    C     0.40437   0.06973   0.49714   0.00000  Uiso   1.00
C77    C     0.62310   0.18256   0.48091   0.00000  Uiso   1.00
C78    C     0.52350   0.32269   0.25202   0.00000  Uiso   1.00
C79    C     0.47643   0.01064   0.24811   0.00000  Uiso   1.00
C80    C     0.46133   0.16262   0.33324   0.00000  Uiso   1.00
Cu81   Cu    0.44071   0.16108   0.24516   0.00000  Uiso   1.00
Cu82   Cu    0.55929   0.17225   0.25484   0.00000  Uiso   1.00
H83    H     0.36411   0.03677   0.00580   0.00000  Uiso   1.00
H84    H     0.43107   0.32019   0.24440   0.00000  Uiso   1.00
H85    H     0.33470   0.20514   0.28455   0.00000  Uiso   1.00
H86    H     0.66532   0.12821   0.21544   0.00000  Uiso   1.00
H87    H     0.41336   0.13738   0.10284   0.00000  Uiso   1.00
H88    H     0.53005   0.24533   0.43410   0.00000  Uiso   1.00
H89    H     0.33869   0.20167   0.46640   0.00000  Uiso   1.00
H90    H     0.65816   0.19788   0.11771   0.00000  Uiso   1.00
H91    H     0.35363   0.09411   0.37048   0.00000  Uiso   1.00
H92    H     0.66279   0.05316   0.44184   0.00000  Uiso   1.00
H93    H     0.36153   0.20542   0.03826   0.00000  Uiso   1.00
H94    H     0.43818   0.05719   0.05142   0.00000  Uiso   1.00
H95    H     0.59723   0.18317   0.42053   0.00000  Uiso   1.00
H96    H     0.56886   0.01315   0.25574   0.00000  Uiso   1.00
N97    N     0.64839   0.18068   0.26212   0.00000  Uiso   1.00
N98    N     0.35161   0.15265   0.23788   0.00000  Uiso   1.00
O99    O     0.46148   0.23809   0.24686   0.00000  Uiso   1.00
O100   O     0.51652   0.25359   0.37555   0.00000  Uiso   1.00
O101   O     0.53852   0.09524   0.25314   0.00000  Uiso   1.00
O102   O     0.56163   0.24753   0.25502   0.00000  Uiso   1.00
O103   O     0.43837   0.08580   0.24498   0.00000  Uiso   1.00
O104   O     0.42185   0.15930   0.30854   0.00000  Uiso   1.00
O105   O     0.57815   0.17403   0.19146   0.00000  Uiso   1.00
O106   O     0.52199   0.16874   0.31671   0.00000  Uiso   1.00
O107   O     0.47801   0.16460   0.18329   0.00000  Uiso   1.00
O108   O     0.43213   0.08354   0.13645   0.00000  Uiso   1.00
C109   C     0.84836   0.26674   0.25133   0.00000  Uiso   1.00
C110   C     0.87132   0.16690   0.16647   0.00000  Uiso   1.00
C111   C     0.77055   0.15031   0.38017   0.00000  Uiso   1.00
C112   C     0.89364   0.16240   0.11777   0.00000  Uiso   1.00
C113   C     0.70434   0.08496   0.43287   0.00000  Uiso   1.00
C114   C     0.97891   0.18698   0.05243   0.00000  Uiso   1.00
C115   C     0.71712   0.10926   0.39272   0.00000  Uiso   1.00
C116   C     0.95789   0.18254   0.09789   0.00000  Uiso   1.00
C117   C     0.80831   0.17043   0.41011   0.00000  Uiso   1.00
C118   C     0.85083   0.14088   0.09076   0.00000  Uiso   1.00
C119   C     0.80242   0.13970   0.44710   0.00000  Uiso   1.00
C120   C     0.81828   0.06659   0.24872   0.00000  Uiso   1.00
C121   C     0.87267   0.14418   0.04396   0.00000  Uiso   1.00
C122   C     0.74760   0.09847   0.45937   0.00000  Uiso   1.00
C123   C     0.93628   0.17092   0.02571   0.00000  Uiso   1.00
C124   C     0.84891   0.14792   0.47227   0.00000  Uiso   1.00
C125   C     0.83257   0.12547   0.01451   0.00000  Uiso   1.00
C126   C     0.78236   0.12063   0.11139   0.00000  Uiso   1.00
C127   C     0.84422   0.22655   0.40702   0.00000  Uiso   1.00
C128   C     0.77947   0.08292   0.02425   0.00000  Uiso   1.00
C129   C     0.91294   0.17286   0.45488   0.00000  Uiso   1.00
C130   C     0.73770   0.06973   0.49714   0.00000  Uiso   1.00
C131   C     0.95644   0.18256   0.48091   0.00000  Uiso   1.00
C132   C     0.85683   0.32269   0.25202   0.00000  Uiso   1.00
C133   C     0.80977   0.01064   0.24811   0.00000  Uiso   1.00
C134   C     0.79466   0.16262   0.33324   0.00000  Uiso   1.00
Cu135  Cu    0.77404   0.16108   0.24516   0.00000  Uiso   1.00
Cu136  Cu    0.89263   0.17225   0.25484   0.00000  Uiso   1.00
H137   H     0.69744   0.03677   0.00580   0.00000  Uiso   1.00
H138   H     0.76440   0.32019   0.24440   0.00000  Uiso   1.00
H139   H     0.66803   0.20514   0.28455   0.00000  Uiso   1.00
H140   H     0.99865   0.12821   0.21544   0.00000  Uiso   1.00
H141   H     0.74669   0.13738   0.10284   0.00000  Uiso   1.00
H142   H     0.86338   0.24533   0.43410   0.00000  Uiso   1.00
H143   H     0.67203   0.20167   0.46640   0.00000  Uiso   1.00
H144   H     0.99149   0.19788   0.11771   0.00000  Uiso   1.00
H145   H     0.68696   0.09411   0.37048   0.00000  Uiso   1.00
H146   H     0.99613   0.05316   0.44184   0.00000  Uiso   1.00
H147   H     0.69487   0.20542   0.03826   0.00000  Uiso   1.00
H148   H     0.77152   0.05719   0.05142   0.00000  Uiso   1.00
H149   H     0.93057   0.18317   0.42053   0.00000  Uiso   1.00
H150   H     0.90220   0.01315   0.25574   0.00000  Uiso   1.00
N151   N     0.98173   0.18068   0.26212   0.00000  Uiso   1.00
N152   N     0.68494   0.15265   0.23788   0.00000  Uiso   1.00
O153   O     0.79482   0.23809   0.24686   0.00000  Uiso   1.00
O154   O     0.84985   0.25359   0.37555   0.00000  Uiso   1.00
O155   O     0.87185   0.09524   0.25314   0.00000  Uiso   1.00
O156   O     0.89496   0.24753   0.25502   0.00000  Uiso   1.00
O157   O     0.77171   0.08580   0.24498   0.00000  Uiso   1.00
O158   O     0.75518   0.15930   0.30854   0.00000  Uiso   1.00
O159   O     0.91149   0.17403   0.19146   0.00000  Uiso   1.00
O160   O     0.85532   0.16874   0.31671   0.00000  Uiso   1.00
O161   O     0.81134   0.16460   0.18329   0.00000  Uiso   1.00
O162   O     0.76546   0.08354   0.13645   0.00000  Uiso   1.00
C163   C     0.18169   0.60008   0.25133   0.00000  Uiso   1.00
C164   C     0.20466   0.50023   0.16647   0.00000  Uiso   1.00
C165   C     0.10388   0.48364   0.38017   0.00000  Uiso   1.00
C166   C     0.22697   0.49574   0.11777   0.00000  Uiso   1.00
C167   C     0.03768   0.41829   0.43287   0.00000  Uiso   1.00
C168   C     0.31225   0.52032   0.05243   0.00000  Uiso   1.00
C169   C     0.05045   0.44259   0.39272   0.00000  Uiso   1.00
C170   C     0.29123   0.51587   0.09789   0.00000  Uiso   1.00
C171   C     0.14165   0.50377   0.41011   0.00000  Uiso   1.00
C172   C     0.18417   0.47421   0.09076   0.00000  Uiso   1.00
C173   C     0.13575   0.47303   0.44710   0.00000  Uiso   1.00
C174   C     0.15161   0.39992   0.24872   0.00000  Uiso   1.00
C175   C     0.20600   0.47751   0.04396   0.00000  Uiso   1.00
C176   C     0.08094   0.43180   0.45937   0.00000  Uiso   1.00
C177   C     0.26961   0.50425   0.02571   0.00000  Uiso   1.00
C178   C     0.18225   0.48126   0.47227   0.00000  Uiso   1.00
C179   C     0.16590   0.45881   0.01451   0.00000  Uiso   1.00
C180   C     0.11569   0.45396   0.11139   0.00000  Uiso   1.00
C181   C     0.17756   0.55988   0.40702   0.00000  Uiso   1.00
C182   C     0.11281   0.41625   0.02425   0.00000  Uiso   1.00
C183   C     0.24627   0.50619   0.45488   0.00000  Uiso   1.00
C184   C     0.07103   0.40306   0.49714   0.00000  Uiso   1.00
C185   C     0.28977   0.51589   0.48091   0.00000  Uiso   1.00
C186   C     0.19017   0.65602   0.25202   0.00000  Uiso   1.00
C187   C     0.14310   0.34398   0.24811   0.00000  Uiso   1.00
C188   C     0.12799   0.49595   0.33324   0.00000  Uiso   1.00
Cu189  Cu    0.10737   0.49441   0.24516   0.00000  Uiso   1.00
Cu190  Cu    0.22596   0.50559   0.25484   0.00000  Uiso   1.00
H191   H     0.03077   0.37010   0.00580   0.00000  Uiso   1.00
H192   H     0.09773   0.65352   0.24440   0.00000  Uiso   1.00
H193   H     0.00136   0.53847   0.28455   0.00000  Uiso   1.00
H194   H     0.33198   0.46154   0.21544   0.00000  Uiso   1.00
H195   H     0.08003   0.47072   0.10284   0.00000  Uiso   1.00
H196   H     0.19671   0.57866   0.43410   0.00000  Uiso   1.00
H197   H     0.00536   0.53500   0.46640   0.00000  Uiso   1.00
H198   H     0.32483   0.53122   0.11771   0.00000  Uiso   1.00
H199   H     0.02030   0.42745   0.37048   0.00000  Uiso   1.00
H200   H     0.32946   0.38650   0.44184   0.00000  Uiso   1.00
H201   H     0.02820   0.53875   0.03826   0.00000  Uiso   1.00
H202   H     0.10485   0.39052   0.05142   0.00000  Uiso   1.00
H203   H     0.26390   0.51651   0.42053   0.00000  Uiso   1.00
H204   H     0.23553   0.34648   0.25574   0.00000  Uiso   1.00
N205   N     0.31506   0.51401   0.26212   0.00000  Uiso   1.00
N206   N     0.01827   0.48599   0.23788   0.00000  Uiso   1.00
O207   O     0.12815   0.57142   0.24686   0.00000  Uiso   1.00
O208   O     0.18319   0.58693   0.37555   0.00000  Uiso   1.00
O209   O     0.20518   0.42858   0.25314   0.00000  Uiso   1.00
O210   O     0.22829   0.58086   0.25502   0.00000  Uiso   1.00
O211   O     0.10504   0.41914   0.24498   0.00000  Uiso   1.00
O212   O     0.08851   0.49263   0.30854   0.00000  Uiso   1.00
O213   O     0.24482   0.50737   0.19146   0.00000  Uiso   1.00
O214   O     0.18866   0.50207   0.31671   0.00000  Uiso   1.00
O215   O     0.14468   0.49793   0.18329   0.00000  Uiso   1.00
O216   O     0.09879   0.41687   0.13645   0.00000  Uiso   1.00
C217   C     0.51503   0.60008   0.25133   0.00000  Uiso   1.00
C218   C     0.53799   0.50023   0.16647   0.00000  Uiso   1.00
C219   C     0.43721   0.48364   0.38017   0.00000  Uiso   1.00
C220   C     0.56031   0.49574   0.11777   0.00000  Uiso   1.00
C221   C     0.37101   0.41829   0.43287   0.00000  Uiso   1.00
C222   C     0.64558   0.52032   0.05243   0.00000  Uiso   1.00
C223   C     0.38378   0.44259   0.39272   0.00000  Uiso   1.00
C224   C     0.62456   0.51587   0.09789   0.00000  Uiso   1.00
C225   C     0.47498   0.50377   0.41011   0.00000  Uiso   1.00
C226   C     0.51750   0.47421   0.09076   0.00000  Uiso   1.00
C227   C     0.46909   0.47303   0.44710   0.00000  Uiso   1.00
C228   C     0.48495   0.39992   0.24872   0.00000  Uiso   1.00
C229   C     0.53933   0.47751   0.04396   0.00000  Uiso   1.00
C230   C     0.41427   0.43180   0.45937   0.00000  Uiso   1.00
C231   C     0.60294   0.50425   0.02571   0.00000  Uiso   1.00
C232   C     0.51558   0.48126   0.47227   0.00000  Uiso   1.00
C233   C     0.49924   0.45881   0.01451   0.00000  Uiso   1.00
C234   C     0.44903   0.45396   0.11139   0.00000  Uiso   1.00
C235   C     0.51089   0.55988   0.40702   0.00000  Uiso   1.00
C236   C     0.44614   0.41625   0.02425   0.00000  Uiso   1.00
C237   C     0.57961   0.50619   0.45488   0.00000  Uiso   1.00
C238   C     0.40437   0.40306   0.49714   0.00000  Uiso   1.00
C239   C     0.62310   0.51589   0.48091   0.00000  Uiso   1.00
C240   C     0.52350   0.65602   0.25202   0.00000  Uiso   1.00
C241   C     0.47643   0.34398   0.24811   0.00000  Uiso   1.00
C242   C     0.46133   0.49595   0.33324   0.00000  Uiso   1.00
Cu243  Cu    0.44071   0.49441   0.24516   0.00000  Uiso   1.00
Cu244  Cu    0.55929   0.50559   0.25484   0.00000  Uiso   1.00
H245   H     0.36411   0.37010   0.00580   0.00000  Uiso   1.00
H246   H     0.43107   0.65352   0.24440   0.00000  Uiso   1.00
H247   H     0.33470   0.53847   0.28455   0.00000  Uiso   1.00
H248   H     0.66532   0.46154   0.21544   0.00000  Uiso   1.00
H249   H     0.41336   0.47072   0.10284   0.00000  Uiso   1.00
H250   H     0.53005   0.57866   0.43410   0.00000  Uiso   1.00
H251   H     0.33869   0.53500   0.46640   0.00000  Uiso   1.00
H252   H     0.65816   0.53122   0.11771   0.00000  Uiso   1.00
H253   H     0.35363   0.42745   0.37048   0.00000  Uiso   1.00
H254   H     0.66279   0.38650   0.44184   0.00000  Uiso   1.00
H255   H     0.36153   0.53875   0.03826   0.00000  Uiso   1.00
H256   H     0.43818   0.39052   0.05142   0.00000  Uiso   1.00
H257   H     0.59723   0.51651   0.42053   0.00000  Uiso   1.00
H258   H     0.56886   0.34648   0.25574   0.00000  Uiso   1.00
N259   N     0.64839   0.51401   0.26212   0.00000  Uiso   1.00
N260   N     0.35161   0.48599   0.23788   0.00000  Uiso   1.00
O261   O     0.46148   0.57142   0.24686   0.00000  Uiso   1.00
O262   O     0.51652   0.58693   0.37555   0.00000  Uiso   1.00
O263   O     0.53852   0.42858   0.25314   0.00000  Uiso   1.00
O264   O     0.56163   0.58086   0.25502   0.00000  Uiso   1.00
O265   O     0.43837   0.41914   0.24498   0.00000  Uiso   1.00
O266   O     0.42185   0.49263   0.30854   0.00000  Uiso   1.00
O267   O     0.57815   0.50737   0.19146   0.00000  Uiso   1.00
O268   O     0.52199   0.50207   0.31671   0.00000  Uiso   1.00
O269   O     0.47801   0.49793   0.18329   0.00000  Uiso   1.00
O270   O     0.43213   0.41687   0.13645   0.00000  Uiso   1.00
C271   C     0.84836   0.60008   0.25133   0.00000  Uiso   1.00
C272   C     0.87132   0.50023   0.16647   0.00000  Uiso   1.00
C273   C     0.77055   0.48364   0.38017   0.00000  Uiso   1.00
C274   C     0.89364   0.49574   0.11777   0.00000  Uiso   1.00
C275   C     0.70434   0.41829   0.43287   0.00000  Uiso   1.00
C276   C     0.97891   0.52032   0.05243   0.00000  Uiso   1.00
C277   C     0.71712   0.44259   0.39272   0.00000  Uiso   1.00
C278   C     0.95789   0.51587   0.09789   0.00000  Uiso   1.00
C279   C     0.80831   0.50377   0.41011   0.00000  Uiso   1.00
C280   C     0.85083   0.47421   0.09076   0.00000  Uiso   1.00
C281   C     0.80242   0.47303   0.44710   0.00000  Uiso   1.00
C282   C     0.81828   0.39992   0.24872   0.00000  Uiso   1.00
C283   C     0.87267   0.47751   0.04396   0.00000  Uiso   1.00
C284   C     0.74760   0.43180   0.45937   0.00000  Uiso   1.00
C285   C     0.93628   0.50425   0.02571   0.00000  Uiso   1.00
C286   C     0.84891   0.48126   0.47227   0.00000  Uiso   1.00
C287   C     0.83257   0.45881   0.01451   0.00000  Uiso   1.00
C288   C     0.78236   0.45396   0.11139   0.00000  Uiso   1.00
C289   C     0.84422   0.55988   0.40702   0.00000  Uiso   1.00
C290   C     0.77947   0.41625   0.02425   0.00000  Uiso   1.00
C291   C     0.91294   0.50619   0.45488   0.00000  Uiso   1.00
C292   C     0.73770   0.40306   0.49714   0.00000  Uiso   1.00
C293   C     0.95644   0.51589   0.48091   0.00000  Uiso   1.00
C294   C     0.85683   0.65602   0.25202   0.00000  Uiso   1.00
C295   C     0.80977   0.34398   0.24811   0.00000  Uiso   1.00
C296   C     0.79466   0.49595   0.33324   0.00000  Uiso   1.00
Cu297  Cu    0.77404   0.49441   0.24516   0.00000  Uiso   1.00
Cu298  Cu    0.89263   0.50559   0.25484   0.00000  Uiso   1.00
H299   H     0.69744   0.37010   0.00580   0.00000  Uiso   1.00
H300   H     0.76440   0.65352   0.24440   0.00000  Uiso   1.00
H301   H     0.66803   0.53847   0.28455   0.00000  Uiso   1.00
H302   H     0.99865   0.46154   0.21544   0.00000  Uiso   1.00
H303   H     0.74669   0.47072   0.10284   0.00000  Uiso   1.00
H304   H     0.86338   0.57866   0.43410   0.00000  Uiso   1.00
H305   H     0.67203   0.53500   0.46640   0.00000  Uiso   1.00
H306   H     0.99149   0.53122   0.11771   0.00000  Uiso   1.00
H307   H     0.68696   0.42745   0.37048   0.00000  Uiso   1.00
H308   H     0.99613   0.38650   0.44184   0.00000  Uiso   1.00
H309   H     0.69487   0.53875   0.03826   0.00000  Uiso   1.00
H310   H     0.77152   0.39052   0.05142   0.00000  Uiso   1.00
H311   H     0.93057   0.51651   0.42053   0.00000  Uiso   1.00
H312   H     0.90220   0.34648   0.25574   0.00000  Uiso   1.00
N313   N     0.98173   0.51401   0.26212   0.00000  Uiso   1.00
N314   N     0.68494   0.48599   0.23788   0.00000  Uiso   1.00
O315   O     0.79482   0.57142   0.24686   0.00000  Uiso   1.00
O316   O     0.84985   0.58693   0.37555   0.00000  Uiso   1.00
O317   O     0.87185   0.42858   0.25314   0.00000  Uiso   1.00
O318   O     0.89496   0.58086   0.25502   0.00000  Uiso   1.00
O319   O     0.77171   0.41914   0.24498   0.00000  Uiso   1.00
O320   O     0.75518   0.49263   0.30854   0.00000  Uiso   1.00
O321   O     0.91149   0.50737   0.19146   0.00000  Uiso   1.00
O322   O     0.85532   0.50207   0.31671   0.00000  Uiso   1.00
O323   O     0.81134   0.49793   0.18329   0.00000  Uiso   1.00
O324   O     0.76546   0.41687   0.13645   0.00000  Uiso   1.00
C325   C     0.18169   0.93341   0.25133   0.00000  Uiso   1.00
C326   C     0.20466   0.83356   0.16647   0.00000  Uiso   1.00
C327   C     0.10388   0.81697   0.38017   0.00000  Uiso   1.00
C328   C     0.22697   0.82907   0.11777   0.00000  Uiso   1.00
C329   C     0.03768   0.75163   0.43287   0.00000  Uiso   1.00
C330   C     0.31225   0.85365   0.05243   0.00000  Uiso   1.00
C331   C     0.05045   0.77593   0.39272   0.00000  Uiso   1.00
C332   C     0.29123   0.84920   0.09789   0.00000  Uiso   1.00
C333   C     0.14165   0.83710   0.41011   0.00000  Uiso   1.00
C334   C     0.18417   0.80755   0.09076   0.00000  Uiso   1.00
C335   C     0.13575   0.80636   0.44710   0.00000  Uiso   1.00
C336   C     0.15161   0.73325   0.24872   0.00000  Uiso   1.00
C337   C     0.20600   0.81085   0.04396   0.00000  Uiso   1.00
C338   C     0.08094   0.76514   0.45937   0.00000  Uiso   1.00
C339   C     0.26961   0.83759   0.02571   0.00000  Uiso   1.00
C340   C     0.18225   0.81459   0.47227   0.00000  Uiso   1.00
C341   C     0.16590   0.79214   0.01451   0.00000  Uiso   1.00
C342   C     0.11569   0.78730   0.11139   0.00000  Uiso   1.00
C343   C     0.17756   0.89321   0.40702   0.00000  Uiso   1.00
C344   C     0.11281   0.74958   0.02425   0.00000  Uiso   1.00
C345   C     0.24627   0.83953   0.45488   0.00000  Uiso   1.00
C346   C     0.07103   0.73639   0.49714   0.00000  Uiso   1.00
C347   C     0.28977   0.84923   0.48091   0.00000  Uiso   1.00
C348   C     0.19017   0.98936   0.25202   0.00000  Uiso   1.00
C349   C     0.14310   0.67731   0.24811   0.00000  Uiso   1.00
C350   C     0.12799   0.82929   0.33324   0.00000  Uiso   1.00
Cu351  Cu    0.10737   0.82775   0.24516   0.00000  Uiso   1.00
Cu352  Cu    0.22596   0.83892   0.25484   0.00000  Uiso   1.00
H353   H     0.03077   0.70344   0.00580   0.00000  Uiso   1.00
H354   H     0.09773   0.98686   0.24440   0.00000  Uiso   1.00
H355   H     0.00136   0.87181   0.28455   0.00000  Uiso   1.00
H356   H     0.33198   0.79487   0.21544   0.00000  Uiso   1.00
H357   H     0.08003   0.80405   0.10284   0.00000  Uiso   1.00
H358   H     0.19671   0.91200   0.43410   0.00000  Uiso   1.00
H359   H     0.00536   0.86833   0.46640   0.00000  Uiso   1.00
H360   H     0.32483   0.86455   0.11771   0.00000  Uiso   1.00
H361   H     0.02030   0.76078   0.37048   0.00000  Uiso   1.00
H362   H     0.32946   0.71983   0.44184   0.00000  Uiso   1.00
H363   H     0.02820   0.87209   0.03826   0.00000  Uiso   1.00
H364   H     0.10485   0.72385   0.05142   0.00000  Uiso   1.00
H365   H     0.26390   0.84984   0.42053   0.00000  Uiso   1.00
H366   H     0.23553   0.67981   0.25574   0.00000  Uiso   1.00
N367   N     0.31506   0.84735   0.26212   0.00000  Uiso   1.00
N368   N     0.01827   0.81932   0.23788   0.00000  Uiso   1.00
O369   O     0.12815   0.90476   0.24686   0.00000  Uiso   1.00
O370   O     0.18319   0.92026   0.37555   0.00000  Uiso   1.00
O371   O     0.20518   0.76191   0.25314   0.00000  Uiso   1.00
O372   O     0.22829   0.91420   0.25502   0.00000  Uiso   1.00
O373   O     0.10504   0.75247   0.24498   0.00000  Uiso   1.00
O374   O     0.08851   0.82597   0.30854   0.00000  Uiso   1.00
O375   O     0.24482   0.84070   0.19146   0.00000  Uiso   1.00
O376   O     0.18866   0.83540   0.31671   0.00000  Uiso   1.00
O377   O     0.14468   0.83126   0.18329   0.00000  Uiso   1.00
O378   O     0.09879   0.75021   0.13645   0.00000  Uiso   1.00
C379   C     0.51503   0.93341   0.25133   0.00000  Uiso   1.00
C380   C     0.53799   0.83356   0.16647   0.00000  Uiso   1.00
C381   C     0.43721   0.81697   0.38017   0.00000  Uiso   1.00
C382   C     0.56031   0.82907   0.11777   0.00000  Uiso   1.00
C383   C     0.37101   0.75163   0.43287   0.00000  Uiso   1.00
C384   C     0.64558   0.85365   0.05243   0.00000  Uiso   1.00
C385   C     0.38378   0.77593   0.39272   0.00000  Uiso   1.00
C386   C     0.62456   0.84920   0.09789   0.00000  Uiso   1.00
C387   C     0.47498   0.83710   0.41011   0.00000  Uiso   1.00
C388   C     0.51750   0.80755   0.09076   0.00000  Uiso   1.00
C389   C     0.46909   0.80636   0.44710   0.00000  Uiso   1.00
C390   C     0.48495   0.73325   0.24872   0.00000  Uiso   1.00
C391   C     0.53933   0.81085   0.04396   0.00000  Uiso   1.00
C392   C     0.41427   0.76514   0.45937   0.00000  Uiso   1.00
C393   C     0.60294   0.83759   0.02571   0.00000  Uiso   1.00
C394   C     0.51558   0.81459   0.47227   0.00000  Uiso   1.00
C395   C     0.49924   0.79214   0.01451   0.00000  Uiso   1.00
C396   C     0.44903   0.78730   0.11139   0.00000  Uiso   1.00
C397   C     0.51089   0.89321   0.40702   0.00000  Uiso   1.00
C398   C     0.44614   0.74958   0.02425   0.00000  Uiso   1.00
C399   C     0.57961   0.83953   0.45488   0.00000  Uiso   1.00
C400   C     0.40437   0.73639   0.49714   0.00000  Uiso   1.00
C401   C     0.62310   0.84923   0.48091   0.00000  Uiso   1.00
C402   C     0.52350   0.98936   0.25202   0.00000  Uiso   1.00
C403   C     0.47643   0.67731   0.24811   0.00000  Uiso   1.00
C404   C     0.46133   0.82929   0.33324   0.00000  Uiso   1.00
Cu405  Cu    0.44071   0.82775   0.24516   0.00000  Uiso   1.00
Cu406  Cu    0.55929   0.83892   0.25484   0.00000  Uiso   1.00
H407   H     0.36411   0.70344   0.00580   0.00000  Uiso   1.00
H408   H     0.43107   0.98686   0.24440   0.00000  Uiso   1.00
H409   H     0.33470   0.87181   0.28455   0.00000  Uiso   1.00
H410   H     0.66532   0.79487   0.21544   0.00000  Uiso   1.00
H411   H     0.41336   0.80405   0.10284   0.00000  Uiso   1.00
H412   H     0.53005   0.91200   0.43410   0.00000  Uiso   1.00
H413   H     0.33869   0.86833   0.46640   0.00000  Uiso   1.00
H414   H     0.65816   0.86455   0.11771   0.00000  Uiso   1.00
H415   H     0.35363   0.76078   0.37048   0.00000  Uiso   1.00
H416   H     0.66279   0.71983   0.44184   0.00000  Uiso   1.00
H417   H     0.36153   0.87209   0.03826   0.00000  Uiso   1.00
H418   H     0.43818   0.72385   0.05142   0.00000  Uiso   1.00
H419   H     0.59723   0.84984   0.42053   0.00000  Uiso   1.00
H420   H     0.56886   0.67981   0.25574   0.00000  Uiso   1.00
N421   N     0.64839   0.84735   0.26212   0.00000  Uiso   1.00
N422   N     0.35161   0.81932   0.23788   0.00000  Uiso   1.00
O423   O     0.46148   0.90476   0.24686   0.00000  Uiso   1.00
O424   O     0.51652   0.92026   0.37555   0.00000  Uiso   1.00
O425   O     0.53852   0.76191   0.25314   0.00000  Uiso   1.00
O426   O     0.56163   0.91420   0.25502   0.00000  Uiso   1.00
O427   O     0.43837   0.75247   0.24498   0.00000  Uiso   1.00
O428   O     0.42185   0.82597   0.30854   0.00000  Uiso   1.00
O429   O     0.57815   0.84070   0.19146   0.00000  Uiso   1.00
O430   O     0.52199   0.83540   0.31671   0.00000  Uiso   1.00
O431   O     0.47801   0.83126   0.18329   0.00000  Uiso   1.00
O432   O     0.43213   0.75021   0.13645   0.00000  Uiso   1.00
C433   C     0.84836   0.93341   0.25133   0.00000  Uiso   1.00
C434   C     0.87132   0.83356   0.16647   0.00000  Uiso   1.00
C435   C     0.77055   0.81697   0.38017   0.00000  Uiso   1.00
C436   C     0.89364   0.82907   0.11777   0.00000  Uiso   1.00
C437   C     0.70434   0.75163   0.43287   0.00000  Uiso   1.00
C438   C     0.97891   0.85365   0.05243   0.00000  Uiso   1.00
C439   C     0.71712   0.77593   0.39272   0.00000  Uiso   1.00
C440   C     0.95789   0.84920   0.09789   0.00000  Uiso   1.00
C441   C     0.80831   0.83710   0.41011   0.00000  Uiso   1.00
C442   C     0.85083   0.80755   0.09076   0.00000  Uiso   1.00
C443   C     0.80242   0.80636   0.44710   0.00000  Uiso   1.00
C444   C     0.81828   0.73325   0.24872   0.00000  Uiso   1.00
C445   C     0.87267   0.81085   0.04396   0.00000  Uiso   1.00
C446   C     0.74760   0.76514   0.45937   0.00000  Uiso   1.00
C447   C     0.93628   0.83759   0.02571   0.00000  Uiso   1.00
C448   C     0.84891   0.81459   0.47227   0.00000  Uiso   1.00
C449   C     0.83257   0.79214   0.01451   0.00000  Uiso   1.00
C450   C     0.78236   0.78730   0.11139   0.00000  Uiso   1.00
C451   C     0.84422   0.89321   0.40702   0.00000  Uiso   1.00
C452   C     0.77947   0.74958   0.02425   0.00000  Uiso   1.00
C453   C     0.91294   0.83953   0.45488   0.00000  Uiso   1.00
C454   C     0.73770   0.73639   0.49714   0.00000  Uiso   1.00
C455   C     0.95644   0.84923   0.48091   0.00000  Uiso   1.00
C456   C     0.85683   0.98936   0.25202   0.00000  Uiso   1.00
C457   C     0.80977   0.67731   0.24811   0.00000  Uiso   1.00
C458   C     0.79466   0.82929   0.33324   0.00000  Uiso   1.00
Cu459  Cu    0.77404   0.82775   0.24516   0.00000  Uiso   1.00
Cu460  Cu    0.89263   0.83892   0.25484   0.00000  Uiso   1.00
H461   H     0.69744   0.70344   0.00580   0.00000  Uiso   1.00
H462   H     0.76440   0.98686   0.24440   0.00000  Uiso   1.00
H463   H     0.66803   0.87181   0.28455   0.00000  Uiso   1.00
H464   H     0.99865   0.79487   0.21544   0.00000  Uiso   1.00
H465   H     0.74669   0.80405   0.10284   0.00000  Uiso   1.00
H466   H     0.86338   0.91200   0.43410   0.00000  Uiso   1.00
H467   H     0.67203   0.86833   0.46640   0.00000  Uiso   1.00
H468   H     0.99149   0.86455   0.11771   0.00000  Uiso   1.00
H469   H     0.68696   0.76078   0.37048   0.00000  Uiso   1.00
H470   H     0.99613   0.71983   0.44184   0.00000  Uiso   1.00
H471   H     0.69487   0.87209   0.03826   0.00000  Uiso   1.00
H472   H     0.77152   0.72385   0.05142   0.00000  Uiso   1.00
H473   H     0.93057   0.84984   0.42053   0.00000  Uiso   1.00
H474   H     0.90220   0.67981   0.25574   0.00000  Uiso   1.00
N475   N     0.98173   0.84735   0.26212   0.00000  Uiso   1.00
N476   N     0.68494   0.81932   0.23788   0.00000  Uiso   1.00
O477   O     0.79482   0.90476   0.24686   0.00000  Uiso   1.00
O478   O     0.84985   0.92026   0.37555   0.00000  Uiso   1.00
O479   O     0.87185   0.76191   0.25314   0.00000  Uiso   1.00
O480   O     0.89496   0.91420   0.25502   0.00000  Uiso   1.00
O481   O     0.77171   0.75247   0.24498   0.00000  Uiso   1.00
O482   O     0.75518   0.82597   0.30854   0.00000  Uiso   1.00
O483   O     0.91149   0.84070   0.19146   0.00000  Uiso   1.00
O484   O     0.85532   0.83540   0.31671   0.00000  Uiso   1.00
O485   O     0.81134   0.83126   0.18329   0.00000  Uiso   1.00
O486   O     0.76546   0.75021   0.13645   0.00000  Uiso   1.00
C487   C     0.18169   0.26674   0.75133   0.00000  Uiso   1.00
C488   C     0.20466   0.16690   0.66647   0.00000  Uiso   1.00
C489   C     0.10388   0.15031   0.88017   0.00000  Uiso   1.00
C490   C     0.22697   0.16240   0.61777   0.00000  Uiso   1.00
C491   C     0.03768   0.08496   0.93287   0.00000  Uiso   1.00
C492   C     0.31225   0.18698   0.55243   0.00000  Uiso   1.00
C493   C     0.05045   0.10926   0.89272   0.00000  Uiso   1.00
C494   C     0.29123   0.18254   0.59789   0.00000  Uiso   1.00
C495   C     0.14165   0.17043   0.91011   0.00000  Uiso   1.00
C496   C     0.18417   0.14088   0.59076   0.00000  Uiso   1.00
C497   C     0.13575   0.13970   0.94710   0.00000  Uiso   1.00
C498   C     0.15161   0.06659   0.74872   0.00000  Uiso   1.00
C499   C     0.20600   0.14418   0.54396   0.00000  Uiso   1.00
C500   C     0.08094   0.09847   0.95937   0.00000  Uiso   1.00
C501   C     0.26961   0.17092   0.52571   0.00000  Uiso   1.00
C502   C     0.18225   0.14792   0.97227   0.00000  Uiso   1.00
C503   C     0.16590   0.12547   0.51451   0.00000  Uiso   1.00
C504   C     0.11569   0.12063   0.61139   0.00000  Uiso   1.00
C505   C     0.17756   0.22655   0.90702   0.00000  Uiso   1.00
C506   C     0.11281   0.08292   0.52425   0.00000  Uiso   1.00
C507   C     0.24627   0.17286   0.95488   0.00000  Uiso   1.00
C508   C     0.07103   0.06973   0.99714   0.00000  Uiso   1.00
C509   C     0.28977   0.18256   0.98091   0.00000  Uiso   1.00
C510   C     0.19017   0.32269   0.75202   0.00000  Uiso   1.00
C511   C     0.14310   0.01064   0.74811   0.00000  Uiso   1.00
C512   C     0.12799   0.16262   0.83324   0.00000  Uiso   1.00
Cu513  Cu    0.10737   0.16108   0.74516   0.00000  Uiso   1.00
Cu514  Cu    0.22596   0.17225   0.75484   0.00000  Uiso   1.00
H515   H     0.03077   0.03677   0.50580   0.00000  Uiso   1.00
H516   H     0.09773   0.32019   0.74440   0.00000  Uiso   1.00
H517   H     0.00136   0.20514   0.78455   0.00000  Uiso   1.00
H518   H     0.33198   0.12821   0.71544   0.00000  Uiso   1.00
H519   H     0.08003   0.13738   0.60284   0.00000  Uiso   1.00
H520   H     0.19671   0.24533   0.93410   0.00000  Uiso   1.00
H521   H     0.00536   0.20167   0.96640   0.00000  Uiso   1.00
H522   H     0.32483   0.19788   0.61771   0.00000  Uiso   1.00
H523   H     0.02030   0.09411   0.87048   0.00000  Uiso   1.00
H524   H     0.32946   0.05316   0.94184   0.00000  Uiso   1.00
H525   H     0.02820   0.20542   0.53826   0.00000  Uiso   1.00
H526   H     0.10485   0.05719   0.55142   0.00000  Uiso   1.00
H527   H     0.26390   0.18317   0.92053   0.00000  Uiso   1.00
H528   H     0.23553   0.01315   0.75574   0.00000  Uiso   1.00
N529   N     0.31506   0.18068   0.76212   0.00000  Uiso   1.00
N530   N     0.01827   0.15265   0.73788   0.00000  Uiso   1.00
O531   O     0.12815   0.23809   0.74686   0.00000  Uiso   1.00
O532   O     0.18319   0.25359   0.87555   0.00000  Uiso   1.00
O533   O     0.20518   0.09524   0.75314   0.00000  Uiso   1.00
O534   O     0.22829   0.24753   0.75502   0.00000  Uiso   1.00
O535   O     0.10504   0.08580   0.74498   0.00000  Uiso   1.00
O536   O     0.08851   0.15930   0.80854   0.00000  Uiso   1.00
O537   O     0.24482   0.17403   0.69146   0.00000  Uiso   1.00
O538   O     0.18866   0.16874   0.81671   0.00000  Uiso   1.00
O539   O     0.14468   0.16460   0.68329   0.00000  Uiso   1.00
O540   O     0.09879   0.08354   0.63645   0.00000  Uiso   1.00
C541   C     0.51503   0.26674   0.75133   0.00000  Uiso   1.00
C542   C     0.53799   0.16690   0.66647   0.00000  Uiso   1.00
C543   C     0.43721   0.15031   0.88017   0.00000  Uiso   1.00
C544   C     0.56031   0.16240   0.61777   0.00000  Uiso   1.00
C545   C     0.37101   0.08496   0.93287   0.00000  Uiso   1.00
C546   C     0.64558   0.18698   0.55243   0.00000  Uiso   1.00
C547   C     0.38378   0.10926   0.89272   0.00000  Uiso   1.00
C548   C     0.62456   0.18254   0.59789   0.00000  Uiso   1.00
C549   C     0.47498   0.17043   0.91011   0.00000  Uiso   1.00
C550   C     0.51750   0.14088   0.59076   0.00000  Uiso   1.00
C551   C     0.46909   0.13970   0.94710   0.00000  Uiso   1.00
C552   C     0.48495   0.06659   0.74872   0.00000  Uiso   1.00
C553   C     0.53933   0.14418   0.54396   0.00000  Uiso   1.00
C554   C     0.41427   0.09847   0.95937   0.00000  Uiso   1.00
C555   C     0.60294   0.17092   0.52571   0.00000  Uiso   1.00
C556   C     0.51558   0.14792   0.97227   0.00000  Uiso   1.00
C557   C     0.49924   0.12547   0.51451   0.00000  Uiso   1.00
C558   C     0.44903   0.12063   0.61139   0.00000  Uiso   1.00
C559   C     0.51089   0.22655   0.90702   0.00000  Uiso   1.00
C560   C     0.44614   0.08292   0.52425   0.00000  Uiso   1.00
C561   C     0.57961   0.17286   0.95488   0.00000  Uiso   1.00
C562   C     0.40437   0.06973   0.99714   0.00000  Uiso   1.00
C563   C     0.62310   0.18256   0.98091   0.00000  Uiso   1.00
C564   C     0.52350   0.32269   0.75202   0.00000  Uiso   1.00
C565   C     0.47643   0.01064   0.74811   0.00000  Uiso   1.00
C566   C     0.46133   0.16262   0.83324   0.00000  Uiso   1.00
Cu567  Cu    0.44071   0.16108   0.74516   0.00000  Uiso   1.00
Cu568  Cu    0.55929   0.17225   0.75484   0.00000  Uiso   1.00
H569   H     0.36411   0.03677   0.50580   0.00000  Uiso   1.00
H570   H     0.43107   0.32019   0.74440   0.00000  Uiso   1.00
H571   H     0.33470   0.20514   0.78455   0.00000  Uiso   1.00
H572   H     0.66532   0.12821   0.71544   0.00000  Uiso   1.00
H573   H     0.41336   0.13738   0.60284   0.00000  Uiso   1.00
H574   H     0.53005   0.24533   0.93410   0.00000  Uiso   1.00
H575   H     0.33869   0.20167   0.96640   0.00000  Uiso   1.00
H576   H     0.65816   0.19788   0.61771   0.00000  Uiso   1.00
H577   H     0.35363   0.09411   0.87048   0.00000  Uiso   1.00
H578   H     0.66279   0.05316   0.94184   0.00000  Uiso   1.00
H579   H     0.36153   0.20542   0.53826   0.00000  Uiso   1.00
H580   H     0.43818   0.05719   0.55142   0.00000  Uiso   1.00
H581   H     0.59723   0.18317   0.92053   0.00000  Uiso   1.00
H582   H     0.56886   0.01315   0.75574   0.00000  Uiso   1.00
N583   N     0.64839   0.18068   0.76212   0.00000  Uiso   1.00
N584   N     0.35161   0.15265   0.73788   0.00000  Uiso   1.00
O585   O     0.46148   0.23809   0.74686   0.00000  Uiso   1.00
O586   O     0.51652   0.25359   0.87555   0.00000  Uiso   1.00
O587   O     0.53852   0.09524   0.75314   0.00000  Uiso   1.00
O588   O     0.56163   0.24753   0.75502   0.00000  Uiso   1.00
O589   O     0.43837   0.08580   0.74498   0.00000  Uiso   1.00
O590   O     0.42185   0.15930   0.80854   0.00000  Uiso   1.00
O591   O     0.57815   0.17403   0.69146   0.00000  Uiso   1.00
O592   O     0.52199   0.16874   0.81671   0.00000  Uiso   1.00
O593   O     0.47801   0.16460   0.68329   0.00000  Uiso   1.00
O594   O     0.43213   0.08354   0.63645   0.00000  Uiso   1.00
C595   C     0.84836   0.26674   0.75133   0.00000  Uiso   1.00
C596   C     0.87132   0.16690   0.66647   0.00000  Uiso   1.00
C597   C     0.77055   0.15031   0.88017   0.00000  Uiso   1.00
C598   C     0.89364   0.16240   0.61777   0.00000  Uiso   1.00
C599   C     0.70434   0.08496   0.93287   0.00000  Uiso   1.00
C600   C     0.97891   0.18698   0.55243   0.00000  Uiso   1.00
C601   C     0.71712   0.10926   0.89272   0.00000  Uiso   1.00
C602   C     0.95789   0.18254   0.59789   0.00000  Uiso   1.00
C603   C     0.80831   0.17043   0.91011   0.00000  Uiso   1.00
C604   C     0.85083   0.14088   0.59076   0.00000  Uiso   1.00
C605   C     0.80242   0.13970   0.94710   0.00000  Uiso   1.00
C606   C     0.81828   0.06659   0.74872   0.00000  Uiso   1.00
C607   C     0.87267   0.14418   0.54396   0.00000  Uiso   1.00
C608   C     0.74760   0.09847   0.95937   0.00000  Uiso   1.00
C609   C     0.93628   0.17092   0.52571   0.00000  Uiso   1.00
C610   C     0.84891   0.14792   0.97227   0.00000  Uiso   1.00
C611   C     0.83257   0.12547   0.51451   0.00000  Uiso   1.00
C612   C     0.78236   0.12063   0.61139   0.00000  Uiso   1.00
C613   C     0.84422   0.22655   0.90702   0.00000  Uiso   1.00
C614   C     0.77947   0.08292   0.52425   0.00000  Uiso   1.00
C615   C     0.91294   0.17286   0.95488   0.00000  Uiso   1.00
C616   C     0.73770   0.06973   0.99714   0.00000  Uiso   1.00
C617   C     0.95644   0.18256   0.98091   0.00000  Uiso   1.00
C618   C     0.85683   0.32269   0.75202   0.00000  Uiso   1.00
C619   C     0.80977   0.01064   0.74811   0.00000  Uiso   1.00
C620   C     0.79466   0.16262   0.83324   0.00000  Uiso   1.00
Cu621  Cu    0.77404   0.16108   0.74516   0.00000  Uiso   1.00
Cu622  Cu    0.89263   0.17225   0.75484   0.00000  Uiso   1.00
H623   H     0.69744   0.03677   0.50580   0.00000  Uiso   1.00
H624   H     0.76440   0.32019   0.74440   0.00000  Uiso   1.00
H625   H     0.66803   0.20514   0.78455   0.00000  Uiso   1.00
H626   H     0.99865   0.12821   0.71544   0.00000  Uiso   1.00
H627   H     0.74669   0.13738   0.60284   0.00000  Uiso   1.00
H628   H     0.86338   0.24533   0.93410   0.00000  Uiso   1.00
H629   H     0.67203   0.20167   0.96640   0.00000  Uiso   1.00
H630   H     0.99149   0.19788   0.61771   0.00000  Uiso   1.00
H631   H     0.68696   0.09411   0.87048   0.00000  Uiso   1.00
H632   H     0.99613   0.05316   0.94184   0.00000  Uiso   1.00
H633   H     0.69487   0.20542   0.53826   0.00000  Uiso   1.00
H634   H     0.77152   0.05719   0.55142   0.00000  Uiso   1.00
H635   H     0.93057   0.18317   0.92053   0.00000  Uiso   1.00
H636   H     0.90220   0.01315   0.75574   0.00000  Uiso   1.00
N637   N     0.98173   0.18068   0.76212   0.00000  Uiso   1.00
N638   N     0.68494   0.15265   0.73788   0.00000  Uiso   1.00
O639   O     0.79482   0.23809   0.74686   0.00000  Uiso   1.00
O640   O     0.84985   0.25359   0.87555   0.00000  Uiso   1.00
O641   O     0.87185   0.09524   0.75314   0.00000  Uiso   1.00
O642   O     0.89496   0.24753   0.75502   0.00000  Uiso   1.00
O643   O     0.77171   0.08580   0.74498   0.00000  Uiso   1.00
O644   O     0.75518   0.15930   0.80854   0.00000  Uiso   1.00
O645   O     0.91149   0.17403   0.69146   0.00000  Uiso   1.00
O646   O     0.85532   0.16874   0.81671   0.00000  Uiso   1.00
O647   O     0.81134   0.16460   0.68329   0.00000  Uiso   1.00
O648   O     0.76546   0.08354   0.63645   0.00000  Uiso   1.00
C649   C     0.18169   0.60008   0.75133   0.00000  Uiso   1.00
C650   C     0.20466   0.50023   0.66647   0.00000  Uiso   1.00
C651   C     0.10388   0.48364   0.88017   0.00000  Uiso   1.00
C652   C     0.22697   0.49574   0.61777   0.00000  Uiso   1.00
C653   C     0.03768   0.41829   0.93287   0.00000  Uiso   1.00
C654   C     0.31225   0.52032   0.55243   0.00000  Uiso   1.00
C655   C     0.05045   0.44259   0.89272   0.00000  Uiso   1.00
C656   C     0.29123   0.51587   0.59789   0.00000  Uiso   1.00
C657   C     0.14165   0.50377   0.91011   0.00000  Uiso   1.00
C658   C     0.18417   0.47421   0.59076   0.00000  Uiso   1.00
C659   C     0.13575   0.47303   0.94710   0.00000  Uiso   1.00
C660   C     0.15161   0.39992   0.74872   0.00000  Uiso   1.00
C661   C     0.20600   0.47751   0.54396   0.00000  Uiso   1.00
C662   C     0.08094   0.43180   0.95937   0.00000  Uiso   1.00
C663   C     0.26961   0.50425   0.52571   0.00000  Uiso   1.00
C664   C     0.18225   0.48126   0.97227   0.00000  Uiso   1.00
C665   C     0.16590   0.45881   0.51451   0.00000  Uiso   1.00
C666   C     0.11569   0.45396   0.61139   0.00000  Uiso   1.00
C667   C     0.17756   0.55988   0.90702   0.00000  Uiso   1.00
C668   C     0.11281   0.41625   0.52425   0.00000  Uiso   1.00
C669   C     0.24627   0.50619   0.95488   0.00000  Uiso   1.00
C670   C     0.07103   0.40306   0.99714   0.00000  Uiso   1.00
C671   C     0.28977   0.51589   0.98091   0.00000  Uiso   1.00
C672   C     0.19017   0.65602   0.75202   0.00000  Uiso   1.00
C673   C     0.14310   0.34398   0.74811   0.00000  Uiso   1.00
C674   C     0.12799   0.49595   0.83324   0.00000  Uiso   1.00
Cu675  Cu    0.10737   0.49441   0.74516   0.00000  Uiso   1.00
Cu676  Cu    0.22596   0.50559   0.75484   0.00000  Uiso   1.00
H677   H     0.03077   0.37010   0.50580   0.00000  Uiso   1.00
H678   H     0.09773   0.65352   0.74440   0.00000  Uiso   1.00
H679   H     0.00136   0.53847   0.78455   0.00000  Uiso   1.00
H680   H     0.33198   0.46154   0.71544   0.00000  Uiso   1.00
H681   H     0.08003   0.47072   0.60284   0.00000  Uiso   1.00
H682   H     0.19671   0.57866   0.93410   0.00000  Uiso   1.00
H683   H     0.00536   0.53500   0.96640   0.00000  Uiso   1.00
H684   H     0.32483   0.53122   0.61771   0.00000  Uiso   1.00
H685   H     0.02030   0.42745   0.87048   0.00000  Uiso   1.00
H686   H     0.32946   0.38650   0.94184   0.00000  Uiso   1.00
H687   H     0.02820   0.53875   0.53826   0.00000  Uiso   1.00
H688   H     0.10485   0.39052   0.55142   0.00000  Uiso   1.00
H689   H     0.26390   0.51651   0.92053   0.00000  Uiso   1.00
H690   H     0.23553   0.34648   0.75574   0.00000  Uiso   1.00
N691   N     0.31506   0.51401   0.76212   0.00000  Uiso   1.00
N692   N     0.01827   0.48599   0.73788   0.00000  Uiso   1.00
O693   O     0.12815   0.57142   0.74686   0.00000  Uiso   1.00
O694   O     0.18319   0.58693   0.87555   0.00000  Uiso   1.00
O695   O     0.20518   0.42858   0.75314   0.00000  Uiso   1.00
O696   O     0.22829   0.58086   0.75502   0.00000  Uiso   1.00
O697   O     0.10504   0.41914   0.74498   0.00000  Uiso   1.00
O698   O     0.08851   0.49263   0.80854   0.00000  Uiso   1.00
O699   O     0.24482   0.50737   0.69146   0.00000  Uiso   1.00
O700   O     0.18866   0.50207   0.81671   0.00000  Uiso   1.00
O701   O     0.14468   0.49793   0.68329   0.00000  Uiso   1.00
O702   O     0.09879   0.41687   0.63645   0.00000  Uiso   1.00
C703   C     0.51503   0.60008   0.75133   0.00000  Uiso   1.00
C704   C     0.53799   0.50023   0.66647   0.00000  Uiso   1.00
C705   C     0.43721   0.48364   0.88017   0.00000  Uiso   1.00
C706   C     0.56031   0.49574   0.61777   0.00000  Uiso   1.00
C707   C     0.37101   0.41829   0.93287   0.00000  Uiso   1.00
C708   C     0.64558   0.52032   0.55243   0.00000  Uiso   1.00
C709   C     0.38378   0.44259   0.89272   0.00000  Uiso   1.00
C710   C     0.62456   0.51587   0.59789   0.00000  Uiso   1.00
C711   C     0.47498   0.50377   0.91011   0.00000  Uiso   1.00
C712   C     0.51750   0.47421   0.59076   0.00000  Uiso   1.00
C713   C     0.46909   0.47303   0.94710   0.00000  Uiso   1.00
C714   C     0.48495   0.39992   0.74872   0.00000  Uiso   1.00
C715   C     0.53933   0.47751   0.54396   0.00000  Uiso   1.00
C716   C     0.41427   0.43180   0.95937   0.00000  Uiso   1.00
C717   C     0.60294   0.50425   0.52571   0.00000  Uiso   1.00
C718   C     0.51558   0.48126   0.97227   0.00000  Uiso   1.00
C719   C     0.49924   0.45881   0.51451   0.00000  Uiso   1.00
C720   C     0.44903   0.45396   0.61139   0.00000  Uiso   1.00
C721   C     0.51089   0.55988   0.90702   0.00000  Uiso   1.00
C722   C     0.44614   0.41625   0.52425   0.00000  Uiso   1.00
C723   C     0.57961   0.50619   0.95488   0.00000  Uiso   1.00
C724   C     0.40437   0.40306   0.99714   0.00000  Uiso   1.00
C725   C     0.62310   0.51589   0.98091   0.00000  Uiso   1.00
C726   C     0.52350   0.65602   0.75202   0.00000  Uiso   1.00
C727   C     0.47643   0.34398   0.74811   0.00000  Uiso   1.00
C728   C     0.46133   0.49595   0.83324   0.00000  Uiso   1.00
Cu729  Cu    0.44071   0.49441   0.74516   0.00000  Uiso   1.00
Cu730  Cu    0.55929   0.50559   0.75484   0.00000  Uiso   1.00
H731   H     0.36411   0.37010   0.50580   0.00000  Uiso   1.00
H732   H     0.43107   0.65352   0.74440   0.00000  Uiso   1.00
H733   H     0.33470   0.53847   0.78455   0.00000  Uiso   1.00
H734   H     0.66532   0.46154   0.71544   0.00000  Uiso   1.00
H735   H     0.41336   0.47072   0.60284   0.00000  Uiso   1.00
H736   H     0.53005   0.57866   0.93410   0.00000  Uiso   1.00
H737   H     0.33869   0.53500   0.96640   0.00000  Uiso   1.00
H738   H     0.65816   0.53122   0.61771   0.00000  Uiso   1.00
H739   H     0.35363   0.42745   0.87048   0.00000  Uiso   1.00
H740   H     0.66279   0.38650   0.94184   0.00000  Uiso   1.00
H741   H     0.36153   0.53875   0.53826   0.00000  Uiso   1.00
H742   H     0.43818   0.39052   0.55142   0.00000  Uiso   1.00
H743   H     0.59723   0.51651   0.92053   0.00000  Uiso   1.00
H744   H     0.56886   0.34648   0.75574   0.00000  Uiso   1.00
N745   N     0.64839   0.51401   0.76212   0.00000  Uiso   1.00
N746   N     0.35161   0.48599   0.73788   0.00000  Uiso   1.00
O747   O     0.46148   0.57142   0.74686   0.00000  Uiso   1.00
O748   O     0.51652   0.58693   0.87555   0.00000  Uiso   1.00
O749   O     0.53852   0.42858   0.75314   0.00000  Uiso   1.00
O750   O     0.56163   0.58086   0.75502   0.00000  Uiso   1.00
O751   O     0.43837   0.41914   0.74498   0.00000  Uiso   1.00
O752   O     0.42185   0.49263   0.80854   0.00000  Uiso   1.00
O753   O     0.57815   0.50737   0.69146   0.00000  Uiso   1.00
O754   O     0.52199   0.50207   0.81671   0.00000  Uiso   1.00
O755   O     0.47801   0.49793   0.68329   0.00000  Uiso   1.00
O756   O     0.43213   0.41687   0.63645   0.00000  Uiso   1.00
C757   C     0.84836   0.60008   0.75133   0.00000  Uiso   1.00
C758   C     0.87132   0.50023   0.66647   0.00000  Uiso   1.00
C759   C     0.77055   0.48364   0.88017   0.00000  Uiso   1.00
C760   C     0.89364   0.49574   0.61777   0.00000  Uiso   1.00
C761   C     0.70434   0.41829   0.93287   0.00000  Uiso   1.00
C762   C     0.97891   0.52032   0.55243   0.00000  Uiso   1.00
C763   C     0.71712   0.44259   0.89272   0.00000  Uiso   1.00
C764   C     0.95789   0.51587   0.59789   0.00000  Uiso   1.00
C765   C     0.80831   0.50377   0.91011   0.00000  Uiso   1.00
C766   C     0.85083   0.47421   0.59076   0.00000  Uiso   1.00
C767   C     0.80242   0.47303   0.94710   0.00000  Uiso   1.00
C768   C     0.81828   0.39992   0.74872   0.00000  Uiso   1.00
C769   C     0.87267   0.47751   0.54396   0.00000  Uiso   1.00
C770   C     0.74760   0.43180   0.95937   0.00000  Uiso   1.00
C771   C     0.93628   0.50425   0.52571   0.00000  Uiso   1.00
C772   C     0.84891   0.48126   0.97227   0.00000  Uiso   1.00
C773   C     0.83257   0.45881   0.51451   0.00000  Uiso   1.00
C774   C     0.78236   0.45396   0.61139   0.00000  Uiso   1.00
C775   C     0.84422   0.55988   0.90702   0.00000  Uiso   1.00
C776   C     0.77947   0.41625   0.52425   0.00000  Uiso   1.00
C777   C     0.91294   0.50619   0.95488   0.00000  Uiso   1.00
C778   C     0.73770   0.40306   0.99714   0.00000  Uiso   1.00
C779   C     0.95644   0.51589   0.98091   0.00000  Uiso   1.00
C780   C     0.85683   0.65602   0.75202   0.00000  Uiso   1.00
C781   C     0.80977   0.34398   0.74811   0.00000  Uiso   1.00
C782   C     0.79466   0.49595   0.83324   0.00000  Uiso   1.00
Cu783  Cu    0.77404   0.49441   0.74516   0.00000  Uiso   1.00
Cu784  Cu    0.89263   0.50559   0.75484   0.00000  Uiso   1.00
H785   H     0.69744   0.37010   0.50580   0.00000  Uiso   1.00
H786   H     0.76440   0.65352   0.74440   0.00000  Uiso   1.00
H787   H     0.66803   0.53847   0.78455   0.00000  Uiso   1.00
H788   H     0.99865   0.46154   0.71544   0.00000  Uiso   1.00
H789   H     0.74669   0.47072   0.60284   0.00000  Uiso   1.00
H790   H     0.86338   0.57866   0.93410   0.00000  Uiso   1.00
H791   H     0.67203   0.53500   0.96640   0.00000  Uiso   1.00
H792   H     0.99149   0.53122   0.61771   0.00000  Uiso   1.00
H793   H     0.68696   0.42745   0.87048   0.00000  Uiso   1.00
H794   H     0.99613   0.38650   0.94184   0.00000  Uiso   1.00
H795   H     0.69487   0.53875   0.53826   0.00000  Uiso   1.00
H796   H     0.77152   0.39052   0.55142   0.00000  Uiso   1.00
H797   H     0.93057   0.51651   0.92053   0.00000  Uiso   1.00
H798   H     0.90220   0.34648   0.75574   0.00000  Uiso   1.00
N799   N     0.98173   0.51401   0.76212   0.00000  Uiso   1.00
N800   N     0.68494   0.48599   0.73788   0.00000  Uiso   1.00
O801   O     0.79482   0.57142   0.74686   0.00000  Uiso   1.00
O802   O     0.84985   0.58693   0.87555   0.00000  Uiso   1.00
O803   O     0.87185   0.42858   0.75314   0.00000  Uiso   1.00
O804   O     0.89496   0.58086   0.75502   0.00000  Uiso   1.00
O805   O     0.77171   0.41914   0.74498   0.00000  Uiso   1.00
O806   O     0.75518   0.49263   0.80854   0.00000  Uiso   1.00
O807   O     0.91149   0.50737   0.69146   0.00000  Uiso   1.00
O808   O     0.85532   0.50207   0.81671   0.00000  Uiso   1.00
O809   O     0.81134   0.49793   0.68329   0.00000  Uiso   1.00
O810   O     0.76546   0.41687   0.63645   0.00000  Uiso   1.00
C811   C     0.18169   0.93341   0.75133   0.00000  Uiso   1.00
C812   C     0.20466   0.83356   0.66647   0.00000  Uiso   1.00
C813   C     0.10388   0.81697   0.88017   0.00000  Uiso   1.00
C814   C     0.22697   0.82907   0.61777   0.00000  Uiso   1.00
C815   C     0.03768   0.75163   0.93287   0.00000  Uiso   1.00
C816   C     0.31225   0.85365   0.55243   0.00000  Uiso   1.00
C817   C     0.05045   0.77593   0.89272   0.00000  Uiso   1.00
C818   C     0.29123   0.84920   0.59789   0.00000  Uiso   1.00
C819   C     0.14165   0.83710   0.91011   0.00000  Uiso   1.00
C820   C     0.18417   0.80755   0.59076   0.00000  Uiso   1.00
C821   C     0.13575   0.80636   0.94710   0.00000  Uiso   1.00
C822   C     0.15161   0.73325   0.74872   0.00000  Uiso   1.00
C823   C     0.20600   0.81085   0.54396   0.00000  Uiso   1.00
C824   C     0.08094   0.76514   0.95937   0.00000  Uiso   1.00
C825   C     0.26961   0.83759   0.52571   0.00000  Uiso   1.00
C826   C     0.18225   0.81459   0.97227   0.00000  Uiso   1.00
C827   C     0.16590   0.79214   0.51451   0.00000  Uiso   1.00
C828   C     0.11569   0.78730   0.61139   0.00000  Uiso   1.00
C829   C     0.17756   0.89321   0.90702   0.00000  Uiso   1.00
C830   C     0.11281   0.74958   0.52425   0.00000  Uiso   1.00
C831   C     0.24627   0.83953   0.95488   0.00000  Uiso   1.00
C832   C     0.07103   0.73639   0.99714   0.00000  Uiso   1.00
C833   C     0.28977   0.84923   0.98091   0.00000  Uiso   1.00
C834   C     0.19017   0.98936   0.75202   0.00000  Uiso   1.00
C835   C     0.14310   0.67731   0.74811   0.00000  Uiso   1.00
C836   C     0.12799   0.82929   0.83324   0.00000  Uiso   1.00
Cu837  Cu    0.10737   0.82775   0.74516   0.00000  Uiso   1.00
Cu838  Cu    0.22596   0.83892   0.75484   0.00000  Uiso   1.00
H839   H     0.03077   0.70344   0.50580   0.00000  Uiso   1.00
H840   H     0.09773   0.98686   0.74440   0.00000  Uiso   1.00
H841   H     0.00136   0.87181   0.78455   0.00000  Uiso   1.00
H842   H     0.33198   0.79487   0.71544   0.00000  Uiso   1.00
H843   H     0.08003   0.80405   0.60284   0.00000  Uiso   1.00
H844   H     0.19671   0.91200   0.93410   0.00000  Uiso   1.00
H845   H     0.00536   0.86833   0.96640   0.00000  Uiso   1.00
H846   H     0.32483   0.86455   0.61771   0.00000  Uiso   1.00
H847   H     0.02030   0.76078   0.87048   0.00000  Uiso   1.00
H848   H     0.32946   0.71983   0.94184   0.00000  Uiso   1.00
H849   H     0.02820   0.87209   0.53826   0.00000  Uiso   1.00
H850   H     0.10485   0.72385   0.55142   0.00000  Uiso   1.00
H851   H     0.26390   0.84984   0.92053   0.00000  Uiso   1.00
H852   H     0.23553   0.67981   0.75574   0.00000  Uiso   1.00
N853   N     0.31506   0.84735   0.76212   0.00000  Uiso   1.00
N854   N     0.01827   0.81932   0.73788   0.00000  Uiso   1.00
O855   O     0.12815   0.90476   0.74686   0.00000  Uiso   1.00
O856   O     0.18319   0.92026   0.87555   0.00000  Uiso   1.00
O857   O     0.20518   0.76191   0.75314   0.00000  Uiso   1.00
O858   O     0.22829   0.91420   0.75502   0.00000  Uiso   1.00
O859   O     0.10504   0.75247   0.74498   0.00000  Uiso   1.00
O860   O     0.08851   0.82597   0.80854   0.00000  Uiso   1.00
O861   O     0.24482   0.84070   0.69146   0.00000  Uiso   1.00
O862   O     0.18866   0.83540   0.81671   0.00000  Uiso   1.00
O863   O     0.14468   0.83126   0.68329   0.00000  Uiso   1.00
O864   O     0.09879   0.75021   0.63645   0.00000  Uiso   1.00
C865   C     0.51503   0.93341   0.75133   0.00000  Uiso   1.00
C866   C     0.53799   0.83356   0.66647   0.00000  Uiso   1.00
C867   C     0.43721   0.81697   0.88017   0.00000  Uiso   1.00
C868   C     0.56031   0.82907   0.61777   0.00000  Uiso   1.00
C869   C     0.37101   0.75163   0.93287   0.00000  Uiso   1.00
C870   C     0.64558   0.85365   0.55243   0.00000  Uiso   1.00
C871   C     0.38378   0.77593   0.89272   0.00000  Uiso   1.00
C872   C     0.62456   0.84920   0.59789   0.00000  Uiso   1.00
C873   C     0.47498   0.83710   0.91011   0.00000  Uiso   1.00
C874   C     0.51750   0.80755   0.59076   0.00000  Uiso   1.00
C875   C     0.46909   0.80636   0.94710   0.00000  Uiso   1.00
C876   C     0.48495   0.73325   0.74872   0.00000  Uiso   1.00
C877   C     0.53933   0.81085   0.54396   0.00000  Uiso   1.00
C878   C     0.41427   0.76514   0.95937   0.00000  Uiso   1.00
C879   C     0.60294   0.83759   0.52571   0.00000  Uiso   1.00
C880   C     0.51558   0.81459   0.97227   0.00000  Uiso   1.00
C881   C     0.49924   0.79214   0.51451   0.00000  Uiso   1.00
C882   C     0.44903   0.78730   0.61139   0.00000  Uiso   1.00
C883   C     0.51089   0.89321   0.90702   0.00000  Uiso   1.00
C884   C     0.44614   0.74958   0.52425   0.00000  Uiso   1.00
C885   C     0.57961   0.83953   0.95488   0.00000  Uiso   1.00
C886   C     0.40437   0.73639   0.99714   0.00000  Uiso   1.00
C887   C     0.62310   0.84923   0.98091   0.00000  Uiso   1.00
C888   C     0.52350   0.98936   0.75202   0.00000  Uiso   1.00
C889   C     0.47643   0.67731   0.74811   0.00000  Uiso   1.00
C890   C     0.46133   0.82929   0.83324   0.00000  Uiso   1.00
Cu891  Cu    0.44071   0.82775   0.74516   0.00000  Uiso   1.00
Cu892  Cu    0.55929   0.83892   0.75484   0.00000  Uiso   1.00
H893   H     0.36411   0.70344   0.50580   0.00000  Uiso   1.00
H894   H     0.43107   0.98686   0.74440   0.00000  Uiso   1.00
H895   H     0.33470   0.87181   0.78455   0.00000  Uiso   1.00
H896   H     0.66532   0.79487   0.71544   0.00000  Uiso   1.00
H897   H     0.41336   0.80405   0.60284   0.00000  Uiso   1.00
H898   H     0.53005   0.91200   0.93410   0.00000  Uiso   1.00
H899   H     0.33869   0.86833   0.96640   0.00000  Uiso   1.00
H900   H     0.65816   0.86455   0.61771   0.00000  Uiso   1.00
H901   H     0.35363   0.76078   0.87048   0.00000  Uiso   1.00
H902   H     0.66279   0.71983   0.94184   0.00000  Uiso   1.00
H903   H     0.36153   0.87209   0.53826   0.00000  Uiso   1.00
H904   H     0.43818   0.72385   0.55142   0.00000  Uiso   1.00
H905   H     0.59723   0.84984   0.92053   0.00000  Uiso   1.00
H906   H     0.56886   0.67981   0.75574   0.00000  Uiso   1.00
N907   N     0.64839   0.84735   0.76212   0.00000  Uiso   1.00
N908   N     0.35161   0.81932   0.73788   0.00000  Uiso   1.00
O909   O     0.46148   0.90476   0.74686   0.00000  Uiso   1.00
O910   O     0.51652   0.92026   0.87555   0.00000  Uiso   1.00
O911   O     0.53852   0.76191   0.75314   0.00000  Uiso   1.00
O912   O     0.56163   0.91420   0.75502   0.00000  Uiso   1.00
O913   O     0.43837   0.75247   0.74498   0.00000  Uiso   1.00
O914   O     0.42185   0.82597   0.80854   0.00000  Uiso   1.00
O915   O     0.57815   0.84070   0.69146   0.00000  Uiso   1.00
O916   O     0.52199   0.83540   0.81671   0.00000  Uiso   1.00
O917   O     0.47801   0.83126   0.68329   0.00000  Uiso   1.00
O918   O     0.43213   0.75021   0.63645   0.00000  Uiso   1.00
C919   C     0.84836   0.93341   0.75133   0.00000  Uiso   1.00
C920   C     0.87132   0.83356   0.66647   0.00000  Uiso   1.00
C921   C     0.77055   0.81697   0.88017   0.00000  Uiso   1.00
C922   C     0.89364   0.82907   0.61777   0.00000  Uiso   1.00
C923   C     0.70434   0.75163   0.93287   0.00000  Uiso   1.00
C924   C     0.97891   0.85365   0.55243   0.00000  Uiso   1.00
C925   C     0.71712   0.77593   0.89272   0.00000  Uiso   1.00
C926   C     0.95789   0.84920   0.59789   0.00000  Uiso   1.00
C927   C     0.80831   0.83710   0.91011   0.00000  Uiso   1.00
C928   C     0.85083   0.80755   0.59076   0.00000  Uiso   1.00
C929   C     0.80242   0.80636   0.94710   0.00000  Uiso   1.00
C930   C     0.81828   0.73325   0.74872   0.00000  Uiso   1.00
C931   C     0.87267   0.81085   0.54396   0.00000  Uiso   1.00
C932   C     0.74760   0.76514   0.95937   0.00000  Uiso   1.00
C933   C     0.93628   0.83759   0.52571   0.00000  Uiso   1.00
C934   C     0.84891   0.81459   0.97227   0.00000  Uiso   1.00
C935   C     0.83257   0.79214   0.51451   0.00000  Uiso   1.00
C936   C     0.78236   0.78730   0.61139   0.00000  Uiso   1.00
C937   C     0.84422   0.89321   0.90702   0.00000  Uiso   1.00
C938   C     0.77947   0.74958   0.52425   0.00000  Uiso   1.00
C939   C     0.91294   0.83953   0.95488   0.00000  Uiso   1.00
C940   C     0.73770   0.73639   0.99714   0.00000  Uiso   1.00
C941   C     0.95644   0.84923   0.98091   0.00000  Uiso   1.00
C942   C     0.85683   0.98936   0.75202   0.00000  Uiso   1.00
C943   C     0.80977   0.67731   0.74811   0.00000  Uiso   1.00
C944   C     0.79466   0.82929   0.83324   0.00000  Uiso   1.00
Cu945  Cu    0.77404   0.82775   0.74516   0.00000  Uiso   1.00
Cu946  Cu    0.89263   0.83892   0.75484   0.00000  Uiso   1.00
H947   H     0.69744   0.70344   0.50580   0.00000  Uiso   1.00
H948   H     0.76440   0.98686   0.74440   0.00000  Uiso   1.00
H949   H     0.66803   0.87181   0.78455   0.00000  Uiso   1.00
H950   H     0.99865   0.79487   0.71544   0.00000  Uiso   1.00
H951   H     0.74669   0.80405   0.60284   0.00000  Uiso   1.00
H952   H     0.86338   0.91200   0.93410   0.00000  Uiso   1.00
H953   H     0.67203   0.86833   0.96640   0.00000  Uiso   1.00
H954   H     0.99149   0.86455   0.61771   0.00000  Uiso   1.00
H955   H     0.68696   0.76078   0.87048   0.00000  Uiso   1.00
H956   H     0.99613   0.71983   0.94184   0.00000  Uiso   1.00
H957   H     0.69487   0.87209   0.53826   0.00000  Uiso   1.00
H958   H     0.77152   0.72385   0.55142   0.00000  Uiso   1.00
H959   H     0.93057   0.84984   0.92053   0.00000  Uiso   1.00
H960   H     0.90220   0.67981   0.75574   0.00000  Uiso   1.00
N961   N     0.98173   0.84735   0.76212   0.00000  Uiso   1.00
N962   N     0.68494   0.81932   0.73788   0.00000  Uiso   1.00
O963   O     0.79482   0.90476   0.74686   0.00000  Uiso   1.00
O964   O     0.84985   0.92026   0.87555   0.00000  Uiso   1.00
O965   O     0.87185   0.76191   0.75314   0.00000  Uiso   1.00
O966   O     0.89496   0.91420   0.75502   0.00000  Uiso   1.00
O967   O     0.77171   0.75247   0.74498   0.00000  Uiso   1.00
O968   O     0.75518   0.82597   0.80854   0.00000  Uiso   1.00
O969   O     0.91149   0.84070   0.69146   0.00000  Uiso   1.00
O970   O     0.85532   0.83540   0.81671   0.00000  Uiso   1.00
O971   O     0.81134   0.83126   0.68329   0.00000  Uiso   1.00
O972   O     0.76546   0.75021   0.63645   0.00000  Uiso   1.00
loop_
_geom_bond_atom_site_label_1
_geom_bond_atom_site_label_2
_geom_bond_distance
_geom_bond_site_symmetry_2
_ccdc_geom_bond_type
C1     O48     1.284   .     A
C1     O45     1.290   .     A
C1     C24     1.427   .     S
C2     C4      1.488   .     S
C2     O53     1.294   .     A
C2     O51     1.309   .     A
C3     C9      1.414   .     A
C3     C7      1.400   .     A
C3     C26     1.467   .     S
C4     C8      1.401   .     A
C4     C10     1.430   .     A
C5     C14     1.399   .     A
C5     C7      1.388   .     A
C5     H146    1.084   1_455 S
C6     C8      1.390   .     A
C6     C15     1.399   .     A
C6     H93     1.084   .     S
C7     H37     1.083   .     S
C8     H36     1.083   .     S
C9     C11     1.422   .     A
C9     C19     1.496   .     S
C10    C13     1.429   .     A
C10    C18     1.484   .     S
C11    C16     1.427   .     A
C11    C14     1.420   .     A
C12    C25     1.427   .     S
C12    O49     1.284   .     A
C12    O47     1.290   .     A
C13    C17     1.432   .     A
C13    C15     1.420   .     A
C14    C22     1.394   .     A
C15    C509    1.398   1_554 S
C16    C21     1.409   .     A
C16    C503    1.417   .     S
C17    C20     1.411   .     A
C17    C502    1.417   1_554 S
C18    H33     1.086   .     S
C18    O54     1.222   .     D
C19    O46     1.221   .     D
C19    H34     1.084   .     S
C20    H40     1.079   .     S
C20    C508    1.388   1_554 S
C21    H41     1.082   .     S
C21    C23     1.391   .     A
C22    C506    1.388   .     S
C22    H515    1.084   .     S
C23    C501    1.398   .     S
C23    H89     1.084   .     S
C24    C187    1.328   .     S
C24    H204    1.088   .     S
C25    C348    1.328   1_545 S
C25    H354    1.088   1_545 S
C26    O52     1.294   .     A
C26    O50     1.299   .     A
Cu27   O53     1.910   .     S
Cu27   O50     1.930   .     S
Cu27   O45     1.955   .     S
Cu27   Cu28    2.683   .     S
Cu27   N44     2.016   .     S
Cu27   O49     1.951   .     S
Cu28   N43     2.016   .     S
Cu28   O47     1.955   .     S
Cu28   O51     1.930   .     S
Cu28   O48     1.951   .     S
Cu28   O52     1.910   .     S
H29    C508    1.084   1_554 S
H30    C187    1.088   .     S
H31    N151    1.029   1_455 S
H32    N98     1.029   .     S
H35    C131    1.084   1_455 S
H38    C59     1.084   .     S
H39    C114    1.084   1_455 S
H42    C348    1.088   1_545 S
N43    H85     1.029   .     S
N43    N98     1.284   .     S
N44    H140    1.029   1_455 S
N44    N151    1.284   1_455 S
C55    O102    1.284   .     A
C55    O99     1.290   .     A
C55    C78     1.427   .     S
C56    C58     1.488   .     S
C56    O107    1.294   .     A
C56    O105    1.309   .     A
C57    C63     1.414   .     A
C57    C61     1.400   .     A
C57    C80     1.467   .     S
C58    C62     1.401   .     A
C58    C64     1.430   .     A
C59    C68     1.399   .     A
C59    C61     1.388   .     A
C60    C62     1.390   .     A
C60    C69     1.399   .     A
C60    H147    1.084   .     S
C61    H91     1.083   .     S
C62    H90     1.083   .     S
C63    C65     1.422   .     A
C63    C73     1.496   .     S
C64    C67     1.429   .     A
C64    C72     1.484   .     S
C65    C70     1.427   .     A
C65    C68     1.420   .     A
C66    C79     1.427   .     S
C66    O103    1.284   .     A
C66    O101    1.290   .     A
C67    C71     1.432   .     A
C67    C69     1.420   .     A
C68    C76     1.394   .     A
C69    C563    1.398   1_554 S
C70    C75     1.409   .     A
C70    C557    1.417   .     S
C71    C74     1.411   .     A
C71    C556    1.417   1_554 S
C72    H87     1.086   .     S
C72    O108    1.222   .     D
C73    O100    1.221   .     D
C73    H88     1.084   .     S
C74    H94     1.079   .     S
C74    C562    1.388   1_554 S
C75    H95     1.082   .     S
C75    C77     1.391   .     A
C76    C560    1.388   .     S
C76    H569    1.084   .     S
C77    C555    1.398   .     S
C77    H143    1.084   .     S
C78    C241    1.328   .     S
C78    H258    1.088   .     S
C79    C402    1.328   1_545 S
C79    H408    1.088   1_545 S
C80    O106    1.294   .     A
C80    O104    1.299   .     A
Cu81   O107    1.910   .     S
Cu81   O104    1.930   .     S
Cu81   O99     1.955   .     S
Cu81   Cu82    2.683   .     S
Cu81   N98     2.016   .     S
Cu81   O103    1.951   .     S
Cu82   N97     2.016   .     S
Cu82   O101    1.955   .     S
Cu82   O105    1.930   .     S
Cu82   O102    1.951   .     S
Cu82   O106    1.910   .     S
H83    C562    1.084   1_554 S
H84    C241    1.088   .     S
H86    N152    1.029   .     S
H92    C113    1.084   .     S
H96    C402    1.088   1_545 S
N97    H139    1.029   .     S
N97    N152    1.284   .     S
C109   O156    1.284   .     A
C109   O153    1.290   .     A
C109   C132    1.427   .     S
C110   C112    1.488   .     S
C110   O161    1.294   .     A
C110   O159    1.309   .     A
C111   C117    1.414   .     A
C111   C115    1.400   .     A
C111   C134    1.467   .     S
C112   C116    1.401   .     A
C112   C118    1.430   .     A
C113   C122    1.399   .     A
C113   C115    1.388   .     A
C114   C116    1.390   .     A
C114   C123    1.399   .     A
C114   H39     1.084   1_655 S
C115   H145    1.083   .     S
C116   H144    1.083   .     S
C117   C119    1.422   .     A
C117   C127    1.496   .     S
C118   C121    1.429   .     A
C118   C126    1.484   .     S
C119   C124    1.427   .     A
C119   C122    1.420   .     A
C120   C133    1.427   .     S
C120   O157    1.284   .     A
C120   O155    1.290   .     A
C121   C125    1.432   .     A
C121   C123    1.420   .     A
C122   C130    1.394   .     A
C123   C617    1.398   1_554 S
C124   C129    1.409   .     A
C124   C611    1.417   .     S
C125   C128    1.411   .     A
C125   C610    1.417   1_554 S
C126   H141    1.086   .     S
C126   O162    1.222   .     D
C127   O154    1.221   .     D
C127   H142    1.084   .     S
C128   H148    1.079   .     S
C128   C616    1.388   1_554 S
C129   H149    1.082   .     S
C129   C131    1.391   .     A
C130   C614    1.388   .     S
C130   H623    1.084   .     S
C131   C609    1.398   .     S
C131   H35     1.084   1_655 S
C132   C295    1.328   .     S
C132   H312    1.088   .     S
C133   C456    1.328   1_545 S
C133   H462    1.088   1_545 S
C134   O160    1.294   .     A
C134   O158    1.299   .     A
Cu135  O161    1.910   .     S
Cu135  O158    1.930   .     S
Cu135  O153    1.955   .     S
Cu135  Cu136   2.683   .     S
Cu135  N152    2.016   .     S
Cu135  O157    1.951   .     S
Cu136  N151    2.016   .     S
Cu136  O155    1.955   .     S
Cu136  O159    1.930   .     S
Cu136  O156    1.951   .     S
Cu136  O160    1.910   .     S
H137   C616    1.084   1_554 S
H138   C295    1.088   .     S
H140   N44     1.029   1_655 S
H146   C5      1.084   1_655 S
H150   C456    1.088   1_545 S
N151   H31     1.029   1_655 S
N151   N44     1.284   1_655 S
C163   O210    1.284   .     A
C163   O207    1.290   .     A
C163   C186    1.427   .     S
C164   C166    1.488   .     S
C164   O215    1.294   .     A
C164   O213    1.309   .     A
C165   C171    1.414   .     A
C165   C169    1.400   .     A
C165   C188    1.467   .     S
C166   C170    1.401   .     A
C166   C172    1.430   .     A
C167   C176    1.399   .     A
C167   C169    1.388   .     A
C167   H308    1.084   1_455 S
C168   C170    1.390   .     A
C168   C177    1.399   .     A
C168   H255    1.084   .     S
C169   H199    1.083   .     S
C170   H198    1.083   .     S
C171   C173    1.422   .     A
C171   C181    1.496   .     S
C172   C175    1.429   .     A
C172   C180    1.484   .     S
C173   C178    1.427   .     A
C173   C176    1.420   .     A
C174   C187    1.427   .     S
C174   O211    1.284   .     A
C174   O209    1.290   .     A
C175   C179    1.432   .     A
C175   C177    1.420   .     A
C176   C184    1.394   .     A
C177   C671    1.398   1_554 S
C178   C183    1.409   .     A
C178   C665    1.417   .     S
C179   C182    1.411   .     A
C179   C664    1.417   1_554 S
C180   H195    1.086   .     S
C180   O216    1.222   .     D
C181   O208    1.221   .     D
C181   H196    1.084   .     S
C182   H202    1.079   .     S
C182   C670    1.388   1_554 S
C183   H203    1.082   .     S
C183   C185    1.391   .     A
C184   C668    1.388   .     S
C184   H677    1.084   .     S
C185   C663    1.398   .     S
C185   H251    1.084   .     S
C186   C349    1.328   .     S
C186   H366    1.088   .     S
C188   O214    1.294   .     A
C188   O212    1.299   .     A
Cu189  O215    1.910   .     S
Cu189  O212    1.930   .     S
Cu189  O207    1.955   .     S
Cu189  Cu190   2.683   .     S
Cu189  N206    2.016   .     S
Cu189  O211    1.951   .     S
Cu190  N205    2.016   .     S
Cu190  O209    1.955   .     S
Cu190  O213    1.930   .     S
Cu190  O210    1.951   .     S
Cu190  O214    1.910   .     S
H191   C670    1.084   1_554 S
H192   C349    1.088   .     S
H193   N313    1.029   1_455 S
H194   N260    1.029   .     S
H197   C293    1.084   1_455 S
H200   C221    1.084   .     S
H201   C276    1.084   1_455 S
N205   H247    1.029   .     S
N205   N260    1.284   .     S
N206   H302    1.029   1_455 S
N206   N313    1.284   1_455 S
C217   O264    1.284   .     A
C217   O261    1.290   .     A
C217   C240    1.427   .     S
C218   C220    1.488   .     S
C218   O269    1.294   .     A
C218   O267    1.309   .     A
C219   C225    1.414   .     A
C219   C223    1.400   .     A
C219   C242    1.467   .     S
C220   C224    1.401   .     A
C220   C226    1.430   .     A
C221   C230    1.399   .     A
C221   C223    1.388   .     A
C222   C224    1.390   .     A
C222   C231    1.399   .     A
C222   H309    1.084   .     S
C223   H253    1.083   .     S
C224   H252    1.083   .     S
C225   C227    1.422   .     A
C225   C235    1.496   .     S
C226   C229    1.429   .     A
C226   C234    1.484   .     S
C227   C232    1.427   .     A
C227   C230    1.420   .     A
C228   C241    1.427   .     S
C228   O265    1.284   .     A
C228   O263    1.290   .     A
C229   C233    1.432   .     A
C229   C231    1.420   .     A
C230   C238    1.394   .     A
C231   C725    1.398   1_554 S
C232   C237    1.409   .     A
C232   C719    1.417   .     S
C233   C236    1.411   .     A
C233   C718    1.417   1_554 S
C234   H249    1.086   .     S
C234   O270    1.222   .     D
C235   O262    1.221   .     D
C235   H250    1.084   .     S
C236   H256    1.079   .     S
C236   C724    1.388   1_554 S
C237   H257    1.082   .     S
C237   C239    1.391   .     A
C238   C722    1.388   .     S
C238   H731    1.084   .     S
C239   C717    1.398   .     S
C239   H305    1.084   .     S
C240   C403    1.328   .     S
C240   H420    1.088   .     S
C242   O268    1.294   .     A
C242   O266    1.299   .     A
Cu243  O269    1.910   .     S
Cu243  O266    1.930   .     S
Cu243  O261    1.955   .     S
Cu243  Cu244   2.683   .     S
Cu243  N260    2.016   .     S
Cu243  O265    1.951   .     S
Cu244  N259    2.016   .     S
Cu244  O263    1.955   .     S
Cu244  O267    1.930   .     S
Cu244  O264    1.951   .     S
Cu244  O268    1.910   .     S
H245   C724    1.084   1_554 S
H246   C403    1.088   .     S
H248   N314    1.029   .     S
H254   C275    1.084   .     S
N259   H301    1.029   .     S
N259   N314    1.284   .     S
C271   O318    1.284   .     A
C271   O315    1.290   .     A
C271   C294    1.427   .     S
C272   C274    1.488   .     S
C272   O323    1.294   .     A
C272   O321    1.309   .     A
C273   C279    1.414   .     A
C273   C277    1.400   .     A
C273   C296    1.467   .     S
C274   C278    1.401   .     A
C274   C280    1.430   .     A
C275   C284    1.399   .     A
C275   C277    1.388   .     A
C276   C278    1.390   .     A
C276   C285    1.399   .     A
C276   H201    1.084   1_655 S
C277   H307    1.083   .     S
C278   H306    1.083   .     S
C279   C281    1.422   .     A
C279   C289    1.496   .     S
C280   C283    1.429   .     A
C280   C288    1.484   .     S
C281   C286    1.427   .     A
C281   C284    1.420   .     A
C282   C295    1.427   .     S
C282   O319    1.284   .     A
C282   O317    1.290   .     A
C283   C287    1.432   .     A
C283   C285    1.420   .     A
C284   C292    1.394   .     A
C285   C779    1.398   1_554 S
C286   C291    1.409   .     A
C286   C773    1.417   .     S
C287   C290    1.411   .     A
C287   C772    1.417   1_554 S
C288   H303    1.086   .     S
C288   O324    1.222   .     D
C289   O316    1.221   .     D
C289   H304    1.084   .     S
C290   H310    1.079   .     S
C290   C778    1.388   1_554 S
C291   H311    1.082   .     S
C291   C293    1.391   .     A
C292   C776    1.388   .     S
C292   H785    1.084   .     S
C293   C771    1.398   .     S
C293   H197    1.084   1_655 S
C294   C457    1.328   .     S
C294   H474    1.088   .     S
C296   O322    1.294   .     A
C296   O320    1.299   .     A
Cu297  O323    1.910   .     S
Cu297  O320    1.930   .     S
Cu297  O315    1.955   .     S
Cu297  Cu298   2.683   .     S
Cu297  N314    2.016   .     S
Cu297  O319    1.951   .     S
Cu298  N313    2.016   .     S
Cu298  O317    1.955   .     S
Cu298  O321    1.930   .     S
Cu298  O318    1.951   .     S
Cu298  O322    1.910   .     S
H299   C778    1.084   1_554 S
H300   C457    1.088   .     S
H302   N206    1.029   1_655 S
H308   C167    1.084   1_655 S
N313   H193    1.029   1_655 S
N313   N206    1.284   1_655 S
C325   O372    1.284   .     A
C325   O369    1.290   .     A
C325   C348    1.427   .     S
C326   C328    1.488   .     S
C326   O377    1.294   .     A
C326   O375    1.309   .     A
C327   C333    1.414   .     A
C327   C331    1.400   .     A
C327   C350    1.467   .     S
C328   C332    1.401   .     A
C328   C334    1.430   .     A
C329   C338    1.399   .     A
C329   C331    1.388   .     A
C329   H470    1.084   1_455 S
C330   C332    1.390   .     A
C330   C339    1.399   .     A
C330   H417    1.084   .     S
C331   H361    1.083   .     S
C332   H360    1.083   .     S
C333   C335    1.422   .     A
C333   C343    1.496   .     S
C334   C337    1.429   .     A
C334   C342    1.484   .     S
C335   C340    1.427   .     A
C335   C338    1.420   .     A
C336   C349    1.427   .     S
C336   O373    1.284   .     A
C336   O371    1.290   .     A
C337   C341    1.432   .     A
C337   C339    1.420   .     A
C338   C346    1.394   .     A
C339   C833    1.398   1_554 S
C340   C345    1.409   .     A
C340   C827    1.417   .     S
C341   C344    1.411   .     A
C341   C826    1.417   1_554 S
C342   H357    1.086   .     S
C342   O378    1.222   .     D
C343   O370    1.221   .     D
C343   H358    1.084   .     S
C344   H364    1.079   .     S
C344   C832    1.388   1_554 S
C345   H365    1.082   .     S
C345   C347    1.391   .     A
C346   C830    1.388   .     S
C346   H839    1.084   .     S
C347   C825    1.398   .     S
C347   H413    1.084   .     S
C348   C25     1.328   1_565 S
C348   H42     1.088   1_565 S
C350   O376    1.294   .     A
C350   O374    1.299   .     A
Cu351  O377    1.910   .     S
Cu351  O374    1.930   .     S
Cu351  O369    1.955   .     S
Cu351  Cu352   2.683   .     S
Cu351  N368    2.016   .     S
Cu351  O373    1.951   .     S
Cu352  N367    2.016   .     S
Cu352  O371    1.955   .     S
Cu352  O375    1.930   .     S
Cu352  O372    1.951   .     S
Cu352  O376    1.910   .     S
H353   C832    1.084   1_554 S
H354   C25     1.088   1_565 S
H355   N475    1.029   1_455 S
H356   N422    1.029   .     S
H359   C455    1.084   1_455 S
H362   C383    1.084   .     S
H363   C438    1.084   1_455 S
N367   H409    1.029   .     S
N367   N422    1.284   .     S
N368   H464    1.029   1_455 S
N368   N475    1.284   1_455 S
C379   O426    1.284   .     A
C379   O423    1.290   .     A
C379   C402    1.427   .     S
C380   C382    1.488   .     S
C380   O431    1.294   .     A
C380   O429    1.309   .     A
C381   C387    1.414   .     A
C381   C385    1.400   .     A
C381   C404    1.467   .     S
C382   C386    1.401   .     A
C382   C388    1.430   .     A
C383   C392    1.399   .     A
C383   C385    1.388   .     A
C384   C386    1.390   .     A
C384   C393    1.399   .     A
C384   H471    1.084   .     S
C385   H415    1.083   .     S
C386   H414    1.083   .     S
C387   C389    1.422   .     A
C387   C397    1.496   .     S
C388   C391    1.429   .     A
C388   C396    1.484   .     S
C389   C394    1.427   .     A
C389   C392    1.420   .     A
C390   C403    1.427   .     S
C390   O427    1.284   .     A
C390   O425    1.290   .     A
C391   C395    1.432   .     A
C391   C393    1.420   .     A
C392   C400    1.394   .     A
C393   C887    1.398   1_554 S
C394   C399    1.409   .     A
C394   C881    1.417   .     S
C395   C398    1.411   .     A
C395   C880    1.417   1_554 S
C396   H411    1.086   .     S
C396   O432    1.222   .     D
C397   O424    1.221   .     D
C397   H412    1.084   .     S
C398   H418    1.079   .     S
C398   C886    1.388   1_554 S
C399   H419    1.082   .     S
C399   C401    1.391   .     A
C400   C884    1.388   .     S
C400   H893    1.084   .     S
C401   C879    1.398   .     S
C401   H467    1.084   .     S
C402   C79     1.328   1_565 S
C402   H96     1.088   1_565 S
C404   O430    1.294   .     A
C404   O428    1.299   .     A
Cu405  O431    1.910   .     S
Cu405  O428    1.930   .     S
Cu405  O423    1.955   .     S
Cu405  Cu406   2.683   .     S
Cu405  N422    2.016   .     S
Cu405  O427    1.951   .     S
Cu406  N421    2.016   .     S
Cu406  O425    1.955   .     S
Cu406  O429    1.930   .     S
Cu406  O426    1.951   .     S
Cu406  O430    1.910   .     S
H407   C886    1.084   1_554 S
H408   C79     1.088   1_565 S
H410   N476    1.029   .     S
H416   C437    1.084   .     S
N421   H463    1.029   .     S
N421   N476    1.284   .     S
C433   O480    1.284   .     A
C433   O477    1.290   .     A
C433   C456    1.427   .     S
C434   C436    1.488   .     S
C434   O485    1.294   .     A
C434   O483    1.309   .     A
C435   C441    1.414   .     A
C435   C439    1.400   .     A
C435   C458    1.467   .     S
C436   C440    1.401   .     A
C436   C442    1.430   .     A
C437   C446    1.399   .     A
C437   C439    1.388   .     A
C438   C440    1.390   .     A
C438   C447    1.399   .     A
C438   H363    1.084   1_655 S
C439   H469    1.083   .     S
C440   H468    1.083   .     S
C441   C443    1.422   .     A
C441   C451    1.496   .     S
C442   C445    1.429   .     A
C442   C450    1.484   .     S
C443   C448    1.427   .     A
C443   C446    1.420   .     A
C444   C457    1.427   .     S
C444   O481    1.284   .     A
C444   O479    1.290   .     A
C445   C449    1.432   .     A
C445   C447    1.420   .     A
C446   C454    1.394   .     A
C447   C941    1.398   1_554 S
C448   C453    1.409   .     A
C448   C935    1.417   .     S
C449   C452    1.411   .     A
C449   C934    1.417   1_554 S
C450   H465    1.086   .     S
C450   O486    1.222   .     D
C451   O478    1.221   .     D
C451   H466    1.084   .     S
C452   H472    1.079   .     S
C452   C940    1.388   1_554 S
C453   H473    1.082   .     S
C453   C455    1.391   .     A
C454   C938    1.388   .     S
C454   H947    1.084   .     S
C455   C933    1.398   .     S
C455   H359    1.084   1_655 S
C456   C133    1.328   1_565 S
C456   H150    1.088   1_565 S
C458   O484    1.294   .     A
C458   O482    1.299   .     A
Cu459  O485    1.910   .     S
Cu459  O482    1.930   .     S
Cu459  O477    1.955   .     S
Cu459  Cu460   2.683   .     S
Cu459  N476    2.016   .     S
Cu459  O481    1.951   .     S
Cu460  N475    2.016   .     S
Cu460  O479    1.955   .     S
Cu460  O483    1.930   .     S
Cu460  O480    1.951   .     S
Cu460  O484    1.910   .     S
H461   C940    1.084   1_554 S
H462   C133    1.088   1_565 S
H464   N368    1.029   1_655 S
H470   C329    1.084   1_655 S
N475   H355    1.029   1_655 S
N475   N368    1.284   1_655 S
C487   O534    1.284   .     A
C487   O531    1.290   .     A
C487   C510    1.427   .     S
C488   C490    1.488   .     S
C488   O539    1.294   .     A
C488   O537    1.309   .     A
C489   C495    1.414   .     A
C489   C493    1.400   .     A
C489   C512    1.467   .     S
C490   C494    1.401   .     A
C490   C496    1.430   .     A
C491   C500    1.399   .     A
C491   C493    1.388   .     A
C491   H632    1.084   1_455 S
C492   C494    1.390   .     A
C492   C501    1.399   .     A
C492   H579    1.084   .     S
C493   H523    1.083   .     S
C494   H522    1.083   .     S
C495   C497    1.422   .     A
C495   C505    1.496   .     S
C496   C499    1.429   .     A
C496   C504    1.484   .     S
C497   C502    1.427   .     A
C497   C500    1.420   .     A
C498   C511    1.427   .     S
C498   O535    1.284   .     A
C498   O533    1.290   .     A
C499   C503    1.432   .     A
C499   C501    1.420   .     A
C500   C508    1.394   .     A
C502   C507    1.409   .     A
C502   C17     1.417   1_556 S
C503   C506    1.411   .     A
C504   H519    1.086   .     S
C504   O540    1.222   .     D
C505   O532    1.221   .     D
C505   H520    1.084   .     S
C506   H526    1.079   .     S
C507   H527    1.082   .     S
C507   C509    1.391   .     A
C508   C20     1.388   1_556 S
C508   H29     1.084   1_556 S
C509   C15     1.398   1_556 S
C509   H575    1.084   .     S
C510   C673    1.328   .     S
C510   H690    1.088   .     S
C511   C834    1.328   1_545 S
C511   H840    1.088   1_545 S
C512   O538    1.294   .     A
C512   O536    1.299   .     A
Cu513  O539    1.910   .     S
Cu513  O536    1.930   .     S
Cu513  O531    1.955   .     S
Cu513  Cu514   2.683   .     S
Cu513  N530    2.016   .     S
Cu513  O535    1.951   .     S
Cu514  N529    2.016   .     S
Cu514  O533    1.955   .     S
Cu514  O537    1.930   .     S
Cu514  O534    1.951   .     S
Cu514  O538    1.910   .     S
H516   C673    1.088   .     S
H517   N637    1.029   1_455 S
H518   N584    1.029   .     S
H521   C617    1.084   1_455 S
H524   C545    1.084   .     S
H525   C600    1.084   1_455 S
H528   C834    1.088   1_545 S
N529   H571    1.029   .     S
N529   N584    1.284   .     S
N530   H626    1.029   1_455 S
N530   N637    1.284   1_455 S
C541   O588    1.284   .     A
C541   O585    1.290   .     A
C541   C564    1.427   .     S
C542   C544    1.488   .     S
C542   O593    1.294   .     A
C542   O591    1.309   .     A
C543   C549    1.414   .     A
C543   C547    1.400   .     A
C543   C566    1.467   .     S
C544   C548    1.401   .     A
C544   C550    1.430   .     A
C545   C554    1.399   .     A
C545   C547    1.388   .     A
C546   C548    1.390   .     A
C546   C555    1.399   .     A
C546   H633    1.084   .     S
C547   H577    1.083   .     S
C548   H576    1.083   .     S
C549   C551    1.422   .     A
C549   C559    1.496   .     S
C550   C553    1.429   .     A
C550   C558    1.484   .     S
C551   C556    1.427   .     A
C551   C554    1.420   .     A
C552   C565    1.427   .     S
C552   O589    1.284   .     A
C552   O587    1.290   .     A
C553   C557    1.432   .     A
C553   C555    1.420   .     A
C554   C562    1.394   .     A
C556   C561    1.409   .     A
C556   C71     1.417   1_556 S
C557   C560    1.411   .     A
C558   H573    1.086   .     S
C558   O594    1.222   .     D
C559   O586    1.221   .     D
C559   H574    1.084   .     S
C560   H580    1.079   .     S
C561   H581    1.082   .     S
C561   C563    1.391   .     A
C562   C74     1.388   1_556 S
C562   H83     1.084   1_556 S
C563   C69     1.398   1_556 S
C563   H629    1.084   .     S
C564   C727    1.328   .     S
C564   H744    1.088   .     S
C565   C888    1.328   1_545 S
C565   H894    1.088   1_545 S
C566   O592    1.294   .     A
C566   O590    1.299   .     A
Cu567  O593    1.910   .     S
Cu567  O590    1.930   .     S
Cu567  O585    1.955   .     S
Cu567  Cu568   2.683   .     S
Cu567  N584    2.016   .     S
Cu567  O589    1.951   .     S
Cu568  N583    2.016   .     S
Cu568  O587    1.955   .     S
Cu568  O591    1.930   .     S
Cu568  O588    1.951   .     S
Cu568  O592    1.910   .     S
H570   C727    1.088   .     S
H572   N638    1.029   .     S
H578   C599    1.084   .     S
H582   C888    1.088   1_545 S
N583   H625    1.029   .     S
N583   N638    1.284   .     S
C595   O642    1.284   .     A
C595   O639    1.290   .     A
C595   C618    1.427   .     S
C596   C598    1.488   .     S
C596   O647    1.294   .     A
C596   O645    1.309   .     A
C597   C603    1.414   .     A
C597   C601    1.400   .     A
C597   C620    1.467   .     S
C598   C602    1.401   .     A
C598   C604    1.430   .     A
C599   C608    1.399   .     A
C599   C601    1.388   .     A
C600   C602    1.390   .     A
C600   C609    1.399   .     A
C600   H525    1.084   1_655 S
C601   H631    1.083   .     S
C602   H630    1.083   .     S
C603   C605    1.422   .     A
C603   C613    1.496   .     S
C604   C607    1.429   .     A
C604   C612    1.484   .     S
C605   C610    1.427   .     A
C605   C608    1.420   .     A
C606   C619    1.427   .     S
C606   O643    1.284   .     A
C606   O641    1.290   .     A
C607   C611    1.432   .     A
C607   C609    1.420   .     A
C608   C616    1.394   .     A
C610   C615    1.409   .     A
C610   C125    1.417   1_556 S
C611   C614    1.411   .     A
C612   H627    1.086   .     S
C612   O648    1.222   .     D
C613   O640    1.221   .     D
C613   H628    1.084   .     S
C614   H634    1.079   .     S
C615   H635    1.082   .     S
C615   C617    1.391   .     A
C616   C128    1.388   1_556 S
C616   H137    1.084   1_556 S
C617   C123    1.398   1_556 S
C617   H521    1.084   1_655 S
C618   C781    1.328   .     S
C618   H798    1.088   .     S
C619   C942    1.328   1_545 S
C619   H948    1.088   1_545 S
C620   O646    1.294   .     A
C620   O644    1.299   .     A
Cu621  O647    1.910   .     S
Cu621  O644    1.930   .     S
Cu621  O639    1.955   .     S
Cu621  Cu622   2.683   .     S
Cu621  N638    2.016   .     S
Cu621  O643    1.951   .     S
Cu622  N637    2.016   .     S
Cu622  O641    1.955   .     S
Cu622  O645    1.930   .     S
Cu622  O642    1.951   .     S
Cu622  O646    1.910   .     S
H624   C781    1.088   .     S
H626   N530    1.029   1_655 S
H632   C491    1.084   1_655 S
H636   C942    1.088   1_545 S
N637   H517    1.029   1_655 S
N637   N530    1.284   1_655 S
C649   O696    1.284   .     A
C649   O693    1.290   .     A
C649   C672    1.427   .     S
C650   C652    1.488   .     S
C650   O701    1.294   .     A
C650   O699    1.309   .     A
C651   C657    1.414   .     A
C651   C655    1.400   .     A
C651   C674    1.467   .     S
C652   C656    1.401   .     A
C652   C658    1.430   .     A
C653   C662    1.399   .     A
C653   C655    1.388   .     A
C653   H794    1.084   1_455 S
C654   C656    1.390   .     A
C654   C663    1.399   .     A
C654   H741    1.084   .     S
C655   H685    1.083   .     S
C656   H684    1.083   .     S
C657   C659    1.422   .     A
C657   C667    1.496   .     S
C658   C661    1.429   .     A
C658   C666    1.484   .     S
C659   C664    1.427   .     A
C659   C662    1.420   .     A
C660   C673    1.427   .     S
C660   O697    1.284   .     A
C660   O695    1.290   .     A
C661   C665    1.432   .     A
C661   C663    1.420   .     A
C662   C670    1.394   .     A
C664   C669    1.409   .     A
C664   C179    1.417   1_556 S
C665   C668    1.411   .     A
C666   H681    1.086   .     S
C666   O702    1.222   .     D
C667   O694    1.221   .     D
C667   H682    1.084   .     S
C668   H688    1.079   .     S
C669   H689    1.082   .     S
C669   C671    1.391   .     A
C670   C182    1.388   1_556 S
C670   H191    1.084   1_556 S
C671   C177    1.398   1_556 S
C671   H737    1.084   .     S
C672   C835    1.328   .     S
C672   H852    1.088   .     S
C674   O700    1.294   .     A
C674   O698    1.299   .     A
Cu675  O701    1.910   .     S
Cu675  O698    1.930   .     S
Cu675  O693    1.955   .     S
Cu675  Cu676   2.683   .     S
Cu675  N692    2.016   .     S
Cu675  O697    1.951   .     S
Cu676  N691    2.016   .     S
Cu676  O695    1.955   .     S
Cu676  O699    1.930   .     S
Cu676  O696    1.951   .     S
Cu676  O700    1.910   .     S
H678   C835    1.088   .     S
H679   N799    1.029   1_455 S
H680   N746    1.029   .     S
H683   C779    1.084   1_455 S
H686   C707    1.084   .     S
H687   C762    1.084   1_455 S
N691   H733    1.029   .     S
N691   N746    1.284   .     S
N692   H788    1.029   1_455 S
N692   N799    1.284   1_455 S
C703   O750    1.284   .     A
C703   O747    1.290   .     A
C703   C726    1.427   .     S
C704   C706    1.488   .     S
C704   O755    1.294   .     A
C704   O753    1.309   .     A
C705   C711    1.414   .     A
C705   C709    1.400   .     A
C705   C728    1.467   .     S
C706   C710    1.401   .     A
C706   C712    1.430   .     A
C707   C716    1.399   .     A
C707   C709    1.388   .     A
C708   C710    1.390   .     A
C708   C717    1.399   .     A
C708   H795    1.084   .     S
C709   H739    1.083   .     S
C710   H738    1.083   .     S
C711   C713    1.422   .     A
C711   C721    1.496   .     S
C712   C715    1.429   .     A
C712   C720    1.484   .     S
C713   C718    1.427   .     A
C713   C716    1.420   .     A
C714   C727    1.427   .     S
C714   O751    1.284   .     A
C714   O749    1.290   .     A
C715   C719    1.432   .     A
C715   C717    1.420   .     A
C716   C724    1.394   .     A
C718   C723    1.409   .     A
C718   C233    1.417   1_556 S
C719   C722    1.411   .     A
C720   H735    1.086   .     S
C720   O756    1.222   .     D
C721   O748    1.221   .     D
C721   H736    1.084   .     S
C722   H742    1.079   .     S
C723   H743    1.082   .     S
C723   C725    1.391   .     A
C724   C236    1.388   1_556 S
C724   H245    1.084   1_556 S
C725   C231    1.398   1_556 S
C725   H791    1.084   .     S
C726   C889    1.328   .     S
C726   H906    1.088   .     S
C728   O754    1.294   .     A
C728   O752    1.299   .     A
Cu729  O755    1.910   .     S
Cu729  O752    1.930   .     S
Cu729  O747    1.955   .     S
Cu729  Cu730   2.683   .     S
Cu729  N746    2.016   .     S
Cu729  O751    1.951   .     S
Cu730  N745    2.016   .     S
Cu730  O749    1.955   .     S
Cu730  O753    1.930   .     S
Cu730  O750    1.951   .     S
Cu730  O754    1.910   .     S
H732   C889    1.088   .     S
H734   N800    1.029   .     S
H740   C761    1.084   .     S
N745   H787    1.029   .     S
N745   N800    1.284   .     S
C757   O804    1.284   .     A
C757   O801    1.290   .     A
C757   C780    1.427   .     S
C758   C760    1.488   .     S
C758   O809    1.294   .     A
C758   O807    1.309   .     A
C759   C765    1.414   .     A
C759   C763    1.400   .     A
C759   C782    1.467   .     S
C760   C764    1.401   .     A
C760   C766    1.430   .     A
C761   C770    1.399   .     A
C761   C763    1.388   .     A
C762   C764    1.390   .     A
C762   C771    1.399   .     A
C762   H687    1.084   1_655 S
C763   H793    1.083   .     S
C764   H792    1.083   .     S
C765   C767    1.422   .     A
C765   C775    1.496   .     S
C766   C769    1.429   .     A
C766   C774    1.484   .     S
C767   C772    1.427   .     A
C767   C770    1.420   .     A
C768   C781    1.427   .     S
C768   O805    1.284   .     A
C768   O803    1.290   .     A
C769   C773    1.432   .     A
C769   C771    1.420   .     A
C770   C778    1.394   .     A
C772   C777    1.409   .     A
C772   C287    1.417   1_556 S
C773   C776    1.411   .     A
C774   H789    1.086   .     S
C774   O810    1.222   .     D
C775   O802    1.221   .     D
C775   H790    1.084   .     S
C776   H796    1.079   .     S
C777   H797    1.082   .     S
C777   C779    1.391   .     A
C778   C290    1.388   1_556 S
C778   H299    1.084   1_556 S
C779   C285    1.398   1_556 S
C779   H683    1.084   1_655 S
C780   C943    1.328   .     S
C780   H960    1.088   .     S
C782   O808    1.294   .     A
C782   O806    1.299   .     A
Cu783  O809    1.910   .     S
Cu783  O806    1.930   .     S
Cu783  O801    1.955   .     S
Cu783  Cu784   2.683   .     S
Cu783  N800    2.016   .     S
Cu783  O805    1.951   .     S
Cu784  N799    2.016   .     S
Cu784  O803    1.955   .     S
Cu784  O807    1.930   .     S
Cu784  O804    1.951   .     S
Cu784  O808    1.910   .     S
H786   C943    1.088   .     S
H788   N692    1.029   1_655 S
H794   C653    1.084   1_655 S
N799   H679    1.029   1_655 S
N799   N692    1.284   1_655 S
C811   O858    1.284   .     A
C811   O855    1.290   .     A
C811   C834    1.427   .     S
C812   C814    1.488   .     S
C812   O863    1.294   .     A
C812   O861    1.309   .     A
C813   C819    1.414   .     A
C813   C817    1.400   .     A
C813   C836    1.467   .     S
C814   C818    1.401   .     A
C814   C820    1.430   .     A
C815   C824    1.399   .     A
C815   C817    1.388   .     A
C815   H956    1.084   1_455 S
C816   C818    1.390   .     A
C816   C825    1.399   .     A
C816   H903    1.084   .     S
C817   H847    1.083   .     S
C818   H846    1.083   .     S
C819   C821    1.422   .     A
C819   C829    1.496   .     S
C820   C823    1.429   .     A
C820   C828    1.484   .     S
C821   C826    1.427   .     A
C821   C824    1.420   .     A
C822   C835    1.427   .     S
C822   O859    1.284   .     A
C822   O857    1.290   .     A
C823   C827    1.432   .     A
C823   C825    1.420   .     A
C824   C832    1.394   .     A
C826   C831    1.409   .     A
C826   C341    1.417   1_556 S
C827   C830    1.411   .     A
C828   H843    1.086   .     S
C828   O864    1.222   .     D
C829   O856    1.221   .     D
C829   H844    1.084   .     S
C830   H850    1.079   .     S
C831   H851    1.082   .     S
C831   C833    1.391   .     A
C832   C344    1.388   1_556 S
C832   H353    1.084   1_556 S
C833   C339    1.398   1_556 S
C833   H899    1.084   .     S
C834   C511    1.328   1_565 S
C834   H528    1.088   1_565 S
C836   O862    1.294   .     A
C836   O860    1.299   .     A
Cu837  O863    1.910   .     S
Cu837  O860    1.930   .     S
Cu837  O855    1.955   .     S
Cu837  Cu838   2.683   .     S
Cu837  N854    2.016   .     S
Cu837  O859    1.951   .     S
Cu838  N853    2.016   .     S
Cu838  O857    1.955   .     S
Cu838  O861    1.930   .     S
Cu838  O858    1.951   .     S
Cu838  O862    1.910   .     S
H840   C511    1.088   1_565 S
H841   N961    1.029   1_455 S
H842   N908    1.029   .     S
H845   C941    1.084   1_455 S
H848   C869    1.084   .     S
H849   C924    1.084   1_455 S
N853   H895    1.029   .     S
N853   N908    1.284   .     S
N854   H950    1.029   1_455 S
N854   N961    1.284   1_455 S
C865   O912    1.284   .     A
C865   O909    1.290   .     A
C865   C888    1.427   .     S
C866   C868    1.488   .     S
C866   O917    1.294   .     A
C866   O915    1.309   .     A
C867   C873    1.414   .     A
C867   C871    1.400   .     A
C867   C890    1.467   .     S
C868   C872    1.401   .     A
C868   C874    1.430   .     A
C869   C878    1.399   .     A
C869   C871    1.388   .     A
C870   C872    1.390   .     A
C870   C879    1.399   .     A
C870   H957    1.084   .     S
C871   H901    1.083   .     S
C872   H900    1.083   .     S
C873   C875    1.422   .     A
C873   C883    1.496   .     S
C874   C877    1.429   .     A
C874   C882    1.484   .     S
C875   C880    1.427   .     A
C875   C878    1.420   .     A
C876   C889    1.427   .     S
C876   O913    1.284   .     A
C876   O911    1.290   .     A
C877   C881    1.432   .     A
C877   C879    1.420   .     A
C878   C886    1.394   .     A
C880   C885    1.409   .     A
C880   C395    1.417   1_556 S
C881   C884    1.411   .     A
C882   H897    1.086   .     S
C882   O918    1.222   .     D
C883   O910    1.221   .     D
C883   H898    1.084   .     S
C884   H904    1.079   .     S
C885   H905    1.082   .     S
C885   C887    1.391   .     A
C886   C398    1.388   1_556 S
C886   H407    1.084   1_556 S
C887   C393    1.398   1_556 S
C887   H953    1.084   .     S
C888   C565    1.328   1_565 S
C888   H582    1.088   1_565 S
C890   O916    1.294   .     A
C890   O914    1.299   .     A
Cu891  O917    1.910   .     S
Cu891  O914    1.930   .     S
Cu891  O909    1.955   .     S
Cu891  Cu892   2.683   .     S
Cu891  N908    2.016   .     S
Cu891  O913    1.951   .     S
Cu892  N907    2.016   .     S
Cu892  O911    1.955   .     S
Cu892  O915    1.930   .     S
Cu892  O912    1.951   .     S
Cu892  O916    1.910   .     S
H894   C565    1.088   1_565 S
H896   N962    1.029   .     S
H902   C923    1.084   .     S
N907   H949    1.029   .     S
N907   N962    1.284   .     S
C919   O966    1.284   .     A
C919   O963    1.290   .     A
C919   C942    1.427   .     S
C920   C922    1.488   .     S
C920   O971    1.294   .     A
C920   O969    1.309   .     A
C921   C927    1.414   .     A
C921   C925    1.400   .     A
C921   C944    1.467   .     S
C922   C926    1.401   .     A
C922   C928    1.430   .     A
C923   C932    1.399   .     A
C923   C925    1.388   .     A
C924   C926    1.390   .     A
C924   C933    1.399   .     A
C924   H849    1.084   1_655 S
C925   H955    1.083   .     S
C926   H954    1.083   .     S
C927   C929    1.422   .     A
C927   C937    1.496   .     S
C928   C931    1.429   .     A
C928   C936    1.484   .     S
C929   C934    1.427   .     A
C929   C932    1.420   .     A
C930   C943    1.427   .     S
C930   O967    1.284   .     A
C930   O965    1.290   .     A
C931   C935    1.432   .     A
C931   C933    1.420   .     A
C932   C940    1.394   .     A
C934   C939    1.409   .     A
C934   C449    1.417   1_556 S
C935   C938    1.411   .     A
C936   H951    1.086   .     S
C936   O972    1.222   .     D
C937   O964    1.221   .     D
C937   H952    1.084   .     S
C938   H958    1.079   .     S
C939   H959    1.082   .     S
C939   C941    1.391   .     A
C940   C452    1.388   1_556 S
C940   H461    1.084   1_556 S
C941   C447    1.398   1_556 S
C941   H845    1.084   1_655 S
C942   C619    1.328   1_565 S
C942   H636    1.088   1_565 S
C944   O970    1.294   .     A
C944   O968    1.299   .     A
Cu945  O971    1.910   .     S
Cu945  O968    1.930   .     S
Cu945  O963    1.955   .     S
Cu945  Cu946   2.683   .     S
Cu945  N962    2.016   .     S
Cu945  O967    1.951   .     S
Cu946  N961    2.016   .     S
Cu946  O965    1.955   .     S
Cu946  O969    1.930   .     S
Cu946  O966    1.951   .     S
Cu946  O970    1.910   .     S
H948   C619    1.088   1_565 S
H950   N854    1.029   1_655 S
H956   C815    1.084   1_655 S
N961   H841    1.029   1_655 S
N961   N854    1.284   1_655 S
