data_str_m2_o1_o10_pcu_sym.25
_audit_creation_date              2020-01-03
_audit_creation_method            'Materials Studio'
_symmetry_space_group_name_H-M    'P1'
_symmetry_Int_Tables_number       1
_symmetry_cell_setting            triclinic
loop_
_symmetry_equiv_pos_as_xyz
  x,y,z
_cell_length_a                    26.4108
_cell_length_b                    32.3562
_cell_length_c                    28.8736
_cell_angle_alpha                 90.4546
_cell_angle_beta                  97.8345
_cell_angle_gamma                 92.2358
loop_
_atom_site_label
_atom_site_type_symbol
_atom_site_fract_x
_atom_site_fract_y
_atom_site_fract_z
_atom_site_U_iso_or_equiv
_atom_site_adp_type
_atom_site_occupancy
C1     C     0.16744   0.08756   0.16659   0.00000  Uiso   1.00
C2     C     0.13387   0.02126   0.19156   0.00000  Uiso   1.00
C3     C     0.16557   0.29042   0.16690   0.00000  Uiso   1.00
C4     C     0.16776   0.04292   0.16643   0.00000  Uiso   1.00
C5     C     0.13747   0.13781   0.02049   0.00000  Uiso   1.00
C6     C     0.19586   0.19552   0.31284   0.00000  Uiso   1.00
C7     C     0.13633   0.13898   0.30440   0.00000  Uiso   1.00
C8     C     0.19700   0.19435   0.02893   0.00000  Uiso   1.00
C9     C     0.12175   0.06344   0.03315   0.00000  Uiso   1.00
C10    C     0.21158   0.26990   0.30019   0.00000  Uiso   1.00
C11    C     0.16590   0.24577   0.16675   0.00000  Uiso   1.00
C12    C     0.06822   0.16645   0.15487   0.00000  Uiso   1.00
C13    C     0.26511   0.16689   0.17846   0.00000  Uiso   1.00
C14    C     0.01338   0.16180   0.14897   0.00000  Uiso   1.00
C15    C     0.31996   0.17153   0.18436   0.00000  Uiso   1.00
C16    C     0.20094   0.02160   0.14148   0.00000  Uiso   1.00
C17    C     0.13239   0.31174   0.19185   0.00000  Uiso   1.00
C18    C     0.19946   0.31207   0.14177   0.00000  Uiso   1.00
Cl19   Cl    0.31954   0.13775   0.09522   0.00000  Uiso   1.00
Cl20   Cl    0.01379   0.19558   0.23811   0.00000  Uiso   1.00
Cl21   Cl    0.24617   0.04718   0.11109   0.00000  Uiso   1.00
Cl22   Cl    0.08717   0.28615   0.22224   0.00000  Uiso   1.00
Cl23   Cl    0.09181   0.10605   0.26931   0.00000  Uiso   1.00
Cl24   Cl    0.24153   0.22728   0.06402   0.00000  Uiso   1.00
Cu25   Cu    0.16667   0.16667   0.21355   0.00000  Uiso   1.00
Cu26   Cu    0.16667   0.16666   0.11978   0.00000  Uiso   1.00
H27    H     0.22559   0.29568   0.12318   0.00000  Uiso   1.00
H28    H     0.17674   0.27179   0.31770   0.00000  Uiso   1.00
H29    H     0.10774   0.03766   0.21015   0.00000  Uiso   1.00
H30    H     0.09044   0.11166   0.06799   0.00000  Uiso   1.00
H31    H     0.12895   0.04827   0.06752   0.00000  Uiso   1.00
H32    H     0.15660   0.06154   0.01564   0.00000  Uiso   1.00
H33    H     0.08956   0.04604   0.01190   0.00000  Uiso   1.00
H34    H     0.24290   0.22167   0.26534   0.00000  Uiso   1.00
H35    H     0.20438   0.28507   0.26581   0.00000  Uiso   1.00
H36    H     0.24378   0.28730   0.32143   0.00000  Uiso   1.00
N37    N     0.16668   0.16668   0.28403   0.00000  Uiso   1.00
N38    N     0.16665   0.16666   0.04931   0.00000  Uiso   1.00
N39    N     0.10779   0.10589   0.03919   0.00000  Uiso   1.00
N40    N     0.22555   0.22744   0.29414   0.00000  Uiso   1.00
O41    O     0.16666   0.10655   0.20625   0.00000  Uiso   1.00
O42    O     0.16667   0.22678   0.12709   0.00000  Uiso   1.00
O43    O     0.16666   0.10654   0.12706   0.00000  Uiso   1.00
O44    O     0.16667   0.22679   0.20628   0.00000  Uiso   1.00
O45    O     0.09161   0.16667   0.19712   0.00000  Uiso   1.00
O46    O     0.24172   0.16666   0.13621   0.00000  Uiso   1.00
O47    O     0.09161   0.16666   0.11793   0.00000  Uiso   1.00
O48    O     0.24172   0.16667   0.21540   0.00000  Uiso   1.00
C49    C     0.50077   0.08756   0.16659   0.00000  Uiso   1.00
C50    C     0.46721   0.02126   0.19156   0.00000  Uiso   1.00
C51    C     0.49891   0.29042   0.16690   0.00000  Uiso   1.00
C52    C     0.50109   0.04292   0.16643   0.00000  Uiso   1.00
C53    C     0.47080   0.13781   0.02049   0.00000  Uiso   1.00
C54    C     0.52920   0.19552   0.31284   0.00000  Uiso   1.00
C55    C     0.46967   0.13898   0.30440   0.00000  Uiso   1.00
C56    C     0.53033   0.19435   0.02893   0.00000  Uiso   1.00
C57    C     0.45508   0.06344   0.03315   0.00000  Uiso   1.00
C58    C     0.54492   0.26990   0.30019   0.00000  Uiso   1.00
C59    C     0.49923   0.24577   0.16675   0.00000  Uiso   1.00
C60    C     0.40155   0.16645   0.15487   0.00000  Uiso   1.00
C61    C     0.59845   0.16689   0.17846   0.00000  Uiso   1.00
C62    C     0.34671   0.16180   0.14897   0.00000  Uiso   1.00
C63    C     0.65329   0.17153   0.18436   0.00000  Uiso   1.00
C64    C     0.53428   0.02160   0.14148   0.00000  Uiso   1.00
C65    C     0.46572   0.31174   0.19185   0.00000  Uiso   1.00
C66    C     0.53279   0.31207   0.14177   0.00000  Uiso   1.00
Cl67   Cl    0.65287   0.13775   0.09522   0.00000  Uiso   1.00
Cl68   Cl    0.34713   0.19558   0.23811   0.00000  Uiso   1.00
Cl69   Cl    0.57950   0.04718   0.11109   0.00000  Uiso   1.00
Cl70   Cl    0.42050   0.28615   0.22224   0.00000  Uiso   1.00
Cl71   Cl    0.42514   0.10605   0.26931   0.00000  Uiso   1.00
Cl72   Cl    0.57486   0.22728   0.06402   0.00000  Uiso   1.00
Cu73   Cu    0.50000   0.16667   0.21355   0.00000  Uiso   1.00
Cu74   Cu    0.50000   0.16666   0.11978   0.00000  Uiso   1.00
H75    H     0.55892   0.29568   0.12318   0.00000  Uiso   1.00
H76    H     0.51007   0.27179   0.31770   0.00000  Uiso   1.00
H77    H     0.44108   0.03766   0.21015   0.00000  Uiso   1.00
H78    H     0.42377   0.11166   0.06799   0.00000  Uiso   1.00
H79    H     0.46229   0.04827   0.06752   0.00000  Uiso   1.00
H80    H     0.48993   0.06154   0.01564   0.00000  Uiso   1.00
H81    H     0.42289   0.04604   0.01190   0.00000  Uiso   1.00
H82    H     0.57623   0.22167   0.26534   0.00000  Uiso   1.00
H83    H     0.53772   0.28507   0.26581   0.00000  Uiso   1.00
H84    H     0.57711   0.28730   0.32143   0.00000  Uiso   1.00
N85    N     0.50001   0.16668   0.28403   0.00000  Uiso   1.00
N86    N     0.49999   0.16666   0.04931   0.00000  Uiso   1.00
N87    N     0.44112   0.10589   0.03919   0.00000  Uiso   1.00
N88    N     0.55888   0.22744   0.29414   0.00000  Uiso   1.00
O89    O     0.50000   0.10655   0.20625   0.00000  Uiso   1.00
O90    O     0.50000   0.22678   0.12709   0.00000  Uiso   1.00
O91    O     0.50000   0.10654   0.12706   0.00000  Uiso   1.00
O92    O     0.50000   0.22679   0.20628   0.00000  Uiso   1.00
O93    O     0.42495   0.16667   0.19712   0.00000  Uiso   1.00
O94    O     0.57505   0.16666   0.13621   0.00000  Uiso   1.00
O95    O     0.42494   0.16666   0.11793   0.00000  Uiso   1.00
O96    O     0.57506   0.16667   0.21540   0.00000  Uiso   1.00
C97    C     0.83410   0.08756   0.16659   0.00000  Uiso   1.00
C98    C     0.80054   0.02126   0.19156   0.00000  Uiso   1.00
C99    C     0.83224   0.29042   0.16690   0.00000  Uiso   1.00
C100   C     0.83443   0.04292   0.16643   0.00000  Uiso   1.00
C101   C     0.80414   0.13781   0.02049   0.00000  Uiso   1.00
C102   C     0.86253   0.19552   0.31284   0.00000  Uiso   1.00
C103   C     0.80300   0.13898   0.30440   0.00000  Uiso   1.00
C104   C     0.86367   0.19435   0.02893   0.00000  Uiso   1.00
C105   C     0.78842   0.06344   0.03315   0.00000  Uiso   1.00
C106   C     0.87825   0.26990   0.30019   0.00000  Uiso   1.00
C107   C     0.83256   0.24577   0.16675   0.00000  Uiso   1.00
C108   C     0.73489   0.16645   0.15487   0.00000  Uiso   1.00
C109   C     0.93178   0.16689   0.17846   0.00000  Uiso   1.00
C110   C     0.68004   0.16180   0.14897   0.00000  Uiso   1.00
C111   C     0.98662   0.17153   0.18436   0.00000  Uiso   1.00
C112   C     0.86761   0.02160   0.14148   0.00000  Uiso   1.00
C113   C     0.79906   0.31174   0.19185   0.00000  Uiso   1.00
C114   C     0.86613   0.31207   0.14177   0.00000  Uiso   1.00
Cl115  Cl    0.98621   0.13775   0.09522   0.00000  Uiso   1.00
Cl116  Cl    0.68046   0.19558   0.23811   0.00000  Uiso   1.00
Cl117  Cl    0.91283   0.04718   0.11109   0.00000  Uiso   1.00
Cl118  Cl    0.75383   0.28615   0.22224   0.00000  Uiso   1.00
Cl119  Cl    0.75847   0.10605   0.26931   0.00000  Uiso   1.00
Cl120  Cl    0.90819   0.22728   0.06402   0.00000  Uiso   1.00
Cu121  Cu    0.83333   0.16667   0.21355   0.00000  Uiso   1.00
Cu122  Cu    0.83333   0.16666   0.11978   0.00000  Uiso   1.00
H123   H     0.89226   0.29568   0.12318   0.00000  Uiso   1.00
H124   H     0.84340   0.27179   0.31770   0.00000  Uiso   1.00
H125   H     0.77441   0.03766   0.21015   0.00000  Uiso   1.00
H126   H     0.75710   0.11166   0.06799   0.00000  Uiso   1.00
H127   H     0.79562   0.04827   0.06752   0.00000  Uiso   1.00
H128   H     0.82326   0.06154   0.01564   0.00000  Uiso   1.00
H129   H     0.75622   0.04604   0.01190   0.00000  Uiso   1.00
H130   H     0.90956   0.22167   0.26534   0.00000  Uiso   1.00
H131   H     0.87105   0.28507   0.26581   0.00000  Uiso   1.00
H132   H     0.91044   0.28730   0.32143   0.00000  Uiso   1.00
N133   N     0.83335   0.16668   0.28403   0.00000  Uiso   1.00
N134   N     0.83332   0.16666   0.04931   0.00000  Uiso   1.00
N135   N     0.77445   0.10589   0.03919   0.00000  Uiso   1.00
N136   N     0.89221   0.22744   0.29414   0.00000  Uiso   1.00
O137   O     0.83333   0.10655   0.20625   0.00000  Uiso   1.00
O138   O     0.83334   0.22678   0.12709   0.00000  Uiso   1.00
O139   O     0.83333   0.10654   0.12706   0.00000  Uiso   1.00
O140   O     0.83334   0.22679   0.20628   0.00000  Uiso   1.00
O141   O     0.75828   0.16667   0.19712   0.00000  Uiso   1.00
O142   O     0.90839   0.16666   0.13621   0.00000  Uiso   1.00
O143   O     0.75828   0.16666   0.11793   0.00000  Uiso   1.00
O144   O     0.90839   0.16667   0.21540   0.00000  Uiso   1.00
C145   C     0.16744   0.42089   0.16659   0.00000  Uiso   1.00
C146   C     0.13387   0.35459   0.19156   0.00000  Uiso   1.00
C147   C     0.16557   0.62375   0.16690   0.00000  Uiso   1.00
C148   C     0.16776   0.37625   0.16643   0.00000  Uiso   1.00
C149   C     0.13747   0.47114   0.02049   0.00000  Uiso   1.00
C150   C     0.19586   0.52886   0.31284   0.00000  Uiso   1.00
C151   C     0.13633   0.47232   0.30440   0.00000  Uiso   1.00
C152   C     0.19700   0.52768   0.02893   0.00000  Uiso   1.00
C153   C     0.12175   0.39677   0.03315   0.00000  Uiso   1.00
C154   C     0.21158   0.60323   0.30019   0.00000  Uiso   1.00
C155   C     0.16590   0.57911   0.16675   0.00000  Uiso   1.00
C156   C     0.06822   0.49978   0.15487   0.00000  Uiso   1.00
C157   C     0.26511   0.50022   0.17846   0.00000  Uiso   1.00
C158   C     0.01338   0.49514   0.14897   0.00000  Uiso   1.00
C159   C     0.31996   0.50486   0.18436   0.00000  Uiso   1.00
C160   C     0.20094   0.35493   0.14148   0.00000  Uiso   1.00
C161   C     0.13239   0.64507   0.19185   0.00000  Uiso   1.00
C162   C     0.19946   0.64541   0.14177   0.00000  Uiso   1.00
Cl163  Cl    0.31954   0.47108   0.09522   0.00000  Uiso   1.00
Cl164  Cl    0.01379   0.52892   0.23811   0.00000  Uiso   1.00
Cl165  Cl    0.24617   0.38051   0.11109   0.00000  Uiso   1.00
Cl166  Cl    0.08717   0.61949   0.22224   0.00000  Uiso   1.00
Cl167  Cl    0.09181   0.43939   0.26931   0.00000  Uiso   1.00
Cl168  Cl    0.24153   0.56061   0.06402   0.00000  Uiso   1.00
Cu169  Cu    0.16667   0.50001   0.21355   0.00000  Uiso   1.00
Cu170  Cu    0.16667   0.49999   0.11978   0.00000  Uiso   1.00
H171   H     0.22559   0.62901   0.12318   0.00000  Uiso   1.00
H172   H     0.17674   0.60512   0.31770   0.00000  Uiso   1.00
H173   H     0.10774   0.37099   0.21015   0.00000  Uiso   1.00
H174   H     0.09044   0.44499   0.06799   0.00000  Uiso   1.00
H175   H     0.12895   0.38160   0.06752   0.00000  Uiso   1.00
H176   H     0.15660   0.39488   0.01564   0.00000  Uiso   1.00
H177   H     0.08956   0.37937   0.01190   0.00000  Uiso   1.00
H178   H     0.24290   0.55501   0.26534   0.00000  Uiso   1.00
H179   H     0.20438   0.61840   0.26581   0.00000  Uiso   1.00
H180   H     0.24378   0.62063   0.32143   0.00000  Uiso   1.00
N181   N     0.16668   0.50001   0.28403   0.00000  Uiso   1.00
N182   N     0.16665   0.49999   0.04931   0.00000  Uiso   1.00
N183   N     0.10779   0.43922   0.03919   0.00000  Uiso   1.00
N184   N     0.22555   0.56078   0.29414   0.00000  Uiso   1.00
O185   O     0.16666   0.43989   0.20625   0.00000  Uiso   1.00
O186   O     0.16667   0.56011   0.12709   0.00000  Uiso   1.00
O187   O     0.16666   0.43988   0.12706   0.00000  Uiso   1.00
O188   O     0.16667   0.56012   0.20628   0.00000  Uiso   1.00
O189   O     0.09161   0.50000   0.19712   0.00000  Uiso   1.00
O190   O     0.24172   0.50000   0.13621   0.00000  Uiso   1.00
O191   O     0.09161   0.49999   0.11793   0.00000  Uiso   1.00
O192   O     0.24172   0.50001   0.21540   0.00000  Uiso   1.00
C193   C     0.50077   0.42089   0.16659   0.00000  Uiso   1.00
C194   C     0.46721   0.35459   0.19156   0.00000  Uiso   1.00
C195   C     0.49891   0.62375   0.16690   0.00000  Uiso   1.00
C196   C     0.50109   0.37625   0.16643   0.00000  Uiso   1.00
C197   C     0.47080   0.47114   0.02049   0.00000  Uiso   1.00
C198   C     0.52920   0.52886   0.31284   0.00000  Uiso   1.00
C199   C     0.46967   0.47232   0.30440   0.00000  Uiso   1.00
C200   C     0.53033   0.52768   0.02893   0.00000  Uiso   1.00
C201   C     0.45508   0.39677   0.03315   0.00000  Uiso   1.00
C202   C     0.54492   0.60323   0.30019   0.00000  Uiso   1.00
C203   C     0.49923   0.57911   0.16675   0.00000  Uiso   1.00
C204   C     0.40155   0.49978   0.15487   0.00000  Uiso   1.00
C205   C     0.59845   0.50022   0.17846   0.00000  Uiso   1.00
C206   C     0.34671   0.49514   0.14897   0.00000  Uiso   1.00
C207   C     0.65329   0.50486   0.18436   0.00000  Uiso   1.00
C208   C     0.53428   0.35493   0.14148   0.00000  Uiso   1.00
C209   C     0.46572   0.64507   0.19185   0.00000  Uiso   1.00
C210   C     0.53279   0.64541   0.14177   0.00000  Uiso   1.00
Cl211  Cl    0.65287   0.47108   0.09522   0.00000  Uiso   1.00
Cl212  Cl    0.34713   0.52892   0.23811   0.00000  Uiso   1.00
Cl213  Cl    0.57950   0.38051   0.11109   0.00000  Uiso   1.00
Cl214  Cl    0.42050   0.61949   0.22224   0.00000  Uiso   1.00
Cl215  Cl    0.42514   0.43939   0.26931   0.00000  Uiso   1.00
Cl216  Cl    0.57486   0.56061   0.06402   0.00000  Uiso   1.00
Cu217  Cu    0.50000   0.50001   0.21355   0.00000  Uiso   1.00
Cu218  Cu    0.50000   0.49999   0.11978   0.00000  Uiso   1.00
H219   H     0.55892   0.62901   0.12318   0.00000  Uiso   1.00
H220   H     0.51007   0.60512   0.31770   0.00000  Uiso   1.00
H221   H     0.44108   0.37099   0.21015   0.00000  Uiso   1.00
H222   H     0.42377   0.44499   0.06799   0.00000  Uiso   1.00
H223   H     0.46229   0.38160   0.06752   0.00000  Uiso   1.00
H224   H     0.48993   0.39488   0.01564   0.00000  Uiso   1.00
H225   H     0.42289   0.37937   0.01190   0.00000  Uiso   1.00
H226   H     0.57623   0.55501   0.26534   0.00000  Uiso   1.00
H227   H     0.53772   0.61840   0.26581   0.00000  Uiso   1.00
H228   H     0.57711   0.62063   0.32143   0.00000  Uiso   1.00
N229   N     0.50001   0.50001   0.28403   0.00000  Uiso   1.00
N230   N     0.49999   0.49999   0.04931   0.00000  Uiso   1.00
N231   N     0.44112   0.43922   0.03919   0.00000  Uiso   1.00
N232   N     0.55888   0.56078   0.29414   0.00000  Uiso   1.00
O233   O     0.50000   0.43989   0.20625   0.00000  Uiso   1.00
O234   O     0.50000   0.56011   0.12709   0.00000  Uiso   1.00
O235   O     0.50000   0.43988   0.12706   0.00000  Uiso   1.00
O236   O     0.50000   0.56012   0.20628   0.00000  Uiso   1.00
O237   O     0.42495   0.50000   0.19712   0.00000  Uiso   1.00
O238   O     0.57505   0.50000   0.13621   0.00000  Uiso   1.00
O239   O     0.42494   0.49999   0.11793   0.00000  Uiso   1.00
O240   O     0.57506   0.50001   0.21540   0.00000  Uiso   1.00
C241   C     0.83410   0.42089   0.16659   0.00000  Uiso   1.00
C242   C     0.80054   0.35459   0.19156   0.00000  Uiso   1.00
C243   C     0.83224   0.62375   0.16690   0.00000  Uiso   1.00
C244   C     0.83443   0.37625   0.16643   0.00000  Uiso   1.00
C245   C     0.80414   0.47114   0.02049   0.00000  Uiso   1.00
C246   C     0.86253   0.52886   0.31284   0.00000  Uiso   1.00
C247   C     0.80300   0.47232   0.30440   0.00000  Uiso   1.00
C248   C     0.86367   0.52768   0.02893   0.00000  Uiso   1.00
C249   C     0.78842   0.39677   0.03315   0.00000  Uiso   1.00
C250   C     0.87825   0.60323   0.30019   0.00000  Uiso   1.00
C251   C     0.83256   0.57911   0.16675   0.00000  Uiso   1.00
C252   C     0.73489   0.49978   0.15487   0.00000  Uiso   1.00
C253   C     0.93178   0.50022   0.17846   0.00000  Uiso   1.00
C254   C     0.68004   0.49514   0.14897   0.00000  Uiso   1.00
C255   C     0.98662   0.50486   0.18436   0.00000  Uiso   1.00
C256   C     0.86761   0.35493   0.14148   0.00000  Uiso   1.00
C257   C     0.79906   0.64507   0.19185   0.00000  Uiso   1.00
C258   C     0.86613   0.64541   0.14177   0.00000  Uiso   1.00
Cl259  Cl    0.98621   0.47108   0.09522   0.00000  Uiso   1.00
Cl260  Cl    0.68046   0.52892   0.23811   0.00000  Uiso   1.00
Cl261  Cl    0.91283   0.38051   0.11109   0.00000  Uiso   1.00
Cl262  Cl    0.75383   0.61949   0.22224   0.00000  Uiso   1.00
Cl263  Cl    0.75847   0.43939   0.26931   0.00000  Uiso   1.00
Cl264  Cl    0.90819   0.56061   0.06402   0.00000  Uiso   1.00
Cu265  Cu    0.83333   0.50001   0.21355   0.00000  Uiso   1.00
Cu266  Cu    0.83333   0.49999   0.11978   0.00000  Uiso   1.00
H267   H     0.89226   0.62901   0.12318   0.00000  Uiso   1.00
H268   H     0.84340   0.60512   0.31770   0.00000  Uiso   1.00
H269   H     0.77441   0.37099   0.21015   0.00000  Uiso   1.00
H270   H     0.75710   0.44499   0.06799   0.00000  Uiso   1.00
H271   H     0.79562   0.38160   0.06752   0.00000  Uiso   1.00
H272   H     0.82326   0.39488   0.01564   0.00000  Uiso   1.00
H273   H     0.75622   0.37937   0.01190   0.00000  Uiso   1.00
H274   H     0.90956   0.55501   0.26534   0.00000  Uiso   1.00
H275   H     0.87105   0.61840   0.26581   0.00000  Uiso   1.00
H276   H     0.91044   0.62063   0.32143   0.00000  Uiso   1.00
N277   N     0.83335   0.50001   0.28403   0.00000  Uiso   1.00
N278   N     0.83332   0.49999   0.04931   0.00000  Uiso   1.00
N279   N     0.77445   0.43922   0.03919   0.00000  Uiso   1.00
N280   N     0.89221   0.56078   0.29414   0.00000  Uiso   1.00
O281   O     0.83333   0.43989   0.20625   0.00000  Uiso   1.00
O282   O     0.83334   0.56011   0.12709   0.00000  Uiso   1.00
O283   O     0.83333   0.43988   0.12706   0.00000  Uiso   1.00
O284   O     0.83334   0.56012   0.20628   0.00000  Uiso   1.00
O285   O     0.75828   0.50000   0.19712   0.00000  Uiso   1.00
O286   O     0.90839   0.50000   0.13621   0.00000  Uiso   1.00
O287   O     0.75828   0.49999   0.11793   0.00000  Uiso   1.00
O288   O     0.90839   0.50001   0.21540   0.00000  Uiso   1.00
C289   C     0.16744   0.75423   0.16659   0.00000  Uiso   1.00
C290   C     0.13387   0.68793   0.19156   0.00000  Uiso   1.00
C291   C     0.16557   0.95708   0.16690   0.00000  Uiso   1.00
C292   C     0.16776   0.70959   0.16643   0.00000  Uiso   1.00
C293   C     0.13747   0.80448   0.02049   0.00000  Uiso   1.00
C294   C     0.19586   0.86219   0.31284   0.00000  Uiso   1.00
C295   C     0.13633   0.80565   0.30440   0.00000  Uiso   1.00
C296   C     0.19700   0.86102   0.02893   0.00000  Uiso   1.00
C297   C     0.12175   0.73010   0.03315   0.00000  Uiso   1.00
C298   C     0.21158   0.93656   0.30019   0.00000  Uiso   1.00
C299   C     0.16590   0.91244   0.16675   0.00000  Uiso   1.00
C300   C     0.06822   0.83311   0.15487   0.00000  Uiso   1.00
C301   C     0.26511   0.83355   0.17846   0.00000  Uiso   1.00
C302   C     0.01338   0.82847   0.14897   0.00000  Uiso   1.00
C303   C     0.31996   0.83820   0.18436   0.00000  Uiso   1.00
C304   C     0.20094   0.68826   0.14148   0.00000  Uiso   1.00
C305   C     0.13239   0.97840   0.19185   0.00000  Uiso   1.00
C306   C     0.19946   0.97874   0.14177   0.00000  Uiso   1.00
Cl307  Cl    0.31954   0.80442   0.09522   0.00000  Uiso   1.00
Cl308  Cl    0.01379   0.86225   0.23811   0.00000  Uiso   1.00
Cl309  Cl    0.24617   0.71385   0.11109   0.00000  Uiso   1.00
Cl310  Cl    0.08717   0.95282   0.22224   0.00000  Uiso   1.00
Cl311  Cl    0.09181   0.77272   0.26931   0.00000  Uiso   1.00
Cl312  Cl    0.24153   0.89395   0.06402   0.00000  Uiso   1.00
Cu313  Cu    0.16667   0.83334   0.21355   0.00000  Uiso   1.00
Cu314  Cu    0.16667   0.83333   0.11978   0.00000  Uiso   1.00
H315   H     0.22559   0.96234   0.12318   0.00000  Uiso   1.00
H316   H     0.17674   0.93846   0.31770   0.00000  Uiso   1.00
H317   H     0.10774   0.70432   0.21015   0.00000  Uiso   1.00
H318   H     0.09044   0.77833   0.06799   0.00000  Uiso   1.00
H319   H     0.12895   0.71493   0.06752   0.00000  Uiso   1.00
H320   H     0.15660   0.72821   0.01564   0.00000  Uiso   1.00
H321   H     0.08956   0.71270   0.01190   0.00000  Uiso   1.00
H322   H     0.24290   0.88834   0.26534   0.00000  Uiso   1.00
H323   H     0.20438   0.95173   0.26581   0.00000  Uiso   1.00
H324   H     0.24378   0.95396   0.32143   0.00000  Uiso   1.00
N325   N     0.16668   0.83334   0.28403   0.00000  Uiso   1.00
N326   N     0.16665   0.83332   0.04931   0.00000  Uiso   1.00
N327   N     0.10779   0.77256   0.03919   0.00000  Uiso   1.00
N328   N     0.22555   0.89411   0.29414   0.00000  Uiso   1.00
O329   O     0.16666   0.77322   0.20625   0.00000  Uiso   1.00
O330   O     0.16667   0.89345   0.12709   0.00000  Uiso   1.00
O331   O     0.16666   0.77321   0.12706   0.00000  Uiso   1.00
O332   O     0.16667   0.89346   0.20628   0.00000  Uiso   1.00
O333   O     0.09161   0.83334   0.19712   0.00000  Uiso   1.00
O334   O     0.24172   0.83333   0.13621   0.00000  Uiso   1.00
O335   O     0.09161   0.83333   0.11793   0.00000  Uiso   1.00
O336   O     0.24172   0.83334   0.21540   0.00000  Uiso   1.00
C337   C     0.50077   0.75423   0.16659   0.00000  Uiso   1.00
C338   C     0.46721   0.68793   0.19156   0.00000  Uiso   1.00
C339   C     0.49891   0.95708   0.16690   0.00000  Uiso   1.00
C340   C     0.50109   0.70959   0.16643   0.00000  Uiso   1.00
C341   C     0.47080   0.80448   0.02049   0.00000  Uiso   1.00
C342   C     0.52920   0.86219   0.31284   0.00000  Uiso   1.00
C343   C     0.46967   0.80565   0.30440   0.00000  Uiso   1.00
C344   C     0.53033   0.86102   0.02893   0.00000  Uiso   1.00
C345   C     0.45508   0.73010   0.03315   0.00000  Uiso   1.00
C346   C     0.54492   0.93656   0.30019   0.00000  Uiso   1.00
C347   C     0.49923   0.91244   0.16675   0.00000  Uiso   1.00
C348   C     0.40155   0.83311   0.15487   0.00000  Uiso   1.00
C349   C     0.59845   0.83355   0.17846   0.00000  Uiso   1.00
C350   C     0.34671   0.82847   0.14897   0.00000  Uiso   1.00
C351   C     0.65329   0.83820   0.18436   0.00000  Uiso   1.00
C352   C     0.53428   0.68826   0.14148   0.00000  Uiso   1.00
C353   C     0.46572   0.97840   0.19185   0.00000  Uiso   1.00
C354   C     0.53279   0.97874   0.14177   0.00000  Uiso   1.00
Cl355  Cl    0.65287   0.80442   0.09522   0.00000  Uiso   1.00
Cl356  Cl    0.34713   0.86225   0.23811   0.00000  Uiso   1.00
Cl357  Cl    0.57950   0.71385   0.11109   0.00000  Uiso   1.00
Cl358  Cl    0.42050   0.95282   0.22224   0.00000  Uiso   1.00
Cl359  Cl    0.42514   0.77272   0.26931   0.00000  Uiso   1.00
Cl360  Cl    0.57486   0.89395   0.06402   0.00000  Uiso   1.00
Cu361  Cu    0.50000   0.83334   0.21355   0.00000  Uiso   1.00
Cu362  Cu    0.50000   0.83333   0.11978   0.00000  Uiso   1.00
H363   H     0.55892   0.96234   0.12318   0.00000  Uiso   1.00
H364   H     0.51007   0.93846   0.31770   0.00000  Uiso   1.00
H365   H     0.44108   0.70432   0.21015   0.00000  Uiso   1.00
H366   H     0.42377   0.77833   0.06799   0.00000  Uiso   1.00
H367   H     0.46229   0.71493   0.06752   0.00000  Uiso   1.00
H368   H     0.48993   0.72821   0.01564   0.00000  Uiso   1.00
H369   H     0.42289   0.71270   0.01190   0.00000  Uiso   1.00
H370   H     0.57623   0.88834   0.26534   0.00000  Uiso   1.00
H371   H     0.53772   0.95173   0.26581   0.00000  Uiso   1.00
H372   H     0.57711   0.95396   0.32143   0.00000  Uiso   1.00
N373   N     0.50001   0.83334   0.28403   0.00000  Uiso   1.00
N374   N     0.49999   0.83332   0.04931   0.00000  Uiso   1.00
N375   N     0.44112   0.77256   0.03919   0.00000  Uiso   1.00
N376   N     0.55888   0.89411   0.29414   0.00000  Uiso   1.00
O377   O     0.50000   0.77322   0.20625   0.00000  Uiso   1.00
O378   O     0.50000   0.89345   0.12709   0.00000  Uiso   1.00
O379   O     0.50000   0.77321   0.12706   0.00000  Uiso   1.00
O380   O     0.50000   0.89346   0.20628   0.00000  Uiso   1.00
O381   O     0.42495   0.83334   0.19712   0.00000  Uiso   1.00
O382   O     0.57505   0.83333   0.13621   0.00000  Uiso   1.00
O383   O     0.42494   0.83333   0.11793   0.00000  Uiso   1.00
O384   O     0.57506   0.83334   0.21540   0.00000  Uiso   1.00
C385   C     0.83410   0.75423   0.16659   0.00000  Uiso   1.00
C386   C     0.80054   0.68793   0.19156   0.00000  Uiso   1.00
C387   C     0.83224   0.95708   0.16690   0.00000  Uiso   1.00
C388   C     0.83443   0.70959   0.16643   0.00000  Uiso   1.00
C389   C     0.80414   0.80448   0.02049   0.00000  Uiso   1.00
C390   C     0.86253   0.86219   0.31284   0.00000  Uiso   1.00
C391   C     0.80300   0.80565   0.30440   0.00000  Uiso   1.00
C392   C     0.86367   0.86102   0.02893   0.00000  Uiso   1.00
C393   C     0.78842   0.73010   0.03315   0.00000  Uiso   1.00
C394   C     0.87825   0.93656   0.30019   0.00000  Uiso   1.00
C395   C     0.83256   0.91244   0.16675   0.00000  Uiso   1.00
C396   C     0.73489   0.83311   0.15487   0.00000  Uiso   1.00
C397   C     0.93178   0.83355   0.17846   0.00000  Uiso   1.00
C398   C     0.68004   0.82847   0.14897   0.00000  Uiso   1.00
C399   C     0.98662   0.83820   0.18436   0.00000  Uiso   1.00
C400   C     0.86761   0.68826   0.14148   0.00000  Uiso   1.00
C401   C     0.79906   0.97840   0.19185   0.00000  Uiso   1.00
C402   C     0.86613   0.97874   0.14177   0.00000  Uiso   1.00
Cl403  Cl    0.98621   0.80442   0.09522   0.00000  Uiso   1.00
Cl404  Cl    0.68046   0.86225   0.23811   0.00000  Uiso   1.00
Cl405  Cl    0.91283   0.71385   0.11109   0.00000  Uiso   1.00
Cl406  Cl    0.75383   0.95282   0.22224   0.00000  Uiso   1.00
Cl407  Cl    0.75847   0.77272   0.26931   0.00000  Uiso   1.00
Cl408  Cl    0.90819   0.89395   0.06402   0.00000  Uiso   1.00
Cu409  Cu    0.83333   0.83334   0.21355   0.00000  Uiso   1.00
Cu410  Cu    0.83333   0.83333   0.11978   0.00000  Uiso   1.00
H411   H     0.89226   0.96234   0.12318   0.00000  Uiso   1.00
H412   H     0.84340   0.93846   0.31770   0.00000  Uiso   1.00
H413   H     0.77441   0.70432   0.21015   0.00000  Uiso   1.00
H414   H     0.75710   0.77833   0.06799   0.00000  Uiso   1.00
H415   H     0.79562   0.71493   0.06752   0.00000  Uiso   1.00
H416   H     0.82326   0.72821   0.01564   0.00000  Uiso   1.00
H417   H     0.75622   0.71270   0.01190   0.00000  Uiso   1.00
H418   H     0.90956   0.88834   0.26534   0.00000  Uiso   1.00
H419   H     0.87105   0.95173   0.26581   0.00000  Uiso   1.00
H420   H     0.91044   0.95396   0.32143   0.00000  Uiso   1.00
N421   N     0.83335   0.83334   0.28403   0.00000  Uiso   1.00
N422   N     0.83332   0.83332   0.04931   0.00000  Uiso   1.00
N423   N     0.77445   0.77256   0.03919   0.00000  Uiso   1.00
N424   N     0.89221   0.89411   0.29414   0.00000  Uiso   1.00
O425   O     0.83333   0.77322   0.20625   0.00000  Uiso   1.00
O426   O     0.83334   0.89345   0.12709   0.00000  Uiso   1.00
O427   O     0.83333   0.77321   0.12706   0.00000  Uiso   1.00
O428   O     0.83334   0.89346   0.20628   0.00000  Uiso   1.00
O429   O     0.75828   0.83334   0.19712   0.00000  Uiso   1.00
O430   O     0.90839   0.83333   0.13621   0.00000  Uiso   1.00
O431   O     0.75828   0.83333   0.11793   0.00000  Uiso   1.00
O432   O     0.90839   0.83334   0.21540   0.00000  Uiso   1.00
C433   C     0.16744   0.08756   0.49992   0.00000  Uiso   1.00
C434   C     0.13387   0.02126   0.52489   0.00000  Uiso   1.00
C435   C     0.16557   0.29042   0.50024   0.00000  Uiso   1.00
C436   C     0.16776   0.04292   0.49976   0.00000  Uiso   1.00
C437   C     0.13747   0.13781   0.35383   0.00000  Uiso   1.00
C438   C     0.19586   0.19552   0.64617   0.00000  Uiso   1.00
C439   C     0.13633   0.13898   0.63773   0.00000  Uiso   1.00
C440   C     0.19700   0.19435   0.36227   0.00000  Uiso   1.00
C441   C     0.12175   0.06344   0.36648   0.00000  Uiso   1.00
C442   C     0.21158   0.26990   0.63352   0.00000  Uiso   1.00
C443   C     0.16590   0.24577   0.50008   0.00000  Uiso   1.00
C444   C     0.06822   0.16645   0.48821   0.00000  Uiso   1.00
C445   C     0.26511   0.16689   0.51179   0.00000  Uiso   1.00
C446   C     0.01338   0.16180   0.48230   0.00000  Uiso   1.00
C447   C     0.31996   0.17153   0.51770   0.00000  Uiso   1.00
C448   C     0.20094   0.02160   0.47482   0.00000  Uiso   1.00
C449   C     0.13239   0.31174   0.52518   0.00000  Uiso   1.00
C450   C     0.19946   0.31207   0.47511   0.00000  Uiso   1.00
Cl451  Cl    0.31954   0.13775   0.42855   0.00000  Uiso   1.00
Cl452  Cl    0.01379   0.19558   0.57145   0.00000  Uiso   1.00
Cl453  Cl    0.24617   0.04718   0.44442   0.00000  Uiso   1.00
Cl454  Cl    0.08717   0.28615   0.55558   0.00000  Uiso   1.00
Cl455  Cl    0.09181   0.10605   0.60265   0.00000  Uiso   1.00
Cl456  Cl    0.24153   0.22728   0.39735   0.00000  Uiso   1.00
Cu457  Cu    0.16667   0.16667   0.54689   0.00000  Uiso   1.00
Cu458  Cu    0.16667   0.16666   0.45311   0.00000  Uiso   1.00
H459   H     0.22559   0.29568   0.45652   0.00000  Uiso   1.00
H460   H     0.17674   0.27179   0.65103   0.00000  Uiso   1.00
H461   H     0.10774   0.03766   0.54348   0.00000  Uiso   1.00
H462   H     0.09044   0.11166   0.40133   0.00000  Uiso   1.00
H463   H     0.12895   0.04827   0.40085   0.00000  Uiso   1.00
H464   H     0.15660   0.06154   0.34897   0.00000  Uiso   1.00
H465   H     0.08956   0.04604   0.34524   0.00000  Uiso   1.00
H466   H     0.24290   0.22167   0.59867   0.00000  Uiso   1.00
H467   H     0.20438   0.28507   0.59915   0.00000  Uiso   1.00
H468   H     0.24378   0.28730   0.65476   0.00000  Uiso   1.00
N469   N     0.16668   0.16668   0.61736   0.00000  Uiso   1.00
N470   N     0.16665   0.16666   0.38264   0.00000  Uiso   1.00
N471   N     0.10779   0.10589   0.37252   0.00000  Uiso   1.00
N472   N     0.22555   0.22744   0.62748   0.00000  Uiso   1.00
O473   O     0.16666   0.10655   0.53958   0.00000  Uiso   1.00
O474   O     0.16667   0.22678   0.46042   0.00000  Uiso   1.00
O475   O     0.16666   0.10654   0.46039   0.00000  Uiso   1.00
O476   O     0.16667   0.22679   0.53961   0.00000  Uiso   1.00
O477   O     0.09161   0.16667   0.53046   0.00000  Uiso   1.00
O478   O     0.24172   0.16666   0.46954   0.00000  Uiso   1.00
O479   O     0.09161   0.16666   0.45127   0.00000  Uiso   1.00
O480   O     0.24172   0.16667   0.54873   0.00000  Uiso   1.00
C481   C     0.50077   0.08756   0.49992   0.00000  Uiso   1.00
C482   C     0.46721   0.02126   0.52489   0.00000  Uiso   1.00
C483   C     0.49891   0.29042   0.50024   0.00000  Uiso   1.00
C484   C     0.50109   0.04292   0.49976   0.00000  Uiso   1.00
C485   C     0.47080   0.13781   0.35383   0.00000  Uiso   1.00
C486   C     0.52920   0.19552   0.64617   0.00000  Uiso   1.00
C487   C     0.46967   0.13898   0.63773   0.00000  Uiso   1.00
C488   C     0.53033   0.19435   0.36227   0.00000  Uiso   1.00
C489   C     0.45508   0.06344   0.36648   0.00000  Uiso   1.00
C490   C     0.54492   0.26990   0.63352   0.00000  Uiso   1.00
C491   C     0.49923   0.24577   0.50008   0.00000  Uiso   1.00
C492   C     0.40155   0.16645   0.48821   0.00000  Uiso   1.00
C493   C     0.59845   0.16689   0.51179   0.00000  Uiso   1.00
C494   C     0.34671   0.16180   0.48230   0.00000  Uiso   1.00
C495   C     0.65329   0.17153   0.51770   0.00000  Uiso   1.00
C496   C     0.53428   0.02160   0.47482   0.00000  Uiso   1.00
C497   C     0.46572   0.31174   0.52518   0.00000  Uiso   1.00
C498   C     0.53279   0.31207   0.47511   0.00000  Uiso   1.00
Cl499  Cl    0.65287   0.13775   0.42855   0.00000  Uiso   1.00
Cl500  Cl    0.34713   0.19558   0.57145   0.00000  Uiso   1.00
Cl501  Cl    0.57950   0.04718   0.44442   0.00000  Uiso   1.00
Cl502  Cl    0.42050   0.28615   0.55558   0.00000  Uiso   1.00
Cl503  Cl    0.42514   0.10605   0.60265   0.00000  Uiso   1.00
Cl504  Cl    0.57486   0.22728   0.39735   0.00000  Uiso   1.00
Cu505  Cu    0.50000   0.16667   0.54689   0.00000  Uiso   1.00
Cu506  Cu    0.50000   0.16666   0.45311   0.00000  Uiso   1.00
H507   H     0.55892   0.29568   0.45652   0.00000  Uiso   1.00
H508   H     0.51007   0.27179   0.65103   0.00000  Uiso   1.00
H509   H     0.44108   0.03766   0.54348   0.00000  Uiso   1.00
H510   H     0.42377   0.11166   0.40133   0.00000  Uiso   1.00
H511   H     0.46229   0.04827   0.40085   0.00000  Uiso   1.00
H512   H     0.48993   0.06154   0.34897   0.00000  Uiso   1.00
H513   H     0.42289   0.04604   0.34524   0.00000  Uiso   1.00
H514   H     0.57623   0.22167   0.59867   0.00000  Uiso   1.00
H515   H     0.53772   0.28507   0.59915   0.00000  Uiso   1.00
H516   H     0.57711   0.28730   0.65476   0.00000  Uiso   1.00
N517   N     0.50001   0.16668   0.61736   0.00000  Uiso   1.00
N518   N     0.49999   0.16666   0.38264   0.00000  Uiso   1.00
N519   N     0.44112   0.10589   0.37252   0.00000  Uiso   1.00
N520   N     0.55888   0.22744   0.62748   0.00000  Uiso   1.00
O521   O     0.50000   0.10655   0.53958   0.00000  Uiso   1.00
O522   O     0.50000   0.22678   0.46042   0.00000  Uiso   1.00
O523   O     0.50000   0.10654   0.46039   0.00000  Uiso   1.00
O524   O     0.50000   0.22679   0.53961   0.00000  Uiso   1.00
O525   O     0.42495   0.16667   0.53046   0.00000  Uiso   1.00
O526   O     0.57505   0.16666   0.46954   0.00000  Uiso   1.00
O527   O     0.42494   0.16666   0.45127   0.00000  Uiso   1.00
O528   O     0.57506   0.16667   0.54873   0.00000  Uiso   1.00
C529   C     0.83410   0.08756   0.49992   0.00000  Uiso   1.00
C530   C     0.80054   0.02126   0.52489   0.00000  Uiso   1.00
C531   C     0.83224   0.29042   0.50024   0.00000  Uiso   1.00
C532   C     0.83443   0.04292   0.49976   0.00000  Uiso   1.00
C533   C     0.80414   0.13781   0.35383   0.00000  Uiso   1.00
C534   C     0.86253   0.19552   0.64617   0.00000  Uiso   1.00
C535   C     0.80300   0.13898   0.63773   0.00000  Uiso   1.00
C536   C     0.86367   0.19435   0.36227   0.00000  Uiso   1.00
C537   C     0.78842   0.06344   0.36648   0.00000  Uiso   1.00
C538   C     0.87825   0.26990   0.63352   0.00000  Uiso   1.00
C539   C     0.83256   0.24577   0.50008   0.00000  Uiso   1.00
C540   C     0.73489   0.16645   0.48821   0.00000  Uiso   1.00
C541   C     0.93178   0.16689   0.51179   0.00000  Uiso   1.00
C542   C     0.68004   0.16180   0.48230   0.00000  Uiso   1.00
C543   C     0.98662   0.17153   0.51770   0.00000  Uiso   1.00
C544   C     0.86761   0.02160   0.47482   0.00000  Uiso   1.00
C545   C     0.79906   0.31174   0.52518   0.00000  Uiso   1.00
C546   C     0.86613   0.31207   0.47511   0.00000  Uiso   1.00
Cl547  Cl    0.98621   0.13775   0.42855   0.00000  Uiso   1.00
Cl548  Cl    0.68046   0.19558   0.57145   0.00000  Uiso   1.00
Cl549  Cl    0.91283   0.04718   0.44442   0.00000  Uiso   1.00
Cl550  Cl    0.75383   0.28615   0.55558   0.00000  Uiso   1.00
Cl551  Cl    0.75847   0.10605   0.60265   0.00000  Uiso   1.00
Cl552  Cl    0.90819   0.22728   0.39735   0.00000  Uiso   1.00
Cu553  Cu    0.83333   0.16667   0.54689   0.00000  Uiso   1.00
Cu554  Cu    0.83333   0.16666   0.45311   0.00000  Uiso   1.00
H555   H     0.89226   0.29568   0.45652   0.00000  Uiso   1.00
H556   H     0.84340   0.27179   0.65103   0.00000  Uiso   1.00
H557   H     0.77441   0.03766   0.54348   0.00000  Uiso   1.00
H558   H     0.75710   0.11166   0.40133   0.00000  Uiso   1.00
H559   H     0.79562   0.04827   0.40085   0.00000  Uiso   1.00
H560   H     0.82326   0.06154   0.34897   0.00000  Uiso   1.00
H561   H     0.75622   0.04604   0.34524   0.00000  Uiso   1.00
H562   H     0.90956   0.22167   0.59867   0.00000  Uiso   1.00
H563   H     0.87105   0.28507   0.59915   0.00000  Uiso   1.00
H564   H     0.91044   0.28730   0.65476   0.00000  Uiso   1.00
N565   N     0.83335   0.16668   0.61736   0.00000  Uiso   1.00
N566   N     0.83332   0.16666   0.38264   0.00000  Uiso   1.00
N567   N     0.77445   0.10589   0.37252   0.00000  Uiso   1.00
N568   N     0.89221   0.22744   0.62748   0.00000  Uiso   1.00
O569   O     0.83333   0.10655   0.53958   0.00000  Uiso   1.00
O570   O     0.83334   0.22678   0.46042   0.00000  Uiso   1.00
O571   O     0.83333   0.10654   0.46039   0.00000  Uiso   1.00
O572   O     0.83334   0.22679   0.53961   0.00000  Uiso   1.00
O573   O     0.75828   0.16667   0.53046   0.00000  Uiso   1.00
O574   O     0.90839   0.16666   0.46954   0.00000  Uiso   1.00
O575   O     0.75828   0.16666   0.45127   0.00000  Uiso   1.00
O576   O     0.90839   0.16667   0.54873   0.00000  Uiso   1.00
C577   C     0.16744   0.42089   0.49992   0.00000  Uiso   1.00
C578   C     0.13387   0.35459   0.52489   0.00000  Uiso   1.00
C579   C     0.16557   0.62375   0.50024   0.00000  Uiso   1.00
C580   C     0.16776   0.37625   0.49976   0.00000  Uiso   1.00
C581   C     0.13747   0.47114   0.35383   0.00000  Uiso   1.00
C582   C     0.19586   0.52886   0.64617   0.00000  Uiso   1.00
C583   C     0.13633   0.47232   0.63773   0.00000  Uiso   1.00
C584   C     0.19700   0.52768   0.36227   0.00000  Uiso   1.00
C585   C     0.12175   0.39677   0.36648   0.00000  Uiso   1.00
C586   C     0.21158   0.60323   0.63352   0.00000  Uiso   1.00
C587   C     0.16590   0.57911   0.50008   0.00000  Uiso   1.00
C588   C     0.06822   0.49978   0.48821   0.00000  Uiso   1.00
C589   C     0.26511   0.50022   0.51179   0.00000  Uiso   1.00
C590   C     0.01338   0.49514   0.48230   0.00000  Uiso   1.00
C591   C     0.31996   0.50486   0.51770   0.00000  Uiso   1.00
C592   C     0.20094   0.35493   0.47482   0.00000  Uiso   1.00
C593   C     0.13239   0.64507   0.52518   0.00000  Uiso   1.00
C594   C     0.19946   0.64541   0.47511   0.00000  Uiso   1.00
Cl595  Cl    0.31954   0.47108   0.42855   0.00000  Uiso   1.00
Cl596  Cl    0.01379   0.52892   0.57145   0.00000  Uiso   1.00
Cl597  Cl    0.24617   0.38051   0.44442   0.00000  Uiso   1.00
Cl598  Cl    0.08717   0.61949   0.55558   0.00000  Uiso   1.00
Cl599  Cl    0.09181   0.43939   0.60265   0.00000  Uiso   1.00
Cl600  Cl    0.24153   0.56061   0.39735   0.00000  Uiso   1.00
Cu601  Cu    0.16667   0.50001   0.54689   0.00000  Uiso   1.00
Cu602  Cu    0.16667   0.49999   0.45311   0.00000  Uiso   1.00
H603   H     0.22559   0.62901   0.45652   0.00000  Uiso   1.00
H604   H     0.17674   0.60512   0.65103   0.00000  Uiso   1.00
H605   H     0.10774   0.37099   0.54348   0.00000  Uiso   1.00
H606   H     0.09044   0.44499   0.40133   0.00000  Uiso   1.00
H607   H     0.12895   0.38160   0.40085   0.00000  Uiso   1.00
H608   H     0.15660   0.39488   0.34897   0.00000  Uiso   1.00
H609   H     0.08956   0.37937   0.34524   0.00000  Uiso   1.00
H610   H     0.24290   0.55501   0.59867   0.00000  Uiso   1.00
H611   H     0.20438   0.61840   0.59915   0.00000  Uiso   1.00
H612   H     0.24378   0.62063   0.65476   0.00000  Uiso   1.00
N613   N     0.16668   0.50001   0.61736   0.00000  Uiso   1.00
N614   N     0.16665   0.49999   0.38264   0.00000  Uiso   1.00
N615   N     0.10779   0.43922   0.37252   0.00000  Uiso   1.00
N616   N     0.22555   0.56078   0.62748   0.00000  Uiso   1.00
O617   O     0.16666   0.43989   0.53958   0.00000  Uiso   1.00
O618   O     0.16667   0.56011   0.46042   0.00000  Uiso   1.00
O619   O     0.16666   0.43988   0.46039   0.00000  Uiso   1.00
O620   O     0.16667   0.56012   0.53961   0.00000  Uiso   1.00
O621   O     0.09161   0.50000   0.53046   0.00000  Uiso   1.00
O622   O     0.24172   0.50000   0.46954   0.00000  Uiso   1.00
O623   O     0.09161   0.49999   0.45127   0.00000  Uiso   1.00
O624   O     0.24172   0.50001   0.54873   0.00000  Uiso   1.00
C625   C     0.50077   0.42089   0.49992   0.00000  Uiso   1.00
C626   C     0.46721   0.35459   0.52489   0.00000  Uiso   1.00
C627   C     0.49891   0.62375   0.50024   0.00000  Uiso   1.00
C628   C     0.50109   0.37625   0.49976   0.00000  Uiso   1.00
C629   C     0.47080   0.47114   0.35383   0.00000  Uiso   1.00
C630   C     0.52920   0.52886   0.64617   0.00000  Uiso   1.00
C631   C     0.46967   0.47232   0.63773   0.00000  Uiso   1.00
C632   C     0.53033   0.52768   0.36227   0.00000  Uiso   1.00
C633   C     0.45508   0.39677   0.36648   0.00000  Uiso   1.00
C634   C     0.54492   0.60323   0.63352   0.00000  Uiso   1.00
C635   C     0.49923   0.57911   0.50008   0.00000  Uiso   1.00
C636   C     0.40155   0.49978   0.48821   0.00000  Uiso   1.00
C637   C     0.59845   0.50022   0.51179   0.00000  Uiso   1.00
C638   C     0.34671   0.49514   0.48230   0.00000  Uiso   1.00
C639   C     0.65329   0.50486   0.51770   0.00000  Uiso   1.00
C640   C     0.53428   0.35493   0.47482   0.00000  Uiso   1.00
C641   C     0.46572   0.64507   0.52518   0.00000  Uiso   1.00
C642   C     0.53279   0.64541   0.47511   0.00000  Uiso   1.00
Cl643  Cl    0.65287   0.47108   0.42855   0.00000  Uiso   1.00
Cl644  Cl    0.34713   0.52892   0.57145   0.00000  Uiso   1.00
Cl645  Cl    0.57950   0.38051   0.44442   0.00000  Uiso   1.00
Cl646  Cl    0.42050   0.61949   0.55558   0.00000  Uiso   1.00
Cl647  Cl    0.42514   0.43939   0.60265   0.00000  Uiso   1.00
Cl648  Cl    0.57486   0.56061   0.39735   0.00000  Uiso   1.00
Cu649  Cu    0.50000   0.50001   0.54689   0.00000  Uiso   1.00
Cu650  Cu    0.50000   0.49999   0.45311   0.00000  Uiso   1.00
H651   H     0.55892   0.62901   0.45652   0.00000  Uiso   1.00
H652   H     0.51007   0.60512   0.65103   0.00000  Uiso   1.00
H653   H     0.44108   0.37099   0.54348   0.00000  Uiso   1.00
H654   H     0.42377   0.44499   0.40133   0.00000  Uiso   1.00
H655   H     0.46229   0.38160   0.40085   0.00000  Uiso   1.00
H656   H     0.48993   0.39488   0.34897   0.00000  Uiso   1.00
H657   H     0.42289   0.37937   0.34524   0.00000  Uiso   1.00
H658   H     0.57623   0.55501   0.59867   0.00000  Uiso   1.00
H659   H     0.53772   0.61840   0.59915   0.00000  Uiso   1.00
H660   H     0.57711   0.62063   0.65476   0.00000  Uiso   1.00
N661   N     0.50001   0.50001   0.61736   0.00000  Uiso   1.00
N662   N     0.49999   0.49999   0.38264   0.00000  Uiso   1.00
N663   N     0.44112   0.43922   0.37252   0.00000  Uiso   1.00
N664   N     0.55888   0.56078   0.62748   0.00000  Uiso   1.00
O665   O     0.50000   0.43989   0.53958   0.00000  Uiso   1.00
O666   O     0.50000   0.56011   0.46042   0.00000  Uiso   1.00
O667   O     0.50000   0.43988   0.46039   0.00000  Uiso   1.00
O668   O     0.50000   0.56012   0.53961   0.00000  Uiso   1.00
O669   O     0.42495   0.50000   0.53046   0.00000  Uiso   1.00
O670   O     0.57505   0.50000   0.46954   0.00000  Uiso   1.00
O671   O     0.42494   0.49999   0.45127   0.00000  Uiso   1.00
O672   O     0.57506   0.50001   0.54873   0.00000  Uiso   1.00
C673   C     0.83410   0.42089   0.49992   0.00000  Uiso   1.00
C674   C     0.80054   0.35459   0.52489   0.00000  Uiso   1.00
C675   C     0.83224   0.62375   0.50024   0.00000  Uiso   1.00
C676   C     0.83443   0.37625   0.49976   0.00000  Uiso   1.00
C677   C     0.80414   0.47114   0.35383   0.00000  Uiso   1.00
C678   C     0.86253   0.52886   0.64617   0.00000  Uiso   1.00
C679   C     0.80300   0.47232   0.63773   0.00000  Uiso   1.00
C680   C     0.86367   0.52768   0.36227   0.00000  Uiso   1.00
C681   C     0.78842   0.39677   0.36648   0.00000  Uiso   1.00
C682   C     0.87825   0.60323   0.63352   0.00000  Uiso   1.00
C683   C     0.83256   0.57911   0.50008   0.00000  Uiso   1.00
C684   C     0.73489   0.49978   0.48821   0.00000  Uiso   1.00
C685   C     0.93178   0.50022   0.51179   0.00000  Uiso   1.00
C686   C     0.68004   0.49514   0.48230   0.00000  Uiso   1.00
C687   C     0.98662   0.50486   0.51770   0.00000  Uiso   1.00
C688   C     0.86761   0.35493   0.47482   0.00000  Uiso   1.00
C689   C     0.79906   0.64507   0.52518   0.00000  Uiso   1.00
C690   C     0.86613   0.64541   0.47511   0.00000  Uiso   1.00
Cl691  Cl    0.98621   0.47108   0.42855   0.00000  Uiso   1.00
Cl692  Cl    0.68046   0.52892   0.57145   0.00000  Uiso   1.00
Cl693  Cl    0.91283   0.38051   0.44442   0.00000  Uiso   1.00
Cl694  Cl    0.75383   0.61949   0.55558   0.00000  Uiso   1.00
Cl695  Cl    0.75847   0.43939   0.60265   0.00000  Uiso   1.00
Cl696  Cl    0.90819   0.56061   0.39735   0.00000  Uiso   1.00
Cu697  Cu    0.83333   0.50001   0.54689   0.00000  Uiso   1.00
Cu698  Cu    0.83333   0.49999   0.45311   0.00000  Uiso   1.00
H699   H     0.89226   0.62901   0.45652   0.00000  Uiso   1.00
H700   H     0.84340   0.60512   0.65103   0.00000  Uiso   1.00
H701   H     0.77441   0.37099   0.54348   0.00000  Uiso   1.00
H702   H     0.75710   0.44499   0.40133   0.00000  Uiso   1.00
H703   H     0.79562   0.38160   0.40085   0.00000  Uiso   1.00
H704   H     0.82326   0.39488   0.34897   0.00000  Uiso   1.00
H705   H     0.75622   0.37937   0.34524   0.00000  Uiso   1.00
H706   H     0.90956   0.55501   0.59867   0.00000  Uiso   1.00
H707   H     0.87105   0.61840   0.59915   0.00000  Uiso   1.00
H708   H     0.91044   0.62063   0.65476   0.00000  Uiso   1.00
N709   N     0.83335   0.50001   0.61736   0.00000  Uiso   1.00
N710   N     0.83332   0.49999   0.38264   0.00000  Uiso   1.00
N711   N     0.77445   0.43922   0.37252   0.00000  Uiso   1.00
N712   N     0.89221   0.56078   0.62748   0.00000  Uiso   1.00
O713   O     0.83333   0.43989   0.53958   0.00000  Uiso   1.00
O714   O     0.83334   0.56011   0.46042   0.00000  Uiso   1.00
O715   O     0.83333   0.43988   0.46039   0.00000  Uiso   1.00
O716   O     0.83334   0.56012   0.53961   0.00000  Uiso   1.00
O717   O     0.75828   0.50000   0.53046   0.00000  Uiso   1.00
O718   O     0.90839   0.50000   0.46954   0.00000  Uiso   1.00
O719   O     0.75828   0.49999   0.45127   0.00000  Uiso   1.00
O720   O     0.90839   0.50001   0.54873   0.00000  Uiso   1.00
C721   C     0.16744   0.75423   0.49992   0.00000  Uiso   1.00
C722   C     0.13387   0.68793   0.52489   0.00000  Uiso   1.00
C723   C     0.16557   0.95708   0.50024   0.00000  Uiso   1.00
C724   C     0.16776   0.70959   0.49976   0.00000  Uiso   1.00
C725   C     0.13747   0.80448   0.35383   0.00000  Uiso   1.00
C726   C     0.19586   0.86219   0.64617   0.00000  Uiso   1.00
C727   C     0.13633   0.80565   0.63773   0.00000  Uiso   1.00
C728   C     0.19700   0.86102   0.36227   0.00000  Uiso   1.00
C729   C     0.12175   0.73010   0.36648   0.00000  Uiso   1.00
C730   C     0.21158   0.93656   0.63352   0.00000  Uiso   1.00
C731   C     0.16590   0.91244   0.50008   0.00000  Uiso   1.00
C732   C     0.06822   0.83311   0.48821   0.00000  Uiso   1.00
C733   C     0.26511   0.83355   0.51179   0.00000  Uiso   1.00
C734   C     0.01338   0.82847   0.48230   0.00000  Uiso   1.00
C735   C     0.31996   0.83820   0.51770   0.00000  Uiso   1.00
C736   C     0.20094   0.68826   0.47482   0.00000  Uiso   1.00
C737   C     0.13239   0.97840   0.52518   0.00000  Uiso   1.00
C738   C     0.19946   0.97874   0.47511   0.00000  Uiso   1.00
Cl739  Cl    0.31954   0.80442   0.42855   0.00000  Uiso   1.00
Cl740  Cl    0.01379   0.86225   0.57145   0.00000  Uiso   1.00
Cl741  Cl    0.24617   0.71385   0.44442   0.00000  Uiso   1.00
Cl742  Cl    0.08717   0.95282   0.55558   0.00000  Uiso   1.00
Cl743  Cl    0.09181   0.77272   0.60265   0.00000  Uiso   1.00
Cl744  Cl    0.24153   0.89395   0.39735   0.00000  Uiso   1.00
Cu745  Cu    0.16667   0.83334   0.54689   0.00000  Uiso   1.00
Cu746  Cu    0.16667   0.83333   0.45311   0.00000  Uiso   1.00
H747   H     0.22559   0.96234   0.45652   0.00000  Uiso   1.00
H748   H     0.17674   0.93846   0.65103   0.00000  Uiso   1.00
H749   H     0.10774   0.70432   0.54348   0.00000  Uiso   1.00
H750   H     0.09044   0.77833   0.40133   0.00000  Uiso   1.00
H751   H     0.12895   0.71493   0.40085   0.00000  Uiso   1.00
H752   H     0.15660   0.72821   0.34897   0.00000  Uiso   1.00
H753   H     0.08956   0.71270   0.34524   0.00000  Uiso   1.00
H754   H     0.24290   0.88834   0.59867   0.00000  Uiso   1.00
H755   H     0.20438   0.95173   0.59915   0.00000  Uiso   1.00
H756   H     0.24378   0.95396   0.65476   0.00000  Uiso   1.00
N757   N     0.16668   0.83334   0.61736   0.00000  Uiso   1.00
N758   N     0.16665   0.83332   0.38264   0.00000  Uiso   1.00
N759   N     0.10779   0.77256   0.37252   0.00000  Uiso   1.00
N760   N     0.22555   0.89411   0.62748   0.00000  Uiso   1.00
O761   O     0.16666   0.77322   0.53958   0.00000  Uiso   1.00
O762   O     0.16667   0.89345   0.46042   0.00000  Uiso   1.00
O763   O     0.16666   0.77321   0.46039   0.00000  Uiso   1.00
O764   O     0.16667   0.89346   0.53961   0.00000  Uiso   1.00
O765   O     0.09161   0.83334   0.53046   0.00000  Uiso   1.00
O766   O     0.24172   0.83333   0.46954   0.00000  Uiso   1.00
O767   O     0.09161   0.83333   0.45127   0.00000  Uiso   1.00
O768   O     0.24172   0.83334   0.54873   0.00000  Uiso   1.00
C769   C     0.50077   0.75423   0.49992   0.00000  Uiso   1.00
C770   C     0.46721   0.68793   0.52489   0.00000  Uiso   1.00
C771   C     0.49891   0.95708   0.50024   0.00000  Uiso   1.00
C772   C     0.50109   0.70959   0.49976   0.00000  Uiso   1.00
C773   C     0.47080   0.80448   0.35383   0.00000  Uiso   1.00
C774   C     0.52920   0.86219   0.64617   0.00000  Uiso   1.00
C775   C     0.46967   0.80565   0.63773   0.00000  Uiso   1.00
C776   C     0.53033   0.86102   0.36227   0.00000  Uiso   1.00
C777   C     0.45508   0.73010   0.36648   0.00000  Uiso   1.00
C778   C     0.54492   0.93656   0.63352   0.00000  Uiso   1.00
C779   C     0.49923   0.91244   0.50008   0.00000  Uiso   1.00
C780   C     0.40155   0.83311   0.48821   0.00000  Uiso   1.00
C781   C     0.59845   0.83355   0.51179   0.00000  Uiso   1.00
C782   C     0.34671   0.82847   0.48230   0.00000  Uiso   1.00
C783   C     0.65329   0.83820   0.51770   0.00000  Uiso   1.00
C784   C     0.53428   0.68826   0.47482   0.00000  Uiso   1.00
C785   C     0.46572   0.97840   0.52518   0.00000  Uiso   1.00
C786   C     0.53279   0.97874   0.47511   0.00000  Uiso   1.00
Cl787  Cl    0.65287   0.80442   0.42855   0.00000  Uiso   1.00
Cl788  Cl    0.34713   0.86225   0.57145   0.00000  Uiso   1.00
Cl789  Cl    0.57950   0.71385   0.44442   0.00000  Uiso   1.00
Cl790  Cl    0.42050   0.95282   0.55558   0.00000  Uiso   1.00
Cl791  Cl    0.42514   0.77272   0.60265   0.00000  Uiso   1.00
Cl792  Cl    0.57486   0.89395   0.39735   0.00000  Uiso   1.00
Cu793  Cu    0.50000   0.83334   0.54689   0.00000  Uiso   1.00
Cu794  Cu    0.50000   0.83333   0.45311   0.00000  Uiso   1.00
H795   H     0.55892   0.96234   0.45652   0.00000  Uiso   1.00
H796   H     0.51007   0.93846   0.65103   0.00000  Uiso   1.00
H797   H     0.44108   0.70432   0.54348   0.00000  Uiso   1.00
H798   H     0.42377   0.77833   0.40133   0.00000  Uiso   1.00
H799   H     0.46229   0.71493   0.40085   0.00000  Uiso   1.00
H800   H     0.48993   0.72821   0.34897   0.00000  Uiso   1.00
H801   H     0.42289   0.71270   0.34524   0.00000  Uiso   1.00
H802   H     0.57623   0.88834   0.59867   0.00000  Uiso   1.00
H803   H     0.53772   0.95173   0.59915   0.00000  Uiso   1.00
H804   H     0.57711   0.95396   0.65476   0.00000  Uiso   1.00
N805   N     0.50001   0.83334   0.61736   0.00000  Uiso   1.00
N806   N     0.49999   0.83332   0.38264   0.00000  Uiso   1.00
N807   N     0.44112   0.77256   0.37252   0.00000  Uiso   1.00
N808   N     0.55888   0.89411   0.62748   0.00000  Uiso   1.00
O809   O     0.50000   0.77322   0.53958   0.00000  Uiso   1.00
O810   O     0.50000   0.89345   0.46042   0.00000  Uiso   1.00
O811   O     0.50000   0.77321   0.46039   0.00000  Uiso   1.00
O812   O     0.50000   0.89346   0.53961   0.00000  Uiso   1.00
O813   O     0.42495   0.83334   0.53046   0.00000  Uiso   1.00
O814   O     0.57505   0.83333   0.46954   0.00000  Uiso   1.00
O815   O     0.42494   0.83333   0.45127   0.00000  Uiso   1.00
O816   O     0.57506   0.83334   0.54873   0.00000  Uiso   1.00
C817   C     0.83410   0.75423   0.49992   0.00000  Uiso   1.00
C818   C     0.80054   0.68793   0.52489   0.00000  Uiso   1.00
C819   C     0.83224   0.95708   0.50024   0.00000  Uiso   1.00
C820   C     0.83443   0.70959   0.49976   0.00000  Uiso   1.00
C821   C     0.80414   0.80448   0.35383   0.00000  Uiso   1.00
C822   C     0.86253   0.86219   0.64617   0.00000  Uiso   1.00
C823   C     0.80300   0.80565   0.63773   0.00000  Uiso   1.00
C824   C     0.86367   0.86102   0.36227   0.00000  Uiso   1.00
C825   C     0.78842   0.73010   0.36648   0.00000  Uiso   1.00
C826   C     0.87825   0.93656   0.63352   0.00000  Uiso   1.00
C827   C     0.83256   0.91244   0.50008   0.00000  Uiso   1.00
C828   C     0.73489   0.83311   0.48821   0.00000  Uiso   1.00
C829   C     0.93178   0.83355   0.51179   0.00000  Uiso   1.00
C830   C     0.68004   0.82847   0.48230   0.00000  Uiso   1.00
C831   C     0.98662   0.83820   0.51770   0.00000  Uiso   1.00
C832   C     0.86761   0.68826   0.47482   0.00000  Uiso   1.00
C833   C     0.79906   0.97840   0.52518   0.00000  Uiso   1.00
C834   C     0.86613   0.97874   0.47511   0.00000  Uiso   1.00
Cl835  Cl    0.98621   0.80442   0.42855   0.00000  Uiso   1.00
Cl836  Cl    0.68046   0.86225   0.57145   0.00000  Uiso   1.00
Cl837  Cl    0.91283   0.71385   0.44442   0.00000  Uiso   1.00
Cl838  Cl    0.75383   0.95282   0.55558   0.00000  Uiso   1.00
Cl839  Cl    0.75847   0.77272   0.60265   0.00000  Uiso   1.00
Cl840  Cl    0.90819   0.89395   0.39735   0.00000  Uiso   1.00
Cu841  Cu    0.83333   0.83334   0.54689   0.00000  Uiso   1.00
Cu842  Cu    0.83333   0.83333   0.45311   0.00000  Uiso   1.00
H843   H     0.89226   0.96234   0.45652   0.00000  Uiso   1.00
H844   H     0.84340   0.93846   0.65103   0.00000  Uiso   1.00
H845   H     0.77441   0.70432   0.54348   0.00000  Uiso   1.00
H846   H     0.75710   0.77833   0.40133   0.00000  Uiso   1.00
H847   H     0.79562   0.71493   0.40085   0.00000  Uiso   1.00
H848   H     0.82326   0.72821   0.34897   0.00000  Uiso   1.00
H849   H     0.75622   0.71270   0.34524   0.00000  Uiso   1.00
H850   H     0.90956   0.88834   0.59867   0.00000  Uiso   1.00
H851   H     0.87105   0.95173   0.59915   0.00000  Uiso   1.00
H852   H     0.91044   0.95396   0.65476   0.00000  Uiso   1.00
N853   N     0.83335   0.83334   0.61736   0.00000  Uiso   1.00
N854   N     0.83332   0.83332   0.38264   0.00000  Uiso   1.00
N855   N     0.77445   0.77256   0.37252   0.00000  Uiso   1.00
N856   N     0.89221   0.89411   0.62748   0.00000  Uiso   1.00
O857   O     0.83333   0.77322   0.53958   0.00000  Uiso   1.00
O858   O     0.83334   0.89345   0.46042   0.00000  Uiso   1.00
O859   O     0.83333   0.77321   0.46039   0.00000  Uiso   1.00
O860   O     0.83334   0.89346   0.53961   0.00000  Uiso   1.00
O861   O     0.75828   0.83334   0.53046   0.00000  Uiso   1.00
O862   O     0.90839   0.83333   0.46954   0.00000  Uiso   1.00
O863   O     0.75828   0.83333   0.45127   0.00000  Uiso   1.00
O864   O     0.90839   0.83334   0.54873   0.00000  Uiso   1.00
C865   C     0.16744   0.08756   0.83325   0.00000  Uiso   1.00
C866   C     0.13387   0.02126   0.85823   0.00000  Uiso   1.00
C867   C     0.16557   0.29042   0.83357   0.00000  Uiso   1.00
C868   C     0.16776   0.04292   0.83310   0.00000  Uiso   1.00
C869   C     0.13747   0.13781   0.68716   0.00000  Uiso   1.00
C870   C     0.19586   0.19552   0.97951   0.00000  Uiso   1.00
C871   C     0.13633   0.13898   0.97107   0.00000  Uiso   1.00
C872   C     0.19700   0.19435   0.69560   0.00000  Uiso   1.00
C873   C     0.12175   0.06344   0.69981   0.00000  Uiso   1.00
C874   C     0.21158   0.26990   0.96685   0.00000  Uiso   1.00
C875   C     0.16590   0.24577   0.83341   0.00000  Uiso   1.00
C876   C     0.06822   0.16645   0.82154   0.00000  Uiso   1.00
C877   C     0.26511   0.16689   0.84513   0.00000  Uiso   1.00
C878   C     0.01338   0.16180   0.81564   0.00000  Uiso   1.00
C879   C     0.31996   0.17153   0.85103   0.00000  Uiso   1.00
C880   C     0.20094   0.02160   0.80815   0.00000  Uiso   1.00
C881   C     0.13239   0.31174   0.85852   0.00000  Uiso   1.00
C882   C     0.19946   0.31207   0.80844   0.00000  Uiso   1.00
Cl883  Cl    0.31954   0.13775   0.76189   0.00000  Uiso   1.00
Cl884  Cl    0.01379   0.19558   0.90478   0.00000  Uiso   1.00
Cl885  Cl    0.24617   0.04718   0.77776   0.00000  Uiso   1.00
Cl886  Cl    0.08717   0.28615   0.88891   0.00000  Uiso   1.00
Cl887  Cl    0.09181   0.10605   0.93598   0.00000  Uiso   1.00
Cl888  Cl    0.24153   0.22728   0.73069   0.00000  Uiso   1.00
Cu889  Cu    0.16667   0.16667   0.88022   0.00000  Uiso   1.00
Cu890  Cu    0.16667   0.16666   0.78645   0.00000  Uiso   1.00
H891   H     0.22559   0.29568   0.78985   0.00000  Uiso   1.00
H892   H     0.17674   0.27179   0.98436   0.00000  Uiso   1.00
H893   H     0.10774   0.03766   0.87682   0.00000  Uiso   1.00
H894   H     0.09044   0.11166   0.73466   0.00000  Uiso   1.00
H895   H     0.12895   0.04827   0.73419   0.00000  Uiso   1.00
H896   H     0.15660   0.06154   0.68230   0.00000  Uiso   1.00
H897   H     0.08956   0.04604   0.67857   0.00000  Uiso   1.00
H898   H     0.24290   0.22167   0.93201   0.00000  Uiso   1.00
H899   H     0.20438   0.28507   0.93248   0.00000  Uiso   1.00
H900   H     0.24378   0.28730   0.98810   0.00000  Uiso   1.00
N901   N     0.16668   0.16668   0.95069   0.00000  Uiso   1.00
N902   N     0.16665   0.16666   0.71597   0.00000  Uiso   1.00
N903   N     0.10779   0.10589   0.70586   0.00000  Uiso   1.00
N904   N     0.22555   0.22744   0.96081   0.00000  Uiso   1.00
O905   O     0.16666   0.10655   0.87291   0.00000  Uiso   1.00
O906   O     0.16667   0.22678   0.79375   0.00000  Uiso   1.00
O907   O     0.16666   0.10654   0.79372   0.00000  Uiso   1.00
O908   O     0.16667   0.22679   0.87294   0.00000  Uiso   1.00
O909   O     0.09161   0.16667   0.86379   0.00000  Uiso   1.00
O910   O     0.24172   0.16666   0.80288   0.00000  Uiso   1.00
O911   O     0.09161   0.16666   0.78460   0.00000  Uiso   1.00
O912   O     0.24172   0.16667   0.88207   0.00000  Uiso   1.00
C913   C     0.50077   0.08756   0.83325   0.00000  Uiso   1.00
C914   C     0.46721   0.02126   0.85823   0.00000  Uiso   1.00
C915   C     0.49891   0.29042   0.83357   0.00000  Uiso   1.00
C916   C     0.50109   0.04292   0.83310   0.00000  Uiso   1.00
C917   C     0.47080   0.13781   0.68716   0.00000  Uiso   1.00
C918   C     0.52920   0.19552   0.97951   0.00000  Uiso   1.00
C919   C     0.46967   0.13898   0.97107   0.00000  Uiso   1.00
C920   C     0.53033   0.19435   0.69560   0.00000  Uiso   1.00
C921   C     0.45508   0.06344   0.69981   0.00000  Uiso   1.00
C922   C     0.54492   0.26990   0.96685   0.00000  Uiso   1.00
C923   C     0.49923   0.24577   0.83341   0.00000  Uiso   1.00
C924   C     0.40155   0.16645   0.82154   0.00000  Uiso   1.00
C925   C     0.59845   0.16689   0.84513   0.00000  Uiso   1.00
C926   C     0.34671   0.16180   0.81564   0.00000  Uiso   1.00
C927   C     0.65329   0.17153   0.85103   0.00000  Uiso   1.00
C928   C     0.53428   0.02160   0.80815   0.00000  Uiso   1.00
C929   C     0.46572   0.31174   0.85852   0.00000  Uiso   1.00
C930   C     0.53279   0.31207   0.80844   0.00000  Uiso   1.00
Cl931  Cl    0.65287   0.13775   0.76189   0.00000  Uiso   1.00
Cl932  Cl    0.34713   0.19558   0.90478   0.00000  Uiso   1.00
Cl933  Cl    0.57950   0.04718   0.77776   0.00000  Uiso   1.00
Cl934  Cl    0.42050   0.28615   0.88891   0.00000  Uiso   1.00
Cl935  Cl    0.42514   0.10605   0.93598   0.00000  Uiso   1.00
Cl936  Cl    0.57486   0.22728   0.73069   0.00000  Uiso   1.00
Cu937  Cu    0.50000   0.16667   0.88022   0.00000  Uiso   1.00
Cu938  Cu    0.50000   0.16666   0.78645   0.00000  Uiso   1.00
H939   H     0.55892   0.29568   0.78985   0.00000  Uiso   1.00
H940   H     0.51007   0.27179   0.98436   0.00000  Uiso   1.00
H941   H     0.44108   0.03766   0.87682   0.00000  Uiso   1.00
H942   H     0.42377   0.11166   0.73466   0.00000  Uiso   1.00
H943   H     0.46229   0.04827   0.73419   0.00000  Uiso   1.00
H944   H     0.48993   0.06154   0.68230   0.00000  Uiso   1.00
H945   H     0.42289   0.04604   0.67857   0.00000  Uiso   1.00
H946   H     0.57623   0.22167   0.93201   0.00000  Uiso   1.00
H947   H     0.53772   0.28507   0.93248   0.00000  Uiso   1.00
H948   H     0.57711   0.28730   0.98810   0.00000  Uiso   1.00
N949   N     0.50001   0.16668   0.95069   0.00000  Uiso   1.00
N950   N     0.49999   0.16666   0.71597   0.00000  Uiso   1.00
N951   N     0.44112   0.10589   0.70586   0.00000  Uiso   1.00
N952   N     0.55888   0.22744   0.96081   0.00000  Uiso   1.00
O953   O     0.50000   0.10655   0.87291   0.00000  Uiso   1.00
O954   O     0.50000   0.22678   0.79375   0.00000  Uiso   1.00
O955   O     0.50000   0.10654   0.79372   0.00000  Uiso   1.00
O956   O     0.50000   0.22679   0.87294   0.00000  Uiso   1.00
O957   O     0.42495   0.16667   0.86379   0.00000  Uiso   1.00
O958   O     0.57505   0.16666   0.80288   0.00000  Uiso   1.00
O959   O     0.42494   0.16666   0.78460   0.00000  Uiso   1.00
O960   O     0.57506   0.16667   0.88207   0.00000  Uiso   1.00
C961   C     0.83410   0.08756   0.83325   0.00000  Uiso   1.00
C962   C     0.80054   0.02126   0.85823   0.00000  Uiso   1.00
C963   C     0.83224   0.29042   0.83357   0.00000  Uiso   1.00
C964   C     0.83443   0.04292   0.83310   0.00000  Uiso   1.00
C965   C     0.80414   0.13781   0.68716   0.00000  Uiso   1.00
C966   C     0.86253   0.19552   0.97951   0.00000  Uiso   1.00
C967   C     0.80300   0.13898   0.97107   0.00000  Uiso   1.00
C968   C     0.86367   0.19435   0.69560   0.00000  Uiso   1.00
C969   C     0.78842   0.06344   0.69981   0.00000  Uiso   1.00
C970   C     0.87825   0.26990   0.96685   0.00000  Uiso   1.00
C971   C     0.83256   0.24577   0.83341   0.00000  Uiso   1.00
C972   C     0.73489   0.16645   0.82154   0.00000  Uiso   1.00
C973   C     0.93178   0.16689   0.84513   0.00000  Uiso   1.00
C974   C     0.68004   0.16180   0.81564   0.00000  Uiso   1.00
C975   C     0.98662   0.17153   0.85103   0.00000  Uiso   1.00
C976   C     0.86761   0.02160   0.80815   0.00000  Uiso   1.00
C977   C     0.79906   0.31174   0.85852   0.00000  Uiso   1.00
C978   C     0.86613   0.31207   0.80844   0.00000  Uiso   1.00
Cl979  Cl    0.98621   0.13775   0.76189   0.00000  Uiso   1.00
Cl980  Cl    0.68046   0.19558   0.90478   0.00000  Uiso   1.00
Cl981  Cl    0.91283   0.04718   0.77776   0.00000  Uiso   1.00
Cl982  Cl    0.75383   0.28615   0.88891   0.00000  Uiso   1.00
Cl983  Cl    0.75847   0.10605   0.93598   0.00000  Uiso   1.00
Cl984  Cl    0.90819   0.22728   0.73069   0.00000  Uiso   1.00
Cu985  Cu    0.83333   0.16667   0.88022   0.00000  Uiso   1.00
Cu986  Cu    0.83333   0.16666   0.78645   0.00000  Uiso   1.00
H987   H     0.89226   0.29568   0.78985   0.00000  Uiso   1.00
H988   H     0.84340   0.27179   0.98436   0.00000  Uiso   1.00
H989   H     0.77441   0.03766   0.87682   0.00000  Uiso   1.00
H990   H     0.75710   0.11166   0.73466   0.00000  Uiso   1.00
H991   H     0.79562   0.04827   0.73419   0.00000  Uiso   1.00
H992   H     0.82326   0.06154   0.68230   0.00000  Uiso   1.00
H993   H     0.75622   0.04604   0.67857   0.00000  Uiso   1.00
H994   H     0.90956   0.22167   0.93201   0.00000  Uiso   1.00
H995   H     0.87105   0.28507   0.93248   0.00000  Uiso   1.00
H996   H     0.91044   0.28730   0.98810   0.00000  Uiso   1.00
N997   N     0.83335   0.16668   0.95069   0.00000  Uiso   1.00
N998   N     0.83332   0.16666   0.71597   0.00000  Uiso   1.00
N999   N     0.77445   0.10589   0.70586   0.00000  Uiso   1.00
N1000  N     0.89221   0.22744   0.96081   0.00000  Uiso   1.00
O1001  O     0.83333   0.10655   0.87291   0.00000  Uiso   1.00
O1002  O     0.83334   0.22678   0.79375   0.00000  Uiso   1.00
O1003  O     0.83333   0.10654   0.79372   0.00000  Uiso   1.00
O1004  O     0.83334   0.22679   0.87294   0.00000  Uiso   1.00
O1005  O     0.75828   0.16667   0.86379   0.00000  Uiso   1.00
O1006  O     0.90839   0.16666   0.80288   0.00000  Uiso   1.00
O1007  O     0.75828   0.16666   0.78460   0.00000  Uiso   1.00
O1008  O     0.90839   0.16667   0.88207   0.00000  Uiso   1.00
C1009  C     0.16744   0.42089   0.83325   0.00000  Uiso   1.00
C1010  C     0.13387   0.35459   0.85823   0.00000  Uiso   1.00
C1011  C     0.16557   0.62375   0.83357   0.00000  Uiso   1.00
C1012  C     0.16776   0.37625   0.83310   0.00000  Uiso   1.00
C1013  C     0.13747   0.47114   0.68716   0.00000  Uiso   1.00
C1014  C     0.19586   0.52886   0.97951   0.00000  Uiso   1.00
C1015  C     0.13633   0.47232   0.97107   0.00000  Uiso   1.00
C1016  C     0.19700   0.52768   0.69560   0.00000  Uiso   1.00
C1017  C     0.12175   0.39677   0.69981   0.00000  Uiso   1.00
C1018  C     0.21158   0.60323   0.96685   0.00000  Uiso   1.00
C1019  C     0.16590   0.57911   0.83341   0.00000  Uiso   1.00
C1020  C     0.06822   0.49978   0.82154   0.00000  Uiso   1.00
C1021  C     0.26511   0.50022   0.84513   0.00000  Uiso   1.00
C1022  C     0.01338   0.49514   0.81564   0.00000  Uiso   1.00
C1023  C     0.31996   0.50486   0.85103   0.00000  Uiso   1.00
C1024  C     0.20094   0.35493   0.80815   0.00000  Uiso   1.00
C1025  C     0.13239   0.64507   0.85852   0.00000  Uiso   1.00
C1026  C     0.19946   0.64541   0.80844   0.00000  Uiso   1.00
Cl1027 Cl    0.31954   0.47108   0.76189   0.00000  Uiso   1.00
Cl1028 Cl    0.01379   0.52892   0.90478   0.00000  Uiso   1.00
Cl1029 Cl    0.24617   0.38051   0.77776   0.00000  Uiso   1.00
Cl1030 Cl    0.08717   0.61949   0.88891   0.00000  Uiso   1.00
Cl1031 Cl    0.09181   0.43939   0.93598   0.00000  Uiso   1.00
Cl1032 Cl    0.24153   0.56061   0.73069   0.00000  Uiso   1.00
Cu1033 Cu    0.16667   0.50001   0.88022   0.00000  Uiso   1.00
Cu1034 Cu    0.16667   0.49999   0.78645   0.00000  Uiso   1.00
H1035  H     0.22559   0.62901   0.78985   0.00000  Uiso   1.00
H1036  H     0.17674   0.60512   0.98436   0.00000  Uiso   1.00
H1037  H     0.10774   0.37099   0.87682   0.00000  Uiso   1.00
H1038  H     0.09044   0.44499   0.73466   0.00000  Uiso   1.00
H1039  H     0.12895   0.38160   0.73419   0.00000  Uiso   1.00
H1040  H     0.15660   0.39488   0.68230   0.00000  Uiso   1.00
H1041  H     0.08956   0.37937   0.67857   0.00000  Uiso   1.00
H1042  H     0.24290   0.55501   0.93201   0.00000  Uiso   1.00
H1043  H     0.20438   0.61840   0.93248   0.00000  Uiso   1.00
H1044  H     0.24378   0.62063   0.98810   0.00000  Uiso   1.00
N1045  N     0.16668   0.50001   0.95069   0.00000  Uiso   1.00
N1046  N     0.16665   0.49999   0.71597   0.00000  Uiso   1.00
N1047  N     0.10779   0.43922   0.70586   0.00000  Uiso   1.00
N1048  N     0.22555   0.56078   0.96081   0.00000  Uiso   1.00
O1049  O     0.16666   0.43989   0.87291   0.00000  Uiso   1.00
O1050  O     0.16667   0.56011   0.79375   0.00000  Uiso   1.00
O1051  O     0.16666   0.43988   0.79372   0.00000  Uiso   1.00
O1052  O     0.16667   0.56012   0.87294   0.00000  Uiso   1.00
O1053  O     0.09161   0.50000   0.86379   0.00000  Uiso   1.00
O1054  O     0.24172   0.50000   0.80288   0.00000  Uiso   1.00
O1055  O     0.09161   0.49999   0.78460   0.00000  Uiso   1.00
O1056  O     0.24172   0.50001   0.88207   0.00000  Uiso   1.00
C1057  C     0.50077   0.42089   0.83325   0.00000  Uiso   1.00
C1058  C     0.46721   0.35459   0.85823   0.00000  Uiso   1.00
C1059  C     0.49891   0.62375   0.83357   0.00000  Uiso   1.00
C1060  C     0.50109   0.37625   0.83310   0.00000  Uiso   1.00
C1061  C     0.47080   0.47114   0.68716   0.00000  Uiso   1.00
C1062  C     0.52920   0.52886   0.97951   0.00000  Uiso   1.00
C1063  C     0.46967   0.47232   0.97107   0.00000  Uiso   1.00
C1064  C     0.53033   0.52768   0.69560   0.00000  Uiso   1.00
C1065  C     0.45508   0.39677   0.69981   0.00000  Uiso   1.00
C1066  C     0.54492   0.60323   0.96685   0.00000  Uiso   1.00
C1067  C     0.49923   0.57911   0.83341   0.00000  Uiso   1.00
C1068  C     0.40155   0.49978   0.82154   0.00000  Uiso   1.00
C1069  C     0.59845   0.50022   0.84513   0.00000  Uiso   1.00
C1070  C     0.34671   0.49514   0.81564   0.00000  Uiso   1.00
C1071  C     0.65329   0.50486   0.85103   0.00000  Uiso   1.00
C1072  C     0.53428   0.35493   0.80815   0.00000  Uiso   1.00
C1073  C     0.46572   0.64507   0.85852   0.00000  Uiso   1.00
C1074  C     0.53279   0.64541   0.80844   0.00000  Uiso   1.00
Cl1075 Cl    0.65287   0.47108   0.76189   0.00000  Uiso   1.00
Cl1076 Cl    0.34713   0.52892   0.90478   0.00000  Uiso   1.00
Cl1077 Cl    0.57950   0.38051   0.77776   0.00000  Uiso   1.00
Cl1078 Cl    0.42050   0.61949   0.88891   0.00000  Uiso   1.00
Cl1079 Cl    0.42514   0.43939   0.93598   0.00000  Uiso   1.00
Cl1080 Cl    0.57486   0.56061   0.73069   0.00000  Uiso   1.00
Cu1081 Cu    0.50000   0.50001   0.88022   0.00000  Uiso   1.00
Cu1082 Cu    0.50000   0.49999   0.78645   0.00000  Uiso   1.00
H1083  H     0.55892   0.62901   0.78985   0.00000  Uiso   1.00
H1084  H     0.51007   0.60512   0.98436   0.00000  Uiso   1.00
H1085  H     0.44108   0.37099   0.87682   0.00000  Uiso   1.00
H1086  H     0.42377   0.44499   0.73466   0.00000  Uiso   1.00
H1087  H     0.46229   0.38160   0.73419   0.00000  Uiso   1.00
H1088  H     0.48993   0.39488   0.68230   0.00000  Uiso   1.00
H1089  H     0.42289   0.37937   0.67857   0.00000  Uiso   1.00
H1090  H     0.57623   0.55501   0.93201   0.00000  Uiso   1.00
H1091  H     0.53772   0.61840   0.93248   0.00000  Uiso   1.00
H1092  H     0.57711   0.62063   0.98810   0.00000  Uiso   1.00
N1093  N     0.50001   0.50001   0.95069   0.00000  Uiso   1.00
N1094  N     0.49999   0.49999   0.71597   0.00000  Uiso   1.00
N1095  N     0.44112   0.43922   0.70586   0.00000  Uiso   1.00
N1096  N     0.55888   0.56078   0.96081   0.00000  Uiso   1.00
O1097  O     0.50000   0.43989   0.87291   0.00000  Uiso   1.00
O1098  O     0.50000   0.56011   0.79375   0.00000  Uiso   1.00
O1099  O     0.50000   0.43988   0.79372   0.00000  Uiso   1.00
O1100  O     0.50000   0.56012   0.87294   0.00000  Uiso   1.00
O1101  O     0.42495   0.50000   0.86379   0.00000  Uiso   1.00
O1102  O     0.57505   0.50000   0.80288   0.00000  Uiso   1.00
O1103  O     0.42494   0.49999   0.78460   0.00000  Uiso   1.00
O1104  O     0.57506   0.50001   0.88207   0.00000  Uiso   1.00
C1105  C     0.83410   0.42089   0.83325   0.00000  Uiso   1.00
C1106  C     0.80054   0.35459   0.85823   0.00000  Uiso   1.00
C1107  C     0.83224   0.62375   0.83357   0.00000  Uiso   1.00
C1108  C     0.83443   0.37625   0.83310   0.00000  Uiso   1.00
C1109  C     0.80414   0.47114   0.68716   0.00000  Uiso   1.00
C1110  C     0.86253   0.52886   0.97951   0.00000  Uiso   1.00
C1111  C     0.80300   0.47232   0.97107   0.00000  Uiso   1.00
C1112  C     0.86367   0.52768   0.69560   0.00000  Uiso   1.00
C1113  C     0.78842   0.39677   0.69981   0.00000  Uiso   1.00
C1114  C     0.87825   0.60323   0.96685   0.00000  Uiso   1.00
C1115  C     0.83256   0.57911   0.83341   0.00000  Uiso   1.00
C1116  C     0.73489   0.49978   0.82154   0.00000  Uiso   1.00
C1117  C     0.93178   0.50022   0.84513   0.00000  Uiso   1.00
C1118  C     0.68004   0.49514   0.81564   0.00000  Uiso   1.00
C1119  C     0.98662   0.50486   0.85103   0.00000  Uiso   1.00
C1120  C     0.86761   0.35493   0.80815   0.00000  Uiso   1.00
C1121  C     0.79906   0.64507   0.85852   0.00000  Uiso   1.00
C1122  C     0.86613   0.64541   0.80844   0.00000  Uiso   1.00
Cl1123 Cl    0.98621   0.47108   0.76189   0.00000  Uiso   1.00
Cl1124 Cl    0.68046   0.52892   0.90478   0.00000  Uiso   1.00
Cl1125 Cl    0.91283   0.38051   0.77776   0.00000  Uiso   1.00
Cl1126 Cl    0.75383   0.61949   0.88891   0.00000  Uiso   1.00
Cl1127 Cl    0.75847   0.43939   0.93598   0.00000  Uiso   1.00
Cl1128 Cl    0.90819   0.56061   0.73069   0.00000  Uiso   1.00
Cu1129 Cu    0.83333   0.50001   0.88022   0.00000  Uiso   1.00
Cu1130 Cu    0.83333   0.49999   0.78645   0.00000  Uiso   1.00
H1131  H     0.89226   0.62901   0.78985   0.00000  Uiso   1.00
H1132  H     0.84340   0.60512   0.98436   0.00000  Uiso   1.00
H1133  H     0.77441   0.37099   0.87682   0.00000  Uiso   1.00
H1134  H     0.75710   0.44499   0.73466   0.00000  Uiso   1.00
H1135  H     0.79562   0.38160   0.73419   0.00000  Uiso   1.00
H1136  H     0.82326   0.39488   0.68230   0.00000  Uiso   1.00
H1137  H     0.75622   0.37937   0.67857   0.00000  Uiso   1.00
H1138  H     0.90956   0.55501   0.93201   0.00000  Uiso   1.00
H1139  H     0.87105   0.61840   0.93248   0.00000  Uiso   1.00
H1140  H     0.91044   0.62063   0.98810   0.00000  Uiso   1.00
N1141  N     0.83335   0.50001   0.95069   0.00000  Uiso   1.00
N1142  N     0.83332   0.49999   0.71597   0.00000  Uiso   1.00
N1143  N     0.77445   0.43922   0.70586   0.00000  Uiso   1.00
N1144  N     0.89221   0.56078   0.96081   0.00000  Uiso   1.00
O1145  O     0.83333   0.43989   0.87291   0.00000  Uiso   1.00
O1146  O     0.83334   0.56011   0.79375   0.00000  Uiso   1.00
O1147  O     0.83333   0.43988   0.79372   0.00000  Uiso   1.00
O1148  O     0.83334   0.56012   0.87294   0.00000  Uiso   1.00
O1149  O     0.75828   0.50000   0.86379   0.00000  Uiso   1.00
O1150  O     0.90839   0.50000   0.80288   0.00000  Uiso   1.00
O1151  O     0.75828   0.49999   0.78460   0.00000  Uiso   1.00
O1152  O     0.90839   0.50001   0.88207   0.00000  Uiso   1.00
C1153  C     0.16744   0.75423   0.83325   0.00000  Uiso   1.00
C1154  C     0.13387   0.68793   0.85823   0.00000  Uiso   1.00
C1155  C     0.16557   0.95708   0.83357   0.00000  Uiso   1.00
C1156  C     0.16776   0.70959   0.83310   0.00000  Uiso   1.00
C1157  C     0.13747   0.80448   0.68716   0.00000  Uiso   1.00
C1158  C     0.19586   0.86219   0.97951   0.00000  Uiso   1.00
C1159  C     0.13633   0.80565   0.97107   0.00000  Uiso   1.00
C1160  C     0.19700   0.86102   0.69560   0.00000  Uiso   1.00
C1161  C     0.12175   0.73010   0.69981   0.00000  Uiso   1.00
C1162  C     0.21158   0.93656   0.96685   0.00000  Uiso   1.00
C1163  C     0.16590   0.91244   0.83341   0.00000  Uiso   1.00
C1164  C     0.06822   0.83311   0.82154   0.00000  Uiso   1.00
C1165  C     0.26511   0.83355   0.84513   0.00000  Uiso   1.00
C1166  C     0.01338   0.82847   0.81564   0.00000  Uiso   1.00
C1167  C     0.31996   0.83820   0.85103   0.00000  Uiso   1.00
C1168  C     0.20094   0.68826   0.80815   0.00000  Uiso   1.00
C1169  C     0.13239   0.97840   0.85852   0.00000  Uiso   1.00
C1170  C     0.19946   0.97874   0.80844   0.00000  Uiso   1.00
Cl1171 Cl    0.31954   0.80442   0.76189   0.00000  Uiso   1.00
Cl1172 Cl    0.01379   0.86225   0.90478   0.00000  Uiso   1.00
Cl1173 Cl    0.24617   0.71385   0.77776   0.00000  Uiso   1.00
Cl1174 Cl    0.08717   0.95282   0.88891   0.00000  Uiso   1.00
Cl1175 Cl    0.09181   0.77272   0.93598   0.00000  Uiso   1.00
Cl1176 Cl    0.24153   0.89395   0.73069   0.00000  Uiso   1.00
Cu1177 Cu    0.16667   0.83334   0.88022   0.00000  Uiso   1.00
Cu1178 Cu    0.16667   0.83333   0.78645   0.00000  Uiso   1.00
H1179  H     0.22559   0.96234   0.78985   0.00000  Uiso   1.00
H1180  H     0.17674   0.93846   0.98436   0.00000  Uiso   1.00
H1181  H     0.10774   0.70432   0.87682   0.00000  Uiso   1.00
H1182  H     0.09044   0.77833   0.73466   0.00000  Uiso   1.00
H1183  H     0.12895   0.71493   0.73419   0.00000  Uiso   1.00
H1184  H     0.15660   0.72821   0.68230   0.00000  Uiso   1.00
H1185  H     0.08956   0.71270   0.67857   0.00000  Uiso   1.00
H1186  H     0.24290   0.88834   0.93201   0.00000  Uiso   1.00
H1187  H     0.20438   0.95173   0.93248   0.00000  Uiso   1.00
H1188  H     0.24378   0.95396   0.98810   0.00000  Uiso   1.00
N1189  N     0.16668   0.83334   0.95069   0.00000  Uiso   1.00
N1190  N     0.16665   0.83332   0.71597   0.00000  Uiso   1.00
N1191  N     0.10779   0.77256   0.70586   0.00000  Uiso   1.00
N1192  N     0.22555   0.89411   0.96081   0.00000  Uiso   1.00
O1193  O     0.16666   0.77322   0.87291   0.00000  Uiso   1.00
O1194  O     0.16667   0.89345   0.79375   0.00000  Uiso   1.00
O1195  O     0.16666   0.77321   0.79372   0.00000  Uiso   1.00
O1196  O     0.16667   0.89346   0.87294   0.00000  Uiso   1.00
O1197  O     0.09161   0.83334   0.86379   0.00000  Uiso   1.00
O1198  O     0.24172   0.83333   0.80288   0.00000  Uiso   1.00
O1199  O     0.09161   0.83333   0.78460   0.00000  Uiso   1.00
O1200  O     0.24172   0.83334   0.88207   0.00000  Uiso   1.00
C1201  C     0.50077   0.75423   0.83325   0.00000  Uiso   1.00
C1202  C     0.46721   0.68793   0.85823   0.00000  Uiso   1.00
C1203  C     0.49891   0.95708   0.83357   0.00000  Uiso   1.00
C1204  C     0.50109   0.70959   0.83310   0.00000  Uiso   1.00
C1205  C     0.47080   0.80448   0.68716   0.00000  Uiso   1.00
C1206  C     0.52920   0.86219   0.97951   0.00000  Uiso   1.00
C1207  C     0.46967   0.80565   0.97107   0.00000  Uiso   1.00
C1208  C     0.53033   0.86102   0.69560   0.00000  Uiso   1.00
C1209  C     0.45508   0.73010   0.69981   0.00000  Uiso   1.00
C1210  C     0.54492   0.93656   0.96685   0.00000  Uiso   1.00
C1211  C     0.49923   0.91244   0.83341   0.00000  Uiso   1.00
C1212  C     0.40155   0.83311   0.82154   0.00000  Uiso   1.00
C1213  C     0.59845   0.83355   0.84513   0.00000  Uiso   1.00
C1214  C     0.34671   0.82847   0.81564   0.00000  Uiso   1.00
C1215  C     0.65329   0.83820   0.85103   0.00000  Uiso   1.00
C1216  C     0.53428   0.68826   0.80815   0.00000  Uiso   1.00
C1217  C     0.46572   0.97840   0.85852   0.00000  Uiso   1.00
C1218  C     0.53279   0.97874   0.80844   0.00000  Uiso   1.00
Cl1219 Cl    0.65287   0.80442   0.76189   0.00000  Uiso   1.00
Cl1220 Cl    0.34713   0.86225   0.90478   0.00000  Uiso   1.00
Cl1221 Cl    0.57950   0.71385   0.77776   0.00000  Uiso   1.00
Cl1222 Cl    0.42050   0.95282   0.88891   0.00000  Uiso   1.00
Cl1223 Cl    0.42514   0.77272   0.93598   0.00000  Uiso   1.00
Cl1224 Cl    0.57486   0.89395   0.73069   0.00000  Uiso   1.00
Cu1225 Cu    0.50000   0.83334   0.88022   0.00000  Uiso   1.00
Cu1226 Cu    0.50000   0.83333   0.78645   0.00000  Uiso   1.00
H1227  H     0.55892   0.96234   0.78985   0.00000  Uiso   1.00
H1228  H     0.51007   0.93846   0.98436   0.00000  Uiso   1.00
H1229  H     0.44108   0.70432   0.87682   0.00000  Uiso   1.00
H1230  H     0.42377   0.77833   0.73466   0.00000  Uiso   1.00
H1231  H     0.46229   0.71493   0.73419   0.00000  Uiso   1.00
H1232  H     0.48993   0.72821   0.68230   0.00000  Uiso   1.00
H1233  H     0.42289   0.71270   0.67857   0.00000  Uiso   1.00
H1234  H     0.57623   0.88834   0.93201   0.00000  Uiso   1.00
H1235  H     0.53772   0.95173   0.93248   0.00000  Uiso   1.00
H1236  H     0.57711   0.95396   0.98810   0.00000  Uiso   1.00
N1237  N     0.50001   0.83334   0.95069   0.00000  Uiso   1.00
N1238  N     0.49999   0.83332   0.71597   0.00000  Uiso   1.00
N1239  N     0.44112   0.77256   0.70586   0.00000  Uiso   1.00
N1240  N     0.55888   0.89411   0.96081   0.00000  Uiso   1.00
O1241  O     0.50000   0.77322   0.87291   0.00000  Uiso   1.00
O1242  O     0.50000   0.89345   0.79375   0.00000  Uiso   1.00
O1243  O     0.50000   0.77321   0.79372   0.00000  Uiso   1.00
O1244  O     0.50000   0.89346   0.87294   0.00000  Uiso   1.00
O1245  O     0.42495   0.83334   0.86379   0.00000  Uiso   1.00
O1246  O     0.57505   0.83333   0.80288   0.00000  Uiso   1.00
O1247  O     0.42494   0.83333   0.78460   0.00000  Uiso   1.00
O1248  O     0.57506   0.83334   0.88207   0.00000  Uiso   1.00
C1249  C     0.83410   0.75423   0.83325   0.00000  Uiso   1.00
C1250  C     0.80054   0.68793   0.85823   0.00000  Uiso   1.00
C1251  C     0.83224   0.95708   0.83357   0.00000  Uiso   1.00
C1252  C     0.83443   0.70959   0.83310   0.00000  Uiso   1.00
C1253  C     0.80414   0.80448   0.68716   0.00000  Uiso   1.00
C1254  C     0.86253   0.86219   0.97951   0.00000  Uiso   1.00
C1255  C     0.80300   0.80565   0.97107   0.00000  Uiso   1.00
C1256  C     0.86367   0.86102   0.69560   0.00000  Uiso   1.00
C1257  C     0.78842   0.73010   0.69981   0.00000  Uiso   1.00
C1258  C     0.87825   0.93656   0.96685   0.00000  Uiso   1.00
C1259  C     0.83256   0.91244   0.83341   0.00000  Uiso   1.00
C1260  C     0.73489   0.83311   0.82154   0.00000  Uiso   1.00
C1261  C     0.93178   0.83355   0.84513   0.00000  Uiso   1.00
C1262  C     0.68004   0.82847   0.81564   0.00000  Uiso   1.00
C1263  C     0.98662   0.83820   0.85103   0.00000  Uiso   1.00
C1264  C     0.86761   0.68826   0.80815   0.00000  Uiso   1.00
C1265  C     0.79906   0.97840   0.85852   0.00000  Uiso   1.00
C1266  C     0.86613   0.97874   0.80844   0.00000  Uiso   1.00
Cl1267 Cl    0.98621   0.80442   0.76189   0.00000  Uiso   1.00
Cl1268 Cl    0.68046   0.86225   0.90478   0.00000  Uiso   1.00
Cl1269 Cl    0.91283   0.71385   0.77776   0.00000  Uiso   1.00
Cl1270 Cl    0.75383   0.95282   0.88891   0.00000  Uiso   1.00
Cl1271 Cl    0.75847   0.77272   0.93598   0.00000  Uiso   1.00
Cl1272 Cl    0.90819   0.89395   0.73069   0.00000  Uiso   1.00
Cu1273 Cu    0.83333   0.83334   0.88022   0.00000  Uiso   1.00
Cu1274 Cu    0.83333   0.83333   0.78645   0.00000  Uiso   1.00
H1275  H     0.89226   0.96234   0.78985   0.00000  Uiso   1.00
H1276  H     0.84340   0.93846   0.98436   0.00000  Uiso   1.00
H1277  H     0.77441   0.70432   0.87682   0.00000  Uiso   1.00
H1278  H     0.75710   0.77833   0.73466   0.00000  Uiso   1.00
H1279  H     0.79562   0.71493   0.73419   0.00000  Uiso   1.00
H1280  H     0.82326   0.72821   0.68230   0.00000  Uiso   1.00
H1281  H     0.75622   0.71270   0.67857   0.00000  Uiso   1.00
H1282  H     0.90956   0.88834   0.93201   0.00000  Uiso   1.00
H1283  H     0.87105   0.95173   0.93248   0.00000  Uiso   1.00
H1284  H     0.91044   0.95396   0.98810   0.00000  Uiso   1.00
N1285  N     0.83335   0.83334   0.95069   0.00000  Uiso   1.00
N1286  N     0.83332   0.83332   0.71597   0.00000  Uiso   1.00
N1287  N     0.77445   0.77256   0.70586   0.00000  Uiso   1.00
N1288  N     0.89221   0.89411   0.96081   0.00000  Uiso   1.00
O1289  O     0.83333   0.77322   0.87291   0.00000  Uiso   1.00
O1290  O     0.83334   0.89345   0.79375   0.00000  Uiso   1.00
O1291  O     0.83333   0.77321   0.79372   0.00000  Uiso   1.00
O1292  O     0.83334   0.89346   0.87294   0.00000  Uiso   1.00
O1293  O     0.75828   0.83334   0.86379   0.00000  Uiso   1.00
O1294  O     0.90839   0.83333   0.80288   0.00000  Uiso   1.00
O1295  O     0.75828   0.83333   0.78460   0.00000  Uiso   1.00
O1296  O     0.90839   0.83334   0.88207   0.00000  Uiso   1.00
loop_
_geom_bond_atom_site_label_1
_geom_bond_atom_site_label_2
_geom_bond_distance
_geom_bond_site_symmetry_2
_ccdc_geom_bond_type
C1     C4      1.445   .     S
C1     O43     1.299   .     A
C1     O41     1.298   .     A
C2     C4      1.398   .     A
C2     H29     1.082   .     S
C2     C305    1.386   1_545 S
C3     C17     1.405   .     A
C3     C11     1.445   .     S
C3     C18     1.398   .     A
C4     C16     1.405   .     A
C5     N38     1.384   .     A
C5     N39     1.426   .     S
C5     C871    1.424   1_554 S
C6     N37     1.384   .     A
C6     N40     1.426   .     S
C6     C440    1.424   .     S
C7     N37     1.368   .     A
C7     Cl23    1.762   .     S
C7     C437    1.424   .     S
C8     N38     1.368   .     A
C8     Cl24    1.762   .     S
C8     C870    1.424   1_554 S
C9     H33     1.110   .     S
C9     H31     1.107   .     S
C9     N39     1.451   .     S
C9     H32     1.112   .     S
C10    N40     1.451   .     S
C10    H35     1.107   .     S
C10    H28     1.112   .     S
C10    H36     1.110   .     S
C11    O44     1.299   .     A
C11    O42     1.298   .     A
C12    C14     1.437   .     S
C12    O47     1.303   .     A
C12    O45     1.290   .     A
C13    O48     1.303   .     A
C13    C15     1.437   .     S
C13    O46     1.290   .     A
C14    C111    1.361   1_455 S
C14    Cl115   1.779   1_455 S
C15    C62     1.361   .     S
C15    Cl68    1.779   .     S
C16    Cl21    1.761   .     S
C16    C306    1.386   1_545 S
C17    Cl22    1.761   .     S
C17    C146    1.386   .     S
C18    H27     1.082   .     S
C18    C160    1.386   .     S
Cl19   C62     1.779   .     S
Cl20   C111    1.779   1_455 S
Cu25   O48     1.976   .     S
Cu25   O44     1.958   .     S
Cu25   O45     1.974   .     S
Cu25   O41     1.955   .     S
Cu25   N37     2.035   .     S
Cu25   Cu26    2.708   .     S
Cu26   O47     1.976   .     S
Cu26   O43     1.958   .     S
Cu26   O42     1.955   .     S
Cu26   O46     1.974   .     S
Cu26   N38     2.035   .     S
H30    N39     1.022   .     S
H34    N40     1.022   .     S
C49    C52     1.445   .     S
C49    O91     1.299   .     A
C49    O89     1.298   .     A
C50    C52     1.398   .     A
C50    H77     1.082   .     S
C50    C353    1.386   1_545 S
C51    C65     1.405   .     A
C51    C59     1.445   .     S
C51    C66     1.398   .     A
C52    C64     1.405   .     A
C53    N86     1.384   .     A
C53    N87     1.426   .     S
C53    C919    1.424   1_554 S
C54    N85     1.384   .     A
C54    N88     1.426   .     S
C54    C488    1.424   .     S
C55    N85     1.368   .     A
C55    Cl71    1.762   .     S
C55    C485    1.424   .     S
C56    N86     1.368   .     A
C56    Cl72    1.762   .     S
C56    C918    1.424   1_554 S
C57    H81     1.110   .     S
C57    H79     1.107   .     S
C57    N87     1.451   .     S
C57    H80     1.112   .     S
C58    N88     1.451   .     S
C58    H83     1.107   .     S
C58    H76     1.112   .     S
C58    H84     1.110   .     S
C59    O92     1.299   .     A
C59    O90     1.298   .     A
C60    C62     1.437   .     S
C60    O95     1.303   .     A
C60    O93     1.290   .     A
C61    O96     1.303   .     A
C61    C63     1.437   .     S
C61    O94     1.290   .     A
C63    C110    1.361   .     S
C63    Cl116   1.779   .     S
C64    Cl69    1.761   .     S
C64    C354    1.386   1_545 S
C65    Cl70    1.761   .     S
C65    C194    1.386   .     S
C66    H75     1.082   .     S
C66    C208    1.386   .     S
Cl67   C110    1.779   .     S
Cu73   O96     1.976   .     S
Cu73   O92     1.958   .     S
Cu73   O93     1.974   .     S
Cu73   O89     1.955   .     S
Cu73   N85     2.035   .     S
Cu73   Cu74    2.708   .     S
Cu74   O95     1.976   .     S
Cu74   O91     1.958   .     S
Cu74   O90     1.955   .     S
Cu74   O94     1.974   .     S
Cu74   N86     2.035   .     S
H78    N87     1.022   .     S
H82    N88     1.022   .     S
C97    C100    1.445   .     S
C97    O139    1.299   .     A
C97    O137    1.298   .     A
C98    C100    1.398   .     A
C98    H125    1.082   .     S
C98    C401    1.386   1_545 S
C99    C113    1.405   .     A
C99    C107    1.445   .     S
C99    C114    1.398   .     A
C100   C112    1.405   .     A
C101   N134    1.384   .     A
C101   N135    1.426   .     S
C101   C967    1.424   1_554 S
C102   N133    1.384   .     A
C102   N136    1.426   .     S
C102   C536    1.424   .     S
C103   N133    1.368   .     A
C103   Cl119   1.762   .     S
C103   C533    1.424   .     S
C104   N134    1.368   .     A
C104   Cl120   1.762   .     S
C104   C966    1.424   1_554 S
C105   H129    1.110   .     S
C105   H127    1.107   .     S
C105   N135    1.451   .     S
C105   H128    1.112   .     S
C106   N136    1.451   .     S
C106   H131    1.107   .     S
C106   H124    1.112   .     S
C106   H132    1.110   .     S
C107   O140    1.299   .     A
C107   O138    1.298   .     A
C108   C110    1.437   .     S
C108   O143    1.303   .     A
C108   O141    1.290   .     A
C109   O144    1.303   .     A
C109   C111    1.437   .     S
C109   O142    1.290   .     A
C111   C14     1.361   1_655 S
C111   Cl20    1.779   1_655 S
C112   Cl117   1.761   .     S
C112   C402    1.386   1_545 S
C113   Cl118   1.761   .     S
C113   C242    1.386   .     S
C114   H123    1.082   .     S
C114   C256    1.386   .     S
Cl115  C14     1.779   1_655 S
Cu121  O144    1.976   .     S
Cu121  O140    1.958   .     S
Cu121  O141    1.974   .     S
Cu121  O137    1.955   .     S
Cu121  N133    2.035   .     S
Cu121  Cu122   2.708   .     S
Cu122  O143    1.976   .     S
Cu122  O139    1.958   .     S
Cu122  O138    1.955   .     S
Cu122  O142    1.974   .     S
Cu122  N134    2.035   .     S
H126   N135    1.022   .     S
H130   N136    1.022   .     S
C145   C148    1.445   .     S
C145   O187    1.299   .     A
C145   O185    1.298   .     A
C146   C148    1.398   .     A
C146   H173    1.082   .     S
C147   C161    1.405   .     A
C147   C155    1.445   .     S
C147   C162    1.398   .     A
C148   C160    1.405   .     A
C149   N182    1.384   .     A
C149   N183    1.426   .     S
C149   C1015   1.424   1_554 S
C150   N181    1.384   .     A
C150   N184    1.426   .     S
C150   C584    1.424   .     S
C151   N181    1.368   .     A
C151   Cl167   1.762   .     S
C151   C581    1.424   .     S
C152   N182    1.368   .     A
C152   Cl168   1.762   .     S
C152   C1014   1.424   1_554 S
C153   H177    1.110   .     S
C153   H175    1.107   .     S
C153   N183    1.451   .     S
C153   H176    1.112   .     S
C154   N184    1.451   .     S
C154   H179    1.107   .     S
C154   H172    1.112   .     S
C154   H180    1.110   .     S
C155   O188    1.299   .     A
C155   O186    1.298   .     A
C156   C158    1.437   .     S
C156   O191    1.303   .     A
C156   O189    1.290   .     A
C157   O192    1.303   .     A
C157   C159    1.437   .     S
C157   O190    1.290   .     A
C158   C255    1.361   1_455 S
C158   Cl259   1.779   1_455 S
C159   C206    1.361   .     S
C159   Cl212   1.779   .     S
C160   Cl165   1.761   .     S
C161   Cl166   1.761   .     S
C161   C290    1.386   .     S
C162   H171    1.082   .     S
C162   C304    1.386   .     S
Cl163  C206    1.779   .     S
Cl164  C255    1.779   1_455 S
Cu169  O192    1.976   .     S
Cu169  O188    1.958   .     S
Cu169  O189    1.974   .     S
Cu169  O185    1.955   .     S
Cu169  N181    2.035   .     S
Cu169  Cu170   2.708   .     S
Cu170  O191    1.976   .     S
Cu170  O187    1.958   .     S
Cu170  O186    1.955   .     S
Cu170  O190    1.974   .     S
Cu170  N182    2.035   .     S
H174   N183    1.022   .     S
H178   N184    1.022   .     S
C193   C196    1.445   .     S
C193   O235    1.299   .     A
C193   O233    1.298   .     A
C194   C196    1.398   .     A
C194   H221    1.082   .     S
C195   C209    1.405   .     A
C195   C203    1.445   .     S
C195   C210    1.398   .     A
C196   C208    1.405   .     A
C197   N230    1.384   .     A
C197   N231    1.426   .     S
C197   C1063   1.424   1_554 S
C198   N229    1.384   .     A
C198   N232    1.426   .     S
C198   C632    1.424   .     S
C199   N229    1.368   .     A
C199   Cl215   1.762   .     S
C199   C629    1.424   .     S
C200   N230    1.368   .     A
C200   Cl216   1.762   .     S
C200   C1062   1.424   1_554 S
C201   H225    1.110   .     S
C201   H223    1.107   .     S
C201   N231    1.451   .     S
C201   H224    1.112   .     S
C202   N232    1.451   .     S
C202   H227    1.107   .     S
C202   H220    1.112   .     S
C202   H228    1.110   .     S
C203   O236    1.299   .     A
C203   O234    1.298   .     A
C204   C206    1.437   .     S
C204   O239    1.303   .     A
C204   O237    1.290   .     A
C205   O240    1.303   .     A
C205   C207    1.437   .     S
C205   O238    1.290   .     A
C207   C254    1.361   .     S
C207   Cl260   1.779   .     S
C208   Cl213   1.761   .     S
C209   Cl214   1.761   .     S
C209   C338    1.386   .     S
C210   H219    1.082   .     S
C210   C352    1.386   .     S
Cl211  C254    1.779   .     S
Cu217  O240    1.976   .     S
Cu217  O236    1.958   .     S
Cu217  O237    1.974   .     S
Cu217  O233    1.955   .     S
Cu217  N229    2.035   .     S
Cu217  Cu218   2.708   .     S
Cu218  O239    1.976   .     S
Cu218  O235    1.958   .     S
Cu218  O234    1.955   .     S
Cu218  O238    1.974   .     S
Cu218  N230    2.035   .     S
H222   N231    1.022   .     S
H226   N232    1.022   .     S
C241   C244    1.445   .     S
C241   O283    1.299   .     A
C241   O281    1.298   .     A
C242   C244    1.398   .     A
C242   H269    1.082   .     S
C243   C257    1.405   .     A
C243   C251    1.445   .     S
C243   C258    1.398   .     A
C244   C256    1.405   .     A
C245   N278    1.384   .     A
C245   N279    1.426   .     S
C245   C1111   1.424   1_554 S
C246   N277    1.384   .     A
C246   N280    1.426   .     S
C246   C680    1.424   .     S
C247   N277    1.368   .     A
C247   Cl263   1.762   .     S
C247   C677    1.424   .     S
C248   N278    1.368   .     A
C248   Cl264   1.762   .     S
C248   C1110   1.424   1_554 S
C249   H273    1.110   .     S
C249   H271    1.107   .     S
C249   N279    1.451   .     S
C249   H272    1.112   .     S
C250   N280    1.451   .     S
C250   H275    1.107   .     S
C250   H268    1.112   .     S
C250   H276    1.110   .     S
C251   O284    1.299   .     A
C251   O282    1.298   .     A
C252   C254    1.437   .     S
C252   O287    1.303   .     A
C252   O285    1.290   .     A
C253   O288    1.303   .     A
C253   C255    1.437   .     S
C253   O286    1.290   .     A
C255   C158    1.361   1_655 S
C255   Cl164   1.779   1_655 S
C256   Cl261   1.761   .     S
C257   Cl262   1.761   .     S
C257   C386    1.386   .     S
C258   H267    1.082   .     S
C258   C400    1.386   .     S
Cl259  C158    1.779   1_655 S
Cu265  O288    1.976   .     S
Cu265  O284    1.958   .     S
Cu265  O285    1.974   .     S
Cu265  O281    1.955   .     S
Cu265  N277    2.035   .     S
Cu265  Cu266   2.708   .     S
Cu266  O287    1.976   .     S
Cu266  O283    1.958   .     S
Cu266  O282    1.955   .     S
Cu266  O286    1.974   .     S
Cu266  N278    2.035   .     S
H270   N279    1.022   .     S
H274   N280    1.022   .     S
C289   C292    1.445   .     S
C289   O331    1.299   .     A
C289   O329    1.298   .     A
C290   C292    1.398   .     A
C290   H317    1.082   .     S
C291   C305    1.405   .     A
C291   C299    1.445   .     S
C291   C306    1.398   .     A
C292   C304    1.405   .     A
C293   N326    1.384   .     A
C293   N327    1.426   .     S
C293   C1159   1.424   1_554 S
C294   N325    1.384   .     A
C294   N328    1.426   .     S
C294   C728    1.424   .     S
C295   N325    1.368   .     A
C295   Cl311   1.762   .     S
C295   C725    1.424   .     S
C296   N326    1.368   .     A
C296   Cl312   1.762   .     S
C296   C1158   1.424   1_554 S
C297   H321    1.110   .     S
C297   H319    1.107   .     S
C297   N327    1.451   .     S
C297   H320    1.112   .     S
C298   N328    1.451   .     S
C298   H323    1.107   .     S
C298   H316    1.112   .     S
C298   H324    1.110   .     S
C299   O332    1.299   .     A
C299   O330    1.298   .     A
C300   C302    1.437   .     S
C300   O335    1.303   .     A
C300   O333    1.290   .     A
C301   O336    1.303   .     A
C301   C303    1.437   .     S
C301   O334    1.290   .     A
C302   C399    1.361   1_455 S
C302   Cl403   1.779   1_455 S
C303   C350    1.361   .     S
C303   Cl356   1.779   .     S
C304   Cl309   1.761   .     S
C305   Cl310   1.761   .     S
C305   C2      1.386   1_565 S
C306   H315    1.082   .     S
C306   C16     1.386   1_565 S
Cl307  C350    1.779   .     S
Cl308  C399    1.779   1_455 S
Cu313  O336    1.976   .     S
Cu313  O332    1.958   .     S
Cu313  O333    1.974   .     S
Cu313  O329    1.955   .     S
Cu313  N325    2.035   .     S
Cu313  Cu314   2.708   .     S
Cu314  O335    1.976   .     S
Cu314  O331    1.958   .     S
Cu314  O330    1.955   .     S
Cu314  O334    1.974   .     S
Cu314  N326    2.035   .     S
H318   N327    1.022   .     S
H322   N328    1.022   .     S
C337   C340    1.445   .     S
C337   O379    1.299   .     A
C337   O377    1.298   .     A
C338   C340    1.398   .     A
C338   H365    1.082   .     S
C339   C353    1.405   .     A
C339   C347    1.445   .     S
C339   C354    1.398   .     A
C340   C352    1.405   .     A
C341   N374    1.384   .     A
C341   N375    1.426   .     S
C341   C1207   1.424   1_554 S
C342   N373    1.384   .     A
C342   N376    1.426   .     S
C342   C776    1.424   .     S
C343   N373    1.368   .     A
C343   Cl359   1.762   .     S
C343   C773    1.424   .     S
C344   N374    1.368   .     A
C344   Cl360   1.762   .     S
C344   C1206   1.424   1_554 S
C345   H369    1.110   .     S
C345   H367    1.107   .     S
C345   N375    1.451   .     S
C345   H368    1.112   .     S
C346   N376    1.451   .     S
C346   H371    1.107   .     S
C346   H364    1.112   .     S
C346   H372    1.110   .     S
C347   O380    1.299   .     A
C347   O378    1.298   .     A
C348   C350    1.437   .     S
C348   O383    1.303   .     A
C348   O381    1.290   .     A
C349   O384    1.303   .     A
C349   C351    1.437   .     S
C349   O382    1.290   .     A
C351   C398    1.361   .     S
C351   Cl404   1.779   .     S
C352   Cl357   1.761   .     S
C353   Cl358   1.761   .     S
C353   C50     1.386   1_565 S
C354   H363    1.082   .     S
C354   C64     1.386   1_565 S
Cl355  C398    1.779   .     S
Cu361  O384    1.976   .     S
Cu361  O380    1.958   .     S
Cu361  O381    1.974   .     S
Cu361  O377    1.955   .     S
Cu361  N373    2.035   .     S
Cu361  Cu362   2.708   .     S
Cu362  O383    1.976   .     S
Cu362  O379    1.958   .     S
Cu362  O378    1.955   .     S
Cu362  O382    1.974   .     S
Cu362  N374    2.035   .     S
H366   N375    1.022   .     S
H370   N376    1.022   .     S
C385   C388    1.445   .     S
C385   O427    1.299   .     A
C385   O425    1.298   .     A
C386   C388    1.398   .     A
C386   H413    1.082   .     S
C387   C401    1.405   .     A
C387   C395    1.445   .     S
C387   C402    1.398   .     A
C388   C400    1.405   .     A
C389   N422    1.384   .     A
C389   N423    1.426   .     S
C389   C1255   1.424   1_554 S
C390   N421    1.384   .     A
C390   N424    1.426   .     S
C390   C824    1.424   .     S
C391   N421    1.368   .     A
C391   Cl407   1.762   .     S
C391   C821    1.424   .     S
C392   N422    1.368   .     A
C392   Cl408   1.762   .     S
C392   C1254   1.424   1_554 S
C393   H417    1.110   .     S
C393   H415    1.107   .     S
C393   N423    1.451   .     S
C393   H416    1.112   .     S
C394   N424    1.451   .     S
C394   H419    1.107   .     S
C394   H412    1.112   .     S
C394   H420    1.110   .     S
C395   O428    1.299   .     A
C395   O426    1.298   .     A
C396   C398    1.437   .     S
C396   O431    1.303   .     A
C396   O429    1.290   .     A
C397   O432    1.303   .     A
C397   C399    1.437   .     S
C397   O430    1.290   .     A
C399   C302    1.361   1_655 S
C399   Cl308   1.779   1_655 S
C400   Cl405   1.761   .     S
C401   Cl406   1.761   .     S
C401   C98     1.386   1_565 S
C402   H411    1.082   .     S
C402   C112    1.386   1_565 S
Cl403  C302    1.779   1_655 S
Cu409  O432    1.976   .     S
Cu409  O428    1.958   .     S
Cu409  O429    1.974   .     S
Cu409  O425    1.955   .     S
Cu409  N421    2.035   .     S
Cu409  Cu410   2.708   .     S
Cu410  O431    1.976   .     S
Cu410  O427    1.958   .     S
Cu410  O426    1.955   .     S
Cu410  O430    1.974   .     S
Cu410  N422    2.035   .     S
H414   N423    1.022   .     S
H418   N424    1.022   .     S
C433   C436    1.445   .     S
C433   O475    1.299   .     A
C433   O473    1.298   .     A
C434   C436    1.398   .     A
C434   H461    1.082   .     S
C434   C737    1.386   1_545 S
C435   C449    1.405   .     A
C435   C443    1.445   .     S
C435   C450    1.398   .     A
C436   C448    1.405   .     A
C437   N470    1.384   .     A
C437   N471    1.426   .     S
C438   N469    1.384   .     A
C438   N472    1.426   .     S
C438   C872    1.424   .     S
C439   N469    1.368   .     A
C439   Cl455   1.762   .     S
C439   C869    1.424   .     S
C440   N470    1.368   .     A
C440   Cl456   1.762   .     S
C441   H465    1.110   .     S
C441   H463    1.107   .     S
C441   N471    1.451   .     S
C441   H464    1.112   .     S
C442   N472    1.451   .     S
C442   H467    1.107   .     S
C442   H460    1.112   .     S
C442   H468    1.110   .     S
C443   O476    1.299   .     A
C443   O474    1.298   .     A
C444   C446    1.437   .     S
C444   O479    1.303   .     A
C444   O477    1.290   .     A
C445   O480    1.303   .     A
C445   C447    1.437   .     S
C445   O478    1.290   .     A
C446   C543    1.361   1_455 S
C446   Cl547   1.779   1_455 S
C447   C494    1.361   .     S
C447   Cl500   1.779   .     S
C448   Cl453   1.761   .     S
C448   C738    1.386   1_545 S
C449   Cl454   1.761   .     S
C449   C578    1.386   .     S
C450   H459    1.082   .     S
C450   C592    1.386   .     S
Cl451  C494    1.779   .     S
Cl452  C543    1.779   1_455 S
Cu457  O480    1.976   .     S
Cu457  O476    1.958   .     S
Cu457  O477    1.974   .     S
Cu457  O473    1.955   .     S
Cu457  N469    2.035   .     S
Cu457  Cu458   2.708   .     S
Cu458  O479    1.976   .     S
Cu458  O475    1.958   .     S
Cu458  O474    1.955   .     S
Cu458  O478    1.974   .     S
Cu458  N470    2.035   .     S
H462   N471    1.022   .     S
H466   N472    1.022   .     S
C481   C484    1.445   .     S
C481   O523    1.299   .     A
C481   O521    1.298   .     A
C482   C484    1.398   .     A
C482   H509    1.082   .     S
C482   C785    1.386   1_545 S
C483   C497    1.405   .     A
C483   C491    1.445   .     S
C483   C498    1.398   .     A
C484   C496    1.405   .     A
C485   N518    1.384   .     A
C485   N519    1.426   .     S
C486   N517    1.384   .     A
C486   N520    1.426   .     S
C486   C920    1.424   .     S
C487   N517    1.368   .     A
C487   Cl503   1.762   .     S
C487   C917    1.424   .     S
C488   N518    1.368   .     A
C488   Cl504   1.762   .     S
C489   H513    1.110   .     S
C489   H511    1.107   .     S
C489   N519    1.451   .     S
C489   H512    1.112   .     S
C490   N520    1.451   .     S
C490   H515    1.107   .     S
C490   H508    1.112   .     S
C490   H516    1.110   .     S
C491   O524    1.299   .     A
C491   O522    1.298   .     A
C492   C494    1.437   .     S
C492   O527    1.303   .     A
C492   O525    1.290   .     A
C493   O528    1.303   .     A
C493   C495    1.437   .     S
C493   O526    1.290   .     A
C495   C542    1.361   .     S
C495   Cl548   1.779   .     S
C496   Cl501   1.761   .     S
C496   C786    1.386   1_545 S
C497   Cl502   1.761   .     S
C497   C626    1.386   .     S
C498   H507    1.082   .     S
C498   C640    1.386   .     S
Cl499  C542    1.779   .     S
Cu505  O528    1.976   .     S
Cu505  O524    1.958   .     S
Cu505  O525    1.974   .     S
Cu505  O521    1.955   .     S
Cu505  N517    2.035   .     S
Cu505  Cu506   2.708   .     S
Cu506  O527    1.976   .     S
Cu506  O523    1.958   .     S
Cu506  O522    1.955   .     S
Cu506  O526    1.974   .     S
Cu506  N518    2.035   .     S
H510   N519    1.022   .     S
H514   N520    1.022   .     S
C529   C532    1.445   .     S
C529   O571    1.299   .     A
C529   O569    1.298   .     A
C530   C532    1.398   .     A
C530   H557    1.082   .     S
C530   C833    1.386   1_545 S
C531   C545    1.405   .     A
C531   C539    1.445   .     S
C531   C546    1.398   .     A
C532   C544    1.405   .     A
C533   N566    1.384   .     A
C533   N567    1.426   .     S
C534   N565    1.384   .     A
C534   N568    1.426   .     S
C534   C968    1.424   .     S
C535   N565    1.368   .     A
C535   Cl551   1.762   .     S
C535   C965    1.424   .     S
C536   N566    1.368   .     A
C536   Cl552   1.762   .     S
C537   H561    1.110   .     S
C537   H559    1.107   .     S
C537   N567    1.451   .     S
C537   H560    1.112   .     S
C538   N568    1.451   .     S
C538   H563    1.107   .     S
C538   H556    1.112   .     S
C538   H564    1.110   .     S
C539   O572    1.299   .     A
C539   O570    1.298   .     A
C540   C542    1.437   .     S
C540   O575    1.303   .     A
C540   O573    1.290   .     A
C541   O576    1.303   .     A
C541   C543    1.437   .     S
C541   O574    1.290   .     A
C543   C446    1.361   1_655 S
C543   Cl452   1.779   1_655 S
C544   Cl549   1.761   .     S
C544   C834    1.386   1_545 S
C545   Cl550   1.761   .     S
C545   C674    1.386   .     S
C546   H555    1.082   .     S
C546   C688    1.386   .     S
Cl547  C446    1.779   1_655 S
Cu553  O576    1.976   .     S
Cu553  O572    1.958   .     S
Cu553  O573    1.974   .     S
Cu553  O569    1.955   .     S
Cu553  N565    2.035   .     S
Cu553  Cu554   2.708   .     S
Cu554  O575    1.976   .     S
Cu554  O571    1.958   .     S
Cu554  O570    1.955   .     S
Cu554  O574    1.974   .     S
Cu554  N566    2.035   .     S
H558   N567    1.022   .     S
H562   N568    1.022   .     S
C577   C580    1.445   .     S
C577   O619    1.299   .     A
C577   O617    1.298   .     A
C578   C580    1.398   .     A
C578   H605    1.082   .     S
C579   C593    1.405   .     A
C579   C587    1.445   .     S
C579   C594    1.398   .     A
C580   C592    1.405   .     A
C581   N614    1.384   .     A
C581   N615    1.426   .     S
C582   N613    1.384   .     A
C582   N616    1.426   .     S
C582   C1016   1.424   .     S
C583   N613    1.368   .     A
C583   Cl599   1.762   .     S
C583   C1013   1.424   .     S
C584   N614    1.368   .     A
C584   Cl600   1.762   .     S
C585   H609    1.110   .     S
C585   H607    1.107   .     S
C585   N615    1.451   .     S
C585   H608    1.112   .     S
C586   N616    1.451   .     S
C586   H611    1.107   .     S
C586   H604    1.112   .     S
C586   H612    1.110   .     S
C587   O620    1.299   .     A
C587   O618    1.298   .     A
C588   C590    1.437   .     S
C588   O623    1.303   .     A
C588   O621    1.290   .     A
C589   O624    1.303   .     A
C589   C591    1.437   .     S
C589   O622    1.290   .     A
C590   C687    1.361   1_455 S
C590   Cl691   1.779   1_455 S
C591   C638    1.361   .     S
C591   Cl644   1.779   .     S
C592   Cl597   1.761   .     S
C593   Cl598   1.761   .     S
C593   C722    1.386   .     S
C594   H603    1.082   .     S
C594   C736    1.386   .     S
Cl595  C638    1.779   .     S
Cl596  C687    1.779   1_455 S
Cu601  O624    1.976   .     S
Cu601  O620    1.958   .     S
Cu601  O621    1.974   .     S
Cu601  O617    1.955   .     S
Cu601  N613    2.035   .     S
Cu601  Cu602   2.708   .     S
Cu602  O623    1.976   .     S
Cu602  O619    1.958   .     S
Cu602  O618    1.955   .     S
Cu602  O622    1.974   .     S
Cu602  N614    2.035   .     S
H606   N615    1.022   .     S
H610   N616    1.022   .     S
C625   C628    1.445   .     S
C625   O667    1.299   .     A
C625   O665    1.298   .     A
C626   C628    1.398   .     A
C626   H653    1.082   .     S
C627   C641    1.405   .     A
C627   C635    1.445   .     S
C627   C642    1.398   .     A
C628   C640    1.405   .     A
C629   N662    1.384   .     A
C629   N663    1.426   .     S
C630   N661    1.384   .     A
C630   N664    1.426   .     S
C630   C1064   1.424   .     S
C631   N661    1.368   .     A
C631   Cl647   1.762   .     S
C631   C1061   1.424   .     S
C632   N662    1.368   .     A
C632   Cl648   1.762   .     S
C633   H657    1.110   .     S
C633   H655    1.107   .     S
C633   N663    1.451   .     S
C633   H656    1.112   .     S
C634   N664    1.451   .     S
C634   H659    1.107   .     S
C634   H652    1.112   .     S
C634   H660    1.110   .     S
C635   O668    1.299   .     A
C635   O666    1.298   .     A
C636   C638    1.437   .     S
C636   O671    1.303   .     A
C636   O669    1.290   .     A
C637   O672    1.303   .     A
C637   C639    1.437   .     S
C637   O670    1.290   .     A
C639   C686    1.361   .     S
C639   Cl692   1.779   .     S
C640   Cl645   1.761   .     S
C641   Cl646   1.761   .     S
C641   C770    1.386   .     S
C642   H651    1.082   .     S
C642   C784    1.386   .     S
Cl643  C686    1.779   .     S
Cu649  O672    1.976   .     S
Cu649  O668    1.958   .     S
Cu649  O669    1.974   .     S
Cu649  O665    1.955   .     S
Cu649  N661    2.035   .     S
Cu649  Cu650   2.708   .     S
Cu650  O671    1.976   .     S
Cu650  O667    1.958   .     S
Cu650  O666    1.955   .     S
Cu650  O670    1.974   .     S
Cu650  N662    2.035   .     S
H654   N663    1.022   .     S
H658   N664    1.022   .     S
C673   C676    1.445   .     S
C673   O715    1.299   .     A
C673   O713    1.298   .     A
C674   C676    1.398   .     A
C674   H701    1.082   .     S
C675   C689    1.405   .     A
C675   C683    1.445   .     S
C675   C690    1.398   .     A
C676   C688    1.405   .     A
C677   N710    1.384   .     A
C677   N711    1.426   .     S
C678   N709    1.384   .     A
C678   N712    1.426   .     S
C678   C1112   1.424   .     S
C679   N709    1.368   .     A
C679   Cl695   1.762   .     S
C679   C1109   1.424   .     S
C680   N710    1.368   .     A
C680   Cl696   1.762   .     S
C681   H705    1.110   .     S
C681   H703    1.107   .     S
C681   N711    1.451   .     S
C681   H704    1.112   .     S
C682   N712    1.451   .     S
C682   H707    1.107   .     S
C682   H700    1.112   .     S
C682   H708    1.110   .     S
C683   O716    1.299   .     A
C683   O714    1.298   .     A
C684   C686    1.437   .     S
C684   O719    1.303   .     A
C684   O717    1.290   .     A
C685   O720    1.303   .     A
C685   C687    1.437   .     S
C685   O718    1.290   .     A
C687   C590    1.361   1_655 S
C687   Cl596   1.779   1_655 S
C688   Cl693   1.761   .     S
C689   Cl694   1.761   .     S
C689   C818    1.386   .     S
C690   H699    1.082   .     S
C690   C832    1.386   .     S
Cl691  C590    1.779   1_655 S
Cu697  O720    1.976   .     S
Cu697  O716    1.958   .     S
Cu697  O717    1.974   .     S
Cu697  O713    1.955   .     S
Cu697  N709    2.035   .     S
Cu697  Cu698   2.708   .     S
Cu698  O719    1.976   .     S
Cu698  O715    1.958   .     S
Cu698  O714    1.955   .     S
Cu698  O718    1.974   .     S
Cu698  N710    2.035   .     S
H702   N711    1.022   .     S
H706   N712    1.022   .     S
C721   C724    1.445   .     S
C721   O763    1.299   .     A
C721   O761    1.298   .     A
C722   C724    1.398   .     A
C722   H749    1.082   .     S
C723   C737    1.405   .     A
C723   C731    1.445   .     S
C723   C738    1.398   .     A
C724   C736    1.405   .     A
C725   N758    1.384   .     A
C725   N759    1.426   .     S
C726   N757    1.384   .     A
C726   N760    1.426   .     S
C726   C1160   1.424   .     S
C727   N757    1.368   .     A
C727   Cl743   1.762   .     S
C727   C1157   1.424   .     S
C728   N758    1.368   .     A
C728   Cl744   1.762   .     S
C729   H753    1.110   .     S
C729   H751    1.107   .     S
C729   N759    1.451   .     S
C729   H752    1.112   .     S
C730   N760    1.451   .     S
C730   H755    1.107   .     S
C730   H748    1.112   .     S
C730   H756    1.110   .     S
C731   O764    1.299   .     A
C731   O762    1.298   .     A
C732   C734    1.437   .     S
C732   O767    1.303   .     A
C732   O765    1.290   .     A
C733   O768    1.303   .     A
C733   C735    1.437   .     S
C733   O766    1.290   .     A
C734   C831    1.361   1_455 S
C734   Cl835   1.779   1_455 S
C735   C782    1.361   .     S
C735   Cl788   1.779   .     S
C736   Cl741   1.761   .     S
C737   Cl742   1.761   .     S
C737   C434    1.386   1_565 S
C738   H747    1.082   .     S
C738   C448    1.386   1_565 S
Cl739  C782    1.779   .     S
Cl740  C831    1.779   1_455 S
Cu745  O768    1.976   .     S
Cu745  O764    1.958   .     S
Cu745  O765    1.974   .     S
Cu745  O761    1.955   .     S
Cu745  N757    2.035   .     S
Cu745  Cu746   2.708   .     S
Cu746  O767    1.976   .     S
Cu746  O763    1.958   .     S
Cu746  O762    1.955   .     S
Cu746  O766    1.974   .     S
Cu746  N758    2.035   .     S
H750   N759    1.022   .     S
H754   N760    1.022   .     S
C769   C772    1.445   .     S
C769   O811    1.299   .     A
C769   O809    1.298   .     A
C770   C772    1.398   .     A
C770   H797    1.082   .     S
C771   C785    1.405   .     A
C771   C779    1.445   .     S
C771   C786    1.398   .     A
C772   C784    1.405   .     A
C773   N806    1.384   .     A
C773   N807    1.426   .     S
C774   N805    1.384   .     A
C774   N808    1.426   .     S
C774   C1208   1.424   .     S
C775   N805    1.368   .     A
C775   Cl791   1.762   .     S
C775   C1205   1.424   .     S
C776   N806    1.368   .     A
C776   Cl792   1.762   .     S
C777   H801    1.110   .     S
C777   H799    1.107   .     S
C777   N807    1.451   .     S
C777   H800    1.112   .     S
C778   N808    1.451   .     S
C778   H803    1.107   .     S
C778   H796    1.112   .     S
C778   H804    1.110   .     S
C779   O812    1.299   .     A
C779   O810    1.298   .     A
C780   C782    1.437   .     S
C780   O815    1.303   .     A
C780   O813    1.290   .     A
C781   O816    1.303   .     A
C781   C783    1.437   .     S
C781   O814    1.290   .     A
C783   C830    1.361   .     S
C783   Cl836   1.779   .     S
C784   Cl789   1.761   .     S
C785   Cl790   1.761   .     S
C785   C482    1.386   1_565 S
C786   H795    1.082   .     S
C786   C496    1.386   1_565 S
Cl787  C830    1.779   .     S
Cu793  O816    1.976   .     S
Cu793  O812    1.958   .     S
Cu793  O813    1.974   .     S
Cu793  O809    1.955   .     S
Cu793  N805    2.035   .     S
Cu793  Cu794   2.708   .     S
Cu794  O815    1.976   .     S
Cu794  O811    1.958   .     S
Cu794  O810    1.955   .     S
Cu794  O814    1.974   .     S
Cu794  N806    2.035   .     S
H798   N807    1.022   .     S
H802   N808    1.022   .     S
C817   C820    1.445   .     S
C817   O859    1.299   .     A
C817   O857    1.298   .     A
C818   C820    1.398   .     A
C818   H845    1.082   .     S
C819   C833    1.405   .     A
C819   C827    1.445   .     S
C819   C834    1.398   .     A
C820   C832    1.405   .     A
C821   N854    1.384   .     A
C821   N855    1.426   .     S
C822   N853    1.384   .     A
C822   N856    1.426   .     S
C822   C1256   1.424   .     S
C823   N853    1.368   .     A
C823   Cl839   1.762   .     S
C823   C1253   1.424   .     S
C824   N854    1.368   .     A
C824   Cl840   1.762   .     S
C825   H849    1.110   .     S
C825   H847    1.107   .     S
C825   N855    1.451   .     S
C825   H848    1.112   .     S
C826   N856    1.451   .     S
C826   H851    1.107   .     S
C826   H844    1.112   .     S
C826   H852    1.110   .     S
C827   O860    1.299   .     A
C827   O858    1.298   .     A
C828   C830    1.437   .     S
C828   O863    1.303   .     A
C828   O861    1.290   .     A
C829   O864    1.303   .     A
C829   C831    1.437   .     S
C829   O862    1.290   .     A
C831   C734    1.361   1_655 S
C831   Cl740   1.779   1_655 S
C832   Cl837   1.761   .     S
C833   Cl838   1.761   .     S
C833   C530    1.386   1_565 S
C834   H843    1.082   .     S
C834   C544    1.386   1_565 S
Cl835  C734    1.779   1_655 S
Cu841  O864    1.976   .     S
Cu841  O860    1.958   .     S
Cu841  O861    1.974   .     S
Cu841  O857    1.955   .     S
Cu841  N853    2.035   .     S
Cu841  Cu842   2.708   .     S
Cu842  O863    1.976   .     S
Cu842  O859    1.958   .     S
Cu842  O858    1.955   .     S
Cu842  O862    1.974   .     S
Cu842  N854    2.035   .     S
H846   N855    1.022   .     S
H850   N856    1.022   .     S
C865   C868    1.445   .     S
C865   O907    1.299   .     A
C865   O905    1.298   .     A
C866   C868    1.398   .     A
C866   H893    1.082   .     S
C866   C1169   1.386   1_545 S
C867   C881    1.405   .     A
C867   C875    1.445   .     S
C867   C882    1.398   .     A
C868   C880    1.405   .     A
C869   N902    1.384   .     A
C869   N903    1.426   .     S
C870   N901    1.384   .     A
C870   N904    1.426   .     S
C870   C8      1.424   1_556 S
C871   N901    1.368   .     A
C871   Cl887   1.762   .     S
C871   C5      1.424   1_556 S
C872   N902    1.368   .     A
C872   Cl888   1.762   .     S
C873   H897    1.110   .     S
C873   H895    1.107   .     S
C873   N903    1.451   .     S
C873   H896    1.112   .     S
C874   N904    1.451   .     S
C874   H899    1.107   .     S
C874   H892    1.112   .     S
C874   H900    1.110   .     S
C875   O908    1.299   .     A
C875   O906    1.298   .     A
C876   C878    1.437   .     S
C876   O911    1.303   .     A
C876   O909    1.290   .     A
C877   O912    1.303   .     A
C877   C879    1.437   .     S
C877   O910    1.290   .     A
C878   C975    1.361   1_455 S
C878   Cl979   1.779   1_455 S
C879   C926    1.361   .     S
C879   Cl932   1.779   .     S
C880   Cl885   1.761   .     S
C880   C1170   1.386   1_545 S
C881   Cl886   1.761   .     S
C881   C1010   1.386   .     S
C882   H891    1.082   .     S
C882   C1024   1.386   .     S
Cl883  C926    1.779   .     S
Cl884  C975    1.779   1_455 S
Cu889  O912    1.976   .     S
Cu889  O908    1.958   .     S
Cu889  O909    1.974   .     S
Cu889  O905    1.955   .     S
Cu889  N901    2.035   .     S
Cu889  Cu890   2.708   .     S
Cu890  O911    1.976   .     S
Cu890  O907    1.958   .     S
Cu890  O906    1.955   .     S
Cu890  O910    1.974   .     S
Cu890  N902    2.035   .     S
H894   N903    1.022   .     S
H898   N904    1.022   .     S
C913   C916    1.445   .     S
C913   O955    1.299   .     A
C913   O953    1.298   .     A
C914   C916    1.398   .     A
C914   H941    1.082   .     S
C914   C1217   1.386   1_545 S
C915   C929    1.405   .     A
C915   C923    1.445   .     S
C915   C930    1.398   .     A
C916   C928    1.405   .     A
C917   N950    1.384   .     A
C917   N951    1.426   .     S
C918   N949    1.384   .     A
C918   N952    1.426   .     S
C918   C56     1.424   1_556 S
C919   N949    1.368   .     A
C919   Cl935   1.762   .     S
C919   C53     1.424   1_556 S
C920   N950    1.368   .     A
C920   Cl936   1.762   .     S
C921   H945    1.110   .     S
C921   H943    1.107   .     S
C921   N951    1.451   .     S
C921   H944    1.112   .     S
C922   N952    1.451   .     S
C922   H947    1.107   .     S
C922   H940    1.112   .     S
C922   H948    1.110   .     S
C923   O956    1.299   .     A
C923   O954    1.298   .     A
C924   C926    1.437   .     S
C924   O959    1.303   .     A
C924   O957    1.290   .     A
C925   O960    1.303   .     A
C925   C927    1.437   .     S
C925   O958    1.290   .     A
C927   C974    1.361   .     S
C927   Cl980   1.779   .     S
C928   Cl933   1.761   .     S
C928   C1218   1.386   1_545 S
C929   Cl934   1.761   .     S
C929   C1058   1.386   .     S
C930   H939    1.082   .     S
C930   C1072   1.386   .     S
Cl931  C974    1.779   .     S
Cu937  O960    1.976   .     S
Cu937  O956    1.958   .     S
Cu937  O957    1.974   .     S
Cu937  O953    1.955   .     S
Cu937  N949    2.035   .     S
Cu937  Cu938   2.708   .     S
Cu938  O959    1.976   .     S
Cu938  O955    1.958   .     S
Cu938  O954    1.955   .     S
Cu938  O958    1.974   .     S
Cu938  N950    2.035   .     S
H942   N951    1.022   .     S
H946   N952    1.022   .     S
C961   C964    1.445   .     S
C961   O1003   1.299   .     A
C961   O1001   1.298   .     A
C962   C964    1.398   .     A
C962   H989    1.082   .     S
C962   C1265   1.386   1_545 S
C963   C977    1.405   .     A
C963   C971    1.445   .     S
C963   C978    1.398   .     A
C964   C976    1.405   .     A
C965   N998    1.384   .     A
C965   N999    1.426   .     S
C966   N997    1.384   .     A
C966   N1000   1.426   .     S
C966   C104    1.424   1_556 S
C967   N997    1.368   .     A
C967   Cl983   1.762   .     S
C967   C101    1.424   1_556 S
C968   N998    1.368   .     A
C968   Cl984   1.762   .     S
C969   H993    1.110   .     S
C969   H991    1.107   .     S
C969   N999    1.451   .     S
C969   H992    1.112   .     S
C970   N1000   1.451   .     S
C970   H995    1.107   .     S
C970   H988    1.112   .     S
C970   H996    1.110   .     S
C971   O1004   1.299   .     A
C971   O1002   1.298   .     A
C972   C974    1.437   .     S
C972   O1007   1.303   .     A
C972   O1005   1.290   .     A
C973   O1008   1.303   .     A
C973   C975    1.437   .     S
C973   O1006   1.290   .     A
C975   C878    1.361   1_655 S
C975   Cl884   1.779   1_655 S
C976   Cl981   1.761   .     S
C976   C1266   1.386   1_545 S
C977   Cl982   1.761   .     S
C977   C1106   1.386   .     S
C978   H987    1.082   .     S
C978   C1120   1.386   .     S
Cl979  C878    1.779   1_655 S
Cu985  O1008   1.976   .     S
Cu985  O1004   1.958   .     S
Cu985  O1005   1.974   .     S
Cu985  O1001   1.955   .     S
Cu985  N997    2.035   .     S
Cu985  Cu986   2.708   .     S
Cu986  O1007   1.976   .     S
Cu986  O1003   1.958   .     S
Cu986  O1002   1.955   .     S
Cu986  O1006   1.974   .     S
Cu986  N998    2.035   .     S
H990   N999    1.022   .     S
H994   N1000   1.022   .     S
C1009  C1012   1.445   .     S
C1009  O1051   1.299   .     A
C1009  O1049   1.298   .     A
C1010  C1012   1.398   .     A
C1010  H1037   1.082   .     S
C1011  C1025   1.405   .     A
C1011  C1019   1.445   .     S
C1011  C1026   1.398   .     A
C1012  C1024   1.405   .     A
C1013  N1046   1.384   .     A
C1013  N1047   1.426   .     S
C1014  N1045   1.384   .     A
C1014  N1048   1.426   .     S
C1014  C152    1.424   1_556 S
C1015  N1045   1.368   .     A
C1015  Cl1031  1.762   .     S
C1015  C149    1.424   1_556 S
C1016  N1046   1.368   .     A
C1016  Cl1032  1.762   .     S
C1017  H1041   1.110   .     S
C1017  H1039   1.107   .     S
C1017  N1047   1.451   .     S
C1017  H1040   1.112   .     S
C1018  N1048   1.451   .     S
C1018  H1043   1.107   .     S
C1018  H1036   1.112   .     S
C1018  H1044   1.110   .     S
C1019  O1052   1.299   .     A
C1019  O1050   1.298   .     A
C1020  C1022   1.437   .     S
C1020  O1055   1.303   .     A
C1020  O1053   1.290   .     A
C1021  O1056   1.303   .     A
C1021  C1023   1.437   .     S
C1021  O1054   1.290   .     A
C1022  C1119   1.361   1_455 S
C1022  Cl1123  1.779   1_455 S
C1023  C1070   1.361   .     S
C1023  Cl1076  1.779   .     S
C1024  Cl1029  1.761   .     S
C1025  Cl1030  1.761   .     S
C1025  C1154   1.386   .     S
C1026  H1035   1.082   .     S
C1026  C1168   1.386   .     S
Cl1027 C1070   1.779   .     S
Cl1028 C1119   1.779   1_455 S
Cu1033 O1056   1.976   .     S
Cu1033 O1052   1.958   .     S
Cu1033 O1053   1.974   .     S
Cu1033 O1049   1.955   .     S
Cu1033 N1045   2.035   .     S
Cu1033 Cu1034  2.708   .     S
Cu1034 O1055   1.976   .     S
Cu1034 O1051   1.958   .     S
Cu1034 O1050   1.955   .     S
Cu1034 O1054   1.974   .     S
Cu1034 N1046   2.035   .     S
H1038  N1047   1.022   .     S
H1042  N1048   1.022   .     S
C1057  C1060   1.445   .     S
C1057  O1099   1.299   .     A
C1057  O1097   1.298   .     A
C1058  C1060   1.398   .     A
C1058  H1085   1.082   .     S
C1059  C1073   1.405   .     A
C1059  C1067   1.445   .     S
C1059  C1074   1.398   .     A
C1060  C1072   1.405   .     A
C1061  N1094   1.384   .     A
C1061  N1095   1.426   .     S
C1062  N1093   1.384   .     A
C1062  N1096   1.426   .     S
C1062  C200    1.424   1_556 S
C1063  N1093   1.368   .     A
C1063  Cl1079  1.762   .     S
C1063  C197    1.424   1_556 S
C1064  N1094   1.368   .     A
C1064  Cl1080  1.762   .     S
C1065  H1089   1.110   .     S
C1065  H1087   1.107   .     S
C1065  N1095   1.451   .     S
C1065  H1088   1.112   .     S
C1066  N1096   1.451   .     S
C1066  H1091   1.107   .     S
C1066  H1084   1.112   .     S
C1066  H1092   1.110   .     S
C1067  O1100   1.299   .     A
C1067  O1098   1.298   .     A
C1068  C1070   1.437   .     S
C1068  O1103   1.303   .     A
C1068  O1101   1.290   .     A
C1069  O1104   1.303   .     A
C1069  C1071   1.437   .     S
C1069  O1102   1.290   .     A
C1071  C1118   1.361   .     S
C1071  Cl1124  1.779   .     S
C1072  Cl1077  1.761   .     S
C1073  Cl1078  1.761   .     S
C1073  C1202   1.386   .     S
C1074  H1083   1.082   .     S
C1074  C1216   1.386   .     S
Cl1075 C1118   1.779   .     S
Cu1081 O1104   1.976   .     S
Cu1081 O1100   1.958   .     S
Cu1081 O1101   1.974   .     S
Cu1081 O1097   1.955   .     S
Cu1081 N1093   2.035   .     S
Cu1081 Cu1082  2.708   .     S
Cu1082 O1103   1.976   .     S
Cu1082 O1099   1.958   .     S
Cu1082 O1098   1.955   .     S
Cu1082 O1102   1.974   .     S
Cu1082 N1094   2.035   .     S
H1086  N1095   1.022   .     S
H1090  N1096   1.022   .     S
C1105  C1108   1.445   .     S
C1105  O1147   1.299   .     A
C1105  O1145   1.298   .     A
C1106  C1108   1.398   .     A
C1106  H1133   1.082   .     S
C1107  C1121   1.405   .     A
C1107  C1115   1.445   .     S
C1107  C1122   1.398   .     A
C1108  C1120   1.405   .     A
C1109  N1142   1.384   .     A
C1109  N1143   1.426   .     S
C1110  N1141   1.384   .     A
C1110  N1144   1.426   .     S
C1110  C248    1.424   1_556 S
C1111  N1141   1.368   .     A
C1111  Cl1127  1.762   .     S
C1111  C245    1.424   1_556 S
C1112  N1142   1.368   .     A
C1112  Cl1128  1.762   .     S
C1113  H1137   1.110   .     S
C1113  H1135   1.107   .     S
C1113  N1143   1.451   .     S
C1113  H1136   1.112   .     S
C1114  N1144   1.451   .     S
C1114  H1139   1.107   .     S
C1114  H1132   1.112   .     S
C1114  H1140   1.110   .     S
C1115  O1148   1.299   .     A
C1115  O1146   1.298   .     A
C1116  C1118   1.437   .     S
C1116  O1151   1.303   .     A
C1116  O1149   1.290   .     A
C1117  O1152   1.303   .     A
C1117  C1119   1.437   .     S
C1117  O1150   1.290   .     A
C1119  C1022   1.361   1_655 S
C1119  Cl1028  1.779   1_655 S
C1120  Cl1125  1.761   .     S
C1121  Cl1126  1.761   .     S
C1121  C1250   1.386   .     S
C1122  H1131   1.082   .     S
C1122  C1264   1.386   .     S
Cl1123 C1022   1.779   1_655 S
Cu1129 O1152   1.976   .     S
Cu1129 O1148   1.958   .     S
Cu1129 O1149   1.974   .     S
Cu1129 O1145   1.955   .     S
Cu1129 N1141   2.035   .     S
Cu1129 Cu1130  2.708   .     S
Cu1130 O1151   1.976   .     S
Cu1130 O1147   1.958   .     S
Cu1130 O1146   1.955   .     S
Cu1130 O1150   1.974   .     S
Cu1130 N1142   2.035   .     S
H1134  N1143   1.022   .     S
H1138  N1144   1.022   .     S
C1153  C1156   1.445   .     S
C1153  O1195   1.299   .     A
C1153  O1193   1.298   .     A
C1154  C1156   1.398   .     A
C1154  H1181   1.082   .     S
C1155  C1169   1.405   .     A
C1155  C1163   1.445   .     S
C1155  C1170   1.398   .     A
C1156  C1168   1.405   .     A
C1157  N1190   1.384   .     A
C1157  N1191   1.426   .     S
C1158  N1189   1.384   .     A
C1158  N1192   1.426   .     S
C1158  C296    1.424   1_556 S
C1159  N1189   1.368   .     A
C1159  Cl1175  1.762   .     S
C1159  C293    1.424   1_556 S
C1160  N1190   1.368   .     A
C1160  Cl1176  1.762   .     S
C1161  H1185   1.110   .     S
C1161  H1183   1.107   .     S
C1161  N1191   1.451   .     S
C1161  H1184   1.112   .     S
C1162  N1192   1.451   .     S
C1162  H1187   1.107   .     S
C1162  H1180   1.112   .     S
C1162  H1188   1.110   .     S
C1163  O1196   1.299   .     A
C1163  O1194   1.298   .     A
C1164  C1166   1.437   .     S
C1164  O1199   1.303   .     A
C1164  O1197   1.290   .     A
C1165  O1200   1.303   .     A
C1165  C1167   1.437   .     S
C1165  O1198   1.290   .     A
C1166  C1263   1.361   1_455 S
C1166  Cl1267  1.779   1_455 S
C1167  C1214   1.361   .     S
C1167  Cl1220  1.779   .     S
C1168  Cl1173  1.761   .     S
C1169  Cl1174  1.761   .     S
C1169  C866    1.386   1_565 S
C1170  H1179   1.082   .     S
C1170  C880    1.386   1_565 S
Cl1171 C1214   1.779   .     S
Cl1172 C1263   1.779   1_455 S
Cu1177 O1200   1.976   .     S
Cu1177 O1196   1.958   .     S
Cu1177 O1197   1.974   .     S
Cu1177 O1193   1.955   .     S
Cu1177 N1189   2.035   .     S
Cu1177 Cu1178  2.708   .     S
Cu1178 O1199   1.976   .     S
Cu1178 O1195   1.958   .     S
Cu1178 O1194   1.955   .     S
Cu1178 O1198   1.974   .     S
Cu1178 N1190   2.035   .     S
H1182  N1191   1.022   .     S
H1186  N1192   1.022   .     S
C1201  C1204   1.445   .     S
C1201  O1243   1.299   .     A
C1201  O1241   1.298   .     A
C1202  C1204   1.398   .     A
C1202  H1229   1.082   .     S
C1203  C1217   1.405   .     A
C1203  C1211   1.445   .     S
C1203  C1218   1.398   .     A
C1204  C1216   1.405   .     A
C1205  N1238   1.384   .     A
C1205  N1239   1.426   .     S
C1206  N1237   1.384   .     A
C1206  N1240   1.426   .     S
C1206  C344    1.424   1_556 S
C1207  N1237   1.368   .     A
C1207  Cl1223  1.762   .     S
C1207  C341    1.424   1_556 S
C1208  N1238   1.368   .     A
C1208  Cl1224  1.762   .     S
C1209  H1233   1.110   .     S
C1209  H1231   1.107   .     S
C1209  N1239   1.451   .     S
C1209  H1232   1.112   .     S
C1210  N1240   1.451   .     S
C1210  H1235   1.107   .     S
C1210  H1228   1.112   .     S
C1210  H1236   1.110   .     S
C1211  O1244   1.299   .     A
C1211  O1242   1.298   .     A
C1212  C1214   1.437   .     S
C1212  O1247   1.303   .     A
C1212  O1245   1.290   .     A
C1213  O1248   1.303   .     A
C1213  C1215   1.437   .     S
C1213  O1246   1.290   .     A
C1215  C1262   1.361   .     S
C1215  Cl1268  1.779   .     S
C1216  Cl1221  1.761   .     S
C1217  Cl1222  1.761   .     S
C1217  C914    1.386   1_565 S
C1218  H1227   1.082   .     S
C1218  C928    1.386   1_565 S
Cl1219 C1262   1.779   .     S
Cu1225 O1248   1.976   .     S
Cu1225 O1244   1.958   .     S
Cu1225 O1245   1.974   .     S
Cu1225 O1241   1.955   .     S
Cu1225 N1237   2.035   .     S
Cu1225 Cu1226  2.708   .     S
Cu1226 O1247   1.976   .     S
Cu1226 O1243   1.958   .     S
Cu1226 O1242   1.955   .     S
Cu1226 O1246   1.974   .     S
Cu1226 N1238   2.035   .     S
H1230  N1239   1.022   .     S
H1234  N1240   1.022   .     S
C1249  C1252   1.445   .     S
C1249  O1291   1.299   .     A
C1249  O1289   1.298   .     A
C1250  C1252   1.398   .     A
C1250  H1277   1.082   .     S
C1251  C1265   1.405   .     A
C1251  C1259   1.445   .     S
C1251  C1266   1.398   .     A
C1252  C1264   1.405   .     A
C1253  N1286   1.384   .     A
C1253  N1287   1.426   .     S
C1254  N1285   1.384   .     A
C1254  N1288   1.426   .     S
C1254  C392    1.424   1_556 S
C1255  N1285   1.368   .     A
C1255  Cl1271  1.762   .     S
C1255  C389    1.424   1_556 S
C1256  N1286   1.368   .     A
C1256  Cl1272  1.762   .     S
C1257  H1281   1.110   .     S
C1257  H1279   1.107   .     S
C1257  N1287   1.451   .     S
C1257  H1280   1.112   .     S
C1258  N1288   1.451   .     S
C1258  H1283   1.107   .     S
C1258  H1276   1.112   .     S
C1258  H1284   1.110   .     S
C1259  O1292   1.299   .     A
C1259  O1290   1.298   .     A
C1260  C1262   1.437   .     S
C1260  O1295   1.303   .     A
C1260  O1293   1.290   .     A
C1261  O1296   1.303   .     A
C1261  C1263   1.437   .     S
C1261  O1294   1.290   .     A
C1263  C1166   1.361   1_655 S
C1263  Cl1172  1.779   1_655 S
C1264  Cl1269  1.761   .     S
C1265  Cl1270  1.761   .     S
C1265  C962    1.386   1_565 S
C1266  H1275   1.082   .     S
C1266  C976    1.386   1_565 S
Cl1267 C1166   1.779   1_655 S
Cu1273 O1296   1.976   .     S
Cu1273 O1292   1.958   .     S
Cu1273 O1293   1.974   .     S
Cu1273 O1289   1.955   .     S
Cu1273 N1285   2.035   .     S
Cu1273 Cu1274  2.708   .     S
Cu1274 O1295   1.976   .     S
Cu1274 O1291   1.958   .     S
Cu1274 O1290   1.955   .     S
Cu1274 O1294   1.974   .     S
Cu1274 N1286   2.035   .     S
H1278  N1287   1.022   .     S
H1282  N1288   1.022   .     S
