data_str_m3_o1_o2_pcu_sym.103
_audit_creation_date              2020-01-03
_audit_creation_method            'Materials Studio'
_symmetry_space_group_name_H-M    'P1'
_symmetry_Int_Tables_number       1
_symmetry_cell_setting            triclinic
loop_
_symmetry_equiv_pos_as_xyz
  x,y,z
_cell_length_a                    32.2346
_cell_length_b                    29.6099
_cell_length_c                    29.9458
_cell_angle_alpha                 90.0295
_cell_angle_beta                  90.8293
_cell_angle_gamma                 91.2578
loop_
_atom_site_label
_atom_site_type_symbol
_atom_site_fract_x
_atom_site_fract_y
_atom_site_fract_z
_atom_site_U_iso_or_equiv
_atom_site_adp_type
_atom_site_occupancy
C1     C     0.08687   0.16616   0.25398   0.00000  Uiso   1.00
C2     C     0.24675   0.16725   0.24910   0.00000  Uiso   1.00
C3     C     0.16694   0.16665   0.16406   0.00000  Uiso   1.00
C4     C     0.16680   0.16670   0.33601   0.00000  Uiso   1.00
C5     C     0.19036   0.02481   0.28035   0.00000  Uiso   1.00
C6     C     0.14665   0.30884   0.21673   0.00000  Uiso   1.00
C7     C     0.14360   0.02385   0.21890   0.00000  Uiso   1.00
C8     C     0.18779   0.30973   0.28250   0.00000  Uiso   1.00
C9     C     0.02015   0.12552   0.24845   0.00000  Uiso   1.00
C10    C     0.31321   0.20618   0.26737   0.00000  Uiso   1.00
C11    C     0.31165   0.12897   0.23760   0.00000  Uiso   1.00
C12    C     0.02223   0.20437   0.27302   0.00000  Uiso   1.00
C13    C     0.20080   0.19417   0.04878   0.00000  Uiso   1.00
C14    C     0.19986   0.14368   0.45345   0.00000  Uiso   1.00
C15    C     0.13988   0.19332   0.45358   0.00000  Uiso   1.00
C16    C     0.14004   0.14218   0.04516   0.00000  Uiso   1.00
C17    C     0.19974   0.19267   0.09544   0.00000  Uiso   1.00
C18    C     0.19729   0.14105   0.40668   0.00000  Uiso   1.00
C19    C     0.13952   0.19384   0.40674   0.00000  Uiso   1.00
C20    C     0.13960   0.14036   0.09190   0.00000  Uiso   1.00
C21    C     0.16860   0.16673   0.11618   0.00000  Uiso   1.00
C22    C     0.16770   0.16694   0.38403   0.00000  Uiso   1.00
C23    C     0.17083   0.16846   0.02423   0.00000  Uiso   1.00
C24    C     0.17052   0.16893   0.47599   0.00000  Uiso   1.00
C25    C     0.29119   0.16827   0.24993   0.00000  Uiso   1.00
C26    C     0.04269   0.16499   0.25991   0.00000  Uiso   1.00
N27    N     0.16667   0.28573   0.25000   0.00000  Uiso   1.00
N28    N     0.16667   0.04760   0.25000   0.00000  Uiso   1.00
O29    O     0.10559   0.20487   0.24999   0.00000  Uiso   1.00
O30    O     0.22774   0.12846   0.25000   0.00000  Uiso   1.00
O31    O     0.22774   0.20487   0.25000   0.00000  Uiso   1.00
O32    O     0.10559   0.12846   0.24999   0.00000  Uiso   1.00
O33    O     0.16666   0.20489   0.18453   0.00000  Uiso   1.00
O34    O     0.16667   0.12845   0.31547   0.00000  Uiso   1.00
O35    O     0.16667   0.20489   0.31547   0.00000  Uiso   1.00
O36    O     0.16666   0.12845   0.18453   0.00000  Uiso   1.00
Zn37   Zn    0.16667   0.21771   0.25000   0.00000  Uiso   1.00
Zn38   Zn    0.16667   0.11563   0.25000   0.00000  Uiso   1.00
O39    O     0.21542   0.04976   0.30950   0.00000  Uiso   1.00
C40    C     0.25754   0.03932   0.30331   0.00000  Uiso   1.00
H41    H     0.27691   0.06936   0.31268   0.00000  Uiso   1.00
H42    H     0.26490   0.03065   0.26811   0.00000  Uiso   1.00
H43    H     0.26675   0.01140   0.32579   0.00000  Uiso   1.00
O44    O     0.12973   0.28482   0.18112   0.00000  Uiso   1.00
C45    C     0.15448   0.29295   0.14322   0.00000  Uiso   1.00
H46    H     0.14391   0.26963   0.11617   0.00000  Uiso   1.00
H47    H     0.18785   0.28651   0.15028   0.00000  Uiso   1.00
H48    H     0.15117   0.32790   0.13042   0.00000  Uiso   1.00
O49    O     0.12111   0.04835   0.18768   0.00000  Uiso   1.00
C50    C     0.08075   0.02985   0.18033   0.00000  Uiso   1.00
H51    H     0.05971   0.05779   0.17183   0.00000  Uiso   1.00
H52    H     0.06794   0.01186   0.20994   0.00000  Uiso   1.00
H53    H     0.08012   0.00717   0.15086   0.00000  Uiso   1.00
O54    O     0.20874   0.28625   0.31539   0.00000  Uiso   1.00
C55    C     0.19076   0.29484   0.35721   0.00000  Uiso   1.00
H56    H     0.20106   0.26863   0.38112   0.00000  Uiso   1.00
H57    H     0.15622   0.29313   0.35563   0.00000  Uiso   1.00
H58    H     0.20148   0.32798   0.37089   0.00000  Uiso   1.00
O59    O     0.23090   0.22107   0.02871   0.00000  Uiso   1.00
H60    H     0.22556   0.22340   0.49623   0.00000  Uiso   1.00
O61    O     0.23029   0.12240   0.47811   0.00000  Uiso   1.00
H62    H     0.25538   0.11991   0.45966   0.00000  Uiso   1.00
O63    O     0.11089   0.21563   0.47846   0.00000  Uiso   1.00
H64    H     0.08447   0.21643   0.46121   0.00000  Uiso   1.00
O65    O     0.11066   0.11956   0.01890   0.00000  Uiso   1.00
H66    H     0.08429   0.11732   0.03539   0.00000  Uiso   1.00
O67    O     0.22895   0.21536   0.12200   0.00000  Uiso   1.00
H68    H     0.24926   0.23182   0.10325   0.00000  Uiso   1.00
O69    O     0.22350   0.11459   0.38227   0.00000  Uiso   1.00
H70    H     0.23114   0.08802   0.40043   0.00000  Uiso   1.00
O71    O     0.11184   0.21926   0.38231   0.00000  Uiso   1.00
H72    H     0.10444   0.24608   0.40002   0.00000  Uiso   1.00
O73    O     0.11121   0.11386   0.11475   0.00000  Uiso   1.00
H74    H     0.10407   0.08681   0.09651   0.00000  Uiso   1.00
O75    O     0.03911   0.08419   0.24910   0.00000  Uiso   1.00
H76    H     0.01788   0.06012   0.25440   0.00000  Uiso   1.00
O77    O     0.29388   0.24477   0.28074   0.00000  Uiso   1.00
H78    H     0.28412   0.25958   0.25292   0.00000  Uiso   1.00
O79    O     0.29047   0.09508   0.21427   0.00000  Uiso   1.00
H80    H     0.31058   0.07668   0.19786   0.00000  Uiso   1.00
O81    O     0.04243   0.24138   0.29202   0.00000  Uiso   1.00
H82    H     0.06577   0.23036   0.31056   0.00000  Uiso   1.00
C83    C     0.42020   0.16616   0.25398   0.00000  Uiso   1.00
C84    C     0.58009   0.16725   0.24910   0.00000  Uiso   1.00
C85    C     0.50028   0.16665   0.16406   0.00000  Uiso   1.00
C86    C     0.50014   0.16670   0.33601   0.00000  Uiso   1.00
C87    C     0.52369   0.02481   0.28035   0.00000  Uiso   1.00
C88    C     0.47998   0.30884   0.21673   0.00000  Uiso   1.00
C89    C     0.47693   0.02385   0.21890   0.00000  Uiso   1.00
C90    C     0.52113   0.30973   0.28250   0.00000  Uiso   1.00
C91    C     0.35348   0.12552   0.24845   0.00000  Uiso   1.00
C92    C     0.64654   0.20618   0.26737   0.00000  Uiso   1.00
C93    C     0.64499   0.12897   0.23760   0.00000  Uiso   1.00
C94    C     0.35557   0.20437   0.27302   0.00000  Uiso   1.00
C95    C     0.53413   0.19417   0.04878   0.00000  Uiso   1.00
C96    C     0.53319   0.14368   0.45345   0.00000  Uiso   1.00
C97    C     0.47321   0.19332   0.45358   0.00000  Uiso   1.00
C98    C     0.47337   0.14218   0.04516   0.00000  Uiso   1.00
C99    C     0.53308   0.19267   0.09544   0.00000  Uiso   1.00
C100   C     0.53062   0.14105   0.40668   0.00000  Uiso   1.00
C101   C     0.47286   0.19384   0.40674   0.00000  Uiso   1.00
C102   C     0.47294   0.14036   0.09190   0.00000  Uiso   1.00
C103   C     0.50193   0.16673   0.11618   0.00000  Uiso   1.00
C104   C     0.50103   0.16694   0.38403   0.00000  Uiso   1.00
C105   C     0.50416   0.16846   0.02423   0.00000  Uiso   1.00
C106   C     0.50385   0.16893   0.47599   0.00000  Uiso   1.00
C107   C     0.62453   0.16827   0.24993   0.00000  Uiso   1.00
C108   C     0.37602   0.16499   0.25991   0.00000  Uiso   1.00
N109   N     0.50000   0.28573   0.25000   0.00000  Uiso   1.00
N110   N     0.50000   0.04760   0.25000   0.00000  Uiso   1.00
O111   O     0.43892   0.20487   0.24999   0.00000  Uiso   1.00
O112   O     0.56108   0.12846   0.25000   0.00000  Uiso   1.00
O113   O     0.56108   0.20487   0.25000   0.00000  Uiso   1.00
O114   O     0.43892   0.12846   0.24999   0.00000  Uiso   1.00
O115   O     0.50000   0.20489   0.18453   0.00000  Uiso   1.00
O116   O     0.50000   0.12845   0.31547   0.00000  Uiso   1.00
O117   O     0.50000   0.20489   0.31547   0.00000  Uiso   1.00
O118   O     0.50000   0.12845   0.18453   0.00000  Uiso   1.00
Zn119  Zn    0.50000   0.21771   0.25000   0.00000  Uiso   1.00
Zn120  Zn    0.50000   0.11563   0.25000   0.00000  Uiso   1.00
O121   O     0.54875   0.04976   0.30950   0.00000  Uiso   1.00
C122   C     0.59087   0.03932   0.30331   0.00000  Uiso   1.00
H123   H     0.61025   0.06936   0.31268   0.00000  Uiso   1.00
H124   H     0.59823   0.03065   0.26811   0.00000  Uiso   1.00
H125   H     0.60009   0.01140   0.32579   0.00000  Uiso   1.00
O126   O     0.46307   0.28482   0.18112   0.00000  Uiso   1.00
C127   C     0.48782   0.29295   0.14322   0.00000  Uiso   1.00
H128   H     0.47725   0.26963   0.11617   0.00000  Uiso   1.00
H129   H     0.52118   0.28651   0.15028   0.00000  Uiso   1.00
H130   H     0.48450   0.32790   0.13042   0.00000  Uiso   1.00
O131   O     0.45444   0.04835   0.18768   0.00000  Uiso   1.00
C132   C     0.41408   0.02985   0.18033   0.00000  Uiso   1.00
H133   H     0.39304   0.05779   0.17183   0.00000  Uiso   1.00
H134   H     0.40127   0.01186   0.20994   0.00000  Uiso   1.00
H135   H     0.41345   0.00717   0.15086   0.00000  Uiso   1.00
O136   O     0.54207   0.28625   0.31539   0.00000  Uiso   1.00
C137   C     0.52410   0.29484   0.35721   0.00000  Uiso   1.00
H138   H     0.53439   0.26863   0.38112   0.00000  Uiso   1.00
H139   H     0.48955   0.29313   0.35563   0.00000  Uiso   1.00
H140   H     0.53482   0.32798   0.37089   0.00000  Uiso   1.00
O141   O     0.56423   0.22107   0.02871   0.00000  Uiso   1.00
H142   H     0.55889   0.22340   0.49623   0.00000  Uiso   1.00
O143   O     0.56363   0.12240   0.47811   0.00000  Uiso   1.00
H144   H     0.58871   0.11991   0.45966   0.00000  Uiso   1.00
O145   O     0.44422   0.21563   0.47846   0.00000  Uiso   1.00
H146   H     0.41781   0.21643   0.46121   0.00000  Uiso   1.00
O147   O     0.44399   0.11956   0.01890   0.00000  Uiso   1.00
H148   H     0.41762   0.11732   0.03539   0.00000  Uiso   1.00
O149   O     0.56228   0.21536   0.12200   0.00000  Uiso   1.00
H150   H     0.58260   0.23182   0.10325   0.00000  Uiso   1.00
O151   O     0.55684   0.11459   0.38227   0.00000  Uiso   1.00
H152   H     0.56448   0.08802   0.40043   0.00000  Uiso   1.00
O153   O     0.44518   0.21926   0.38231   0.00000  Uiso   1.00
H154   H     0.43778   0.24608   0.40002   0.00000  Uiso   1.00
O155   O     0.44455   0.11386   0.11475   0.00000  Uiso   1.00
H156   H     0.43740   0.08681   0.09651   0.00000  Uiso   1.00
O157   O     0.37244   0.08419   0.24910   0.00000  Uiso   1.00
H158   H     0.35121   0.06012   0.25440   0.00000  Uiso   1.00
O159   O     0.62721   0.24477   0.28074   0.00000  Uiso   1.00
H160   H     0.61745   0.25958   0.25292   0.00000  Uiso   1.00
O161   O     0.62381   0.09508   0.21427   0.00000  Uiso   1.00
H162   H     0.64391   0.07668   0.19786   0.00000  Uiso   1.00
O163   O     0.37576   0.24138   0.29202   0.00000  Uiso   1.00
H164   H     0.39911   0.23036   0.31056   0.00000  Uiso   1.00
C165   C     0.75353   0.16616   0.25398   0.00000  Uiso   1.00
C166   C     0.91342   0.16725   0.24910   0.00000  Uiso   1.00
C167   C     0.83361   0.16665   0.16406   0.00000  Uiso   1.00
C168   C     0.83347   0.16670   0.33601   0.00000  Uiso   1.00
C169   C     0.85703   0.02481   0.28035   0.00000  Uiso   1.00
C170   C     0.81331   0.30884   0.21673   0.00000  Uiso   1.00
C171   C     0.81026   0.02385   0.21890   0.00000  Uiso   1.00
C172   C     0.85446   0.30973   0.28250   0.00000  Uiso   1.00
C173   C     0.68681   0.12552   0.24845   0.00000  Uiso   1.00
C174   C     0.97987   0.20618   0.26737   0.00000  Uiso   1.00
C175   C     0.97832   0.12897   0.23760   0.00000  Uiso   1.00
C176   C     0.68890   0.20437   0.27302   0.00000  Uiso   1.00
C177   C     0.86747   0.19417   0.04878   0.00000  Uiso   1.00
C178   C     0.86653   0.14368   0.45345   0.00000  Uiso   1.00
C179   C     0.80655   0.19332   0.45358   0.00000  Uiso   1.00
C180   C     0.80670   0.14218   0.04516   0.00000  Uiso   1.00
C181   C     0.86641   0.19267   0.09544   0.00000  Uiso   1.00
C182   C     0.86396   0.14105   0.40668   0.00000  Uiso   1.00
C183   C     0.80619   0.19384   0.40674   0.00000  Uiso   1.00
C184   C     0.80627   0.14036   0.09190   0.00000  Uiso   1.00
C185   C     0.83527   0.16673   0.11618   0.00000  Uiso   1.00
C186   C     0.83436   0.16694   0.38403   0.00000  Uiso   1.00
C187   C     0.83750   0.16846   0.02423   0.00000  Uiso   1.00
C188   C     0.83719   0.16893   0.47599   0.00000  Uiso   1.00
C189   C     0.95786   0.16827   0.24993   0.00000  Uiso   1.00
C190   C     0.70935   0.16499   0.25991   0.00000  Uiso   1.00
N191   N     0.83333   0.28573   0.25000   0.00000  Uiso   1.00
N192   N     0.83333   0.04760   0.25000   0.00000  Uiso   1.00
O193   O     0.77226   0.20487   0.24999   0.00000  Uiso   1.00
O194   O     0.89441   0.12846   0.25000   0.00000  Uiso   1.00
O195   O     0.89441   0.20487   0.25000   0.00000  Uiso   1.00
O196   O     0.77226   0.12846   0.24999   0.00000  Uiso   1.00
O197   O     0.83333   0.20489   0.18453   0.00000  Uiso   1.00
O198   O     0.83334   0.12845   0.31547   0.00000  Uiso   1.00
O199   O     0.83334   0.20489   0.31547   0.00000  Uiso   1.00
O200   O     0.83333   0.12845   0.18453   0.00000  Uiso   1.00
Zn201  Zn    0.83333   0.21771   0.25000   0.00000  Uiso   1.00
Zn202  Zn    0.83333   0.11563   0.25000   0.00000  Uiso   1.00
O203   O     0.88209   0.04976   0.30950   0.00000  Uiso   1.00
C204   C     0.92420   0.03932   0.30331   0.00000  Uiso   1.00
H205   H     0.94358   0.06936   0.31268   0.00000  Uiso   1.00
H206   H     0.93157   0.03065   0.26811   0.00000  Uiso   1.00
H207   H     0.93342   0.01140   0.32579   0.00000  Uiso   1.00
O208   O     0.79640   0.28482   0.18112   0.00000  Uiso   1.00
C209   C     0.82115   0.29295   0.14322   0.00000  Uiso   1.00
H210   H     0.81058   0.26963   0.11617   0.00000  Uiso   1.00
H211   H     0.85451   0.28651   0.15028   0.00000  Uiso   1.00
H212   H     0.81784   0.32790   0.13042   0.00000  Uiso   1.00
O213   O     0.78777   0.04835   0.18768   0.00000  Uiso   1.00
C214   C     0.74742   0.02985   0.18033   0.00000  Uiso   1.00
H215   H     0.72638   0.05779   0.17183   0.00000  Uiso   1.00
H216   H     0.73461   0.01186   0.20994   0.00000  Uiso   1.00
H217   H     0.74679   0.00717   0.15086   0.00000  Uiso   1.00
O218   O     0.87540   0.28625   0.31539   0.00000  Uiso   1.00
C219   C     0.85743   0.29484   0.35721   0.00000  Uiso   1.00
H220   H     0.86773   0.26863   0.38112   0.00000  Uiso   1.00
H221   H     0.82288   0.29313   0.35563   0.00000  Uiso   1.00
H222   H     0.86815   0.32798   0.37089   0.00000  Uiso   1.00
O223   O     0.89756   0.22107   0.02871   0.00000  Uiso   1.00
H224   H     0.89222   0.22340   0.49623   0.00000  Uiso   1.00
O225   O     0.89696   0.12240   0.47811   0.00000  Uiso   1.00
H226   H     0.92205   0.11991   0.45966   0.00000  Uiso   1.00
O227   O     0.77756   0.21563   0.47846   0.00000  Uiso   1.00
H228   H     0.75114   0.21643   0.46121   0.00000  Uiso   1.00
O229   O     0.77733   0.11956   0.01890   0.00000  Uiso   1.00
H230   H     0.75095   0.11732   0.03539   0.00000  Uiso   1.00
O231   O     0.89561   0.21536   0.12200   0.00000  Uiso   1.00
H232   H     0.91593   0.23182   0.10325   0.00000  Uiso   1.00
O233   O     0.89017   0.11459   0.38227   0.00000  Uiso   1.00
H234   H     0.89781   0.08802   0.40043   0.00000  Uiso   1.00
O235   O     0.77851   0.21926   0.38231   0.00000  Uiso   1.00
H236   H     0.77111   0.24608   0.40002   0.00000  Uiso   1.00
O237   O     0.77788   0.11386   0.11475   0.00000  Uiso   1.00
H238   H     0.77073   0.08681   0.09651   0.00000  Uiso   1.00
O239   O     0.70578   0.08419   0.24910   0.00000  Uiso   1.00
H240   H     0.68455   0.06012   0.25440   0.00000  Uiso   1.00
O241   O     0.96055   0.24477   0.28074   0.00000  Uiso   1.00
H242   H     0.95079   0.25958   0.25292   0.00000  Uiso   1.00
O243   O     0.95714   0.09508   0.21427   0.00000  Uiso   1.00
H244   H     0.97724   0.07668   0.19786   0.00000  Uiso   1.00
O245   O     0.70909   0.24138   0.29202   0.00000  Uiso   1.00
H246   H     0.73244   0.23036   0.31056   0.00000  Uiso   1.00
C247   C     0.08687   0.49950   0.25398   0.00000  Uiso   1.00
C248   C     0.24675   0.50058   0.24910   0.00000  Uiso   1.00
C249   C     0.16694   0.49998   0.16406   0.00000  Uiso   1.00
C250   C     0.16680   0.50003   0.33601   0.00000  Uiso   1.00
C251   C     0.19036   0.35815   0.28035   0.00000  Uiso   1.00
C252   C     0.14665   0.64217   0.21673   0.00000  Uiso   1.00
C253   C     0.14360   0.35718   0.21890   0.00000  Uiso   1.00
C254   C     0.18779   0.64306   0.28250   0.00000  Uiso   1.00
C255   C     0.02015   0.45885   0.24845   0.00000  Uiso   1.00
C256   C     0.31321   0.53952   0.26737   0.00000  Uiso   1.00
C257   C     0.31165   0.46230   0.23760   0.00000  Uiso   1.00
C258   C     0.02223   0.53770   0.27302   0.00000  Uiso   1.00
C259   C     0.20080   0.52750   0.04878   0.00000  Uiso   1.00
C260   C     0.19986   0.47701   0.45345   0.00000  Uiso   1.00
C261   C     0.13988   0.52665   0.45358   0.00000  Uiso   1.00
C262   C     0.14004   0.47552   0.04516   0.00000  Uiso   1.00
C263   C     0.19974   0.52600   0.09544   0.00000  Uiso   1.00
C264   C     0.19729   0.47438   0.40668   0.00000  Uiso   1.00
C265   C     0.13952   0.52718   0.40674   0.00000  Uiso   1.00
C266   C     0.13960   0.47369   0.09190   0.00000  Uiso   1.00
C267   C     0.16860   0.50007   0.11618   0.00000  Uiso   1.00
C268   C     0.16770   0.50028   0.38403   0.00000  Uiso   1.00
C269   C     0.17083   0.50180   0.02423   0.00000  Uiso   1.00
C270   C     0.17052   0.50226   0.47599   0.00000  Uiso   1.00
C271   C     0.29119   0.50160   0.24993   0.00000  Uiso   1.00
C272   C     0.04269   0.49833   0.25991   0.00000  Uiso   1.00
N273   N     0.16667   0.61907   0.25000   0.00000  Uiso   1.00
N274   N     0.16667   0.38093   0.25000   0.00000  Uiso   1.00
O275   O     0.10559   0.53821   0.24999   0.00000  Uiso   1.00
O276   O     0.22774   0.46179   0.25000   0.00000  Uiso   1.00
O277   O     0.22774   0.53821   0.25000   0.00000  Uiso   1.00
O278   O     0.10559   0.46179   0.24999   0.00000  Uiso   1.00
O279   O     0.16666   0.53822   0.18453   0.00000  Uiso   1.00
O280   O     0.16667   0.46178   0.31547   0.00000  Uiso   1.00
O281   O     0.16667   0.53822   0.31547   0.00000  Uiso   1.00
O282   O     0.16666   0.46178   0.18453   0.00000  Uiso   1.00
Zn283  Zn    0.16667   0.55104   0.25000   0.00000  Uiso   1.00
Zn284  Zn    0.16667   0.44896   0.25000   0.00000  Uiso   1.00
O285   O     0.21542   0.38309   0.30950   0.00000  Uiso   1.00
C286   C     0.25754   0.37266   0.30331   0.00000  Uiso   1.00
H287   H     0.27691   0.40270   0.31268   0.00000  Uiso   1.00
H288   H     0.26490   0.36398   0.26811   0.00000  Uiso   1.00
H289   H     0.26675   0.34473   0.32579   0.00000  Uiso   1.00
O290   O     0.12973   0.61816   0.18112   0.00000  Uiso   1.00
C291   C     0.15448   0.62629   0.14322   0.00000  Uiso   1.00
H292   H     0.14391   0.60296   0.11617   0.00000  Uiso   1.00
H293   H     0.18785   0.61984   0.15028   0.00000  Uiso   1.00
H294   H     0.15117   0.66123   0.13042   0.00000  Uiso   1.00
O295   O     0.12111   0.38168   0.18768   0.00000  Uiso   1.00
C296   C     0.08075   0.36319   0.18033   0.00000  Uiso   1.00
H297   H     0.05971   0.39112   0.17183   0.00000  Uiso   1.00
H298   H     0.06794   0.34519   0.20994   0.00000  Uiso   1.00
H299   H     0.08012   0.34051   0.15086   0.00000  Uiso   1.00
O300   O     0.20874   0.61958   0.31539   0.00000  Uiso   1.00
C301   C     0.19076   0.62817   0.35721   0.00000  Uiso   1.00
H302   H     0.20106   0.60196   0.38112   0.00000  Uiso   1.00
H303   H     0.15622   0.62646   0.35563   0.00000  Uiso   1.00
H304   H     0.20148   0.66131   0.37089   0.00000  Uiso   1.00
O305   O     0.23090   0.55440   0.02871   0.00000  Uiso   1.00
H306   H     0.22556   0.55674   0.49623   0.00000  Uiso   1.00
O307   O     0.23029   0.45573   0.47811   0.00000  Uiso   1.00
H308   H     0.25538   0.45325   0.45966   0.00000  Uiso   1.00
O309   O     0.11089   0.54897   0.47846   0.00000  Uiso   1.00
H310   H     0.08447   0.54976   0.46121   0.00000  Uiso   1.00
O311   O     0.11066   0.45289   0.01890   0.00000  Uiso   1.00
H312   H     0.08429   0.45066   0.03539   0.00000  Uiso   1.00
O313   O     0.22895   0.54869   0.12200   0.00000  Uiso   1.00
H314   H     0.24926   0.56516   0.10325   0.00000  Uiso   1.00
O315   O     0.22350   0.44793   0.38227   0.00000  Uiso   1.00
H316   H     0.23114   0.42135   0.40043   0.00000  Uiso   1.00
O317   O     0.11184   0.55260   0.38231   0.00000  Uiso   1.00
H318   H     0.10444   0.57941   0.40002   0.00000  Uiso   1.00
O319   O     0.11121   0.44719   0.11475   0.00000  Uiso   1.00
H320   H     0.10407   0.42014   0.09651   0.00000  Uiso   1.00
O321   O     0.03911   0.41753   0.24910   0.00000  Uiso   1.00
H322   H     0.01788   0.39345   0.25440   0.00000  Uiso   1.00
O323   O     0.29388   0.57810   0.28074   0.00000  Uiso   1.00
H324   H     0.28412   0.59291   0.25292   0.00000  Uiso   1.00
O325   O     0.29047   0.42841   0.21427   0.00000  Uiso   1.00
H326   H     0.31058   0.41001   0.19786   0.00000  Uiso   1.00
O327   O     0.04243   0.57471   0.29202   0.00000  Uiso   1.00
H328   H     0.06577   0.56370   0.31056   0.00000  Uiso   1.00
C329   C     0.42020   0.49950   0.25398   0.00000  Uiso   1.00
C330   C     0.58009   0.50058   0.24910   0.00000  Uiso   1.00
C331   C     0.50028   0.49998   0.16406   0.00000  Uiso   1.00
C332   C     0.50014   0.50003   0.33601   0.00000  Uiso   1.00
C333   C     0.52369   0.35815   0.28035   0.00000  Uiso   1.00
C334   C     0.47998   0.64217   0.21673   0.00000  Uiso   1.00
C335   C     0.47693   0.35718   0.21890   0.00000  Uiso   1.00
C336   C     0.52113   0.64306   0.28250   0.00000  Uiso   1.00
C337   C     0.35348   0.45885   0.24845   0.00000  Uiso   1.00
C338   C     0.64654   0.53952   0.26737   0.00000  Uiso   1.00
C339   C     0.64499   0.46230   0.23760   0.00000  Uiso   1.00
C340   C     0.35557   0.53770   0.27302   0.00000  Uiso   1.00
C341   C     0.53413   0.52750   0.04878   0.00000  Uiso   1.00
C342   C     0.53319   0.47701   0.45345   0.00000  Uiso   1.00
C343   C     0.47321   0.52665   0.45358   0.00000  Uiso   1.00
C344   C     0.47337   0.47552   0.04516   0.00000  Uiso   1.00
C345   C     0.53308   0.52600   0.09544   0.00000  Uiso   1.00
C346   C     0.53062   0.47438   0.40668   0.00000  Uiso   1.00
C347   C     0.47286   0.52718   0.40674   0.00000  Uiso   1.00
C348   C     0.47294   0.47369   0.09190   0.00000  Uiso   1.00
C349   C     0.50193   0.50007   0.11618   0.00000  Uiso   1.00
C350   C     0.50103   0.50028   0.38403   0.00000  Uiso   1.00
C351   C     0.50416   0.50180   0.02423   0.00000  Uiso   1.00
C352   C     0.50385   0.50226   0.47599   0.00000  Uiso   1.00
C353   C     0.62453   0.50160   0.24993   0.00000  Uiso   1.00
C354   C     0.37602   0.49833   0.25991   0.00000  Uiso   1.00
N355   N     0.50000   0.61907   0.25000   0.00000  Uiso   1.00
N356   N     0.50000   0.38093   0.25000   0.00000  Uiso   1.00
O357   O     0.43892   0.53821   0.24999   0.00000  Uiso   1.00
O358   O     0.56108   0.46179   0.25000   0.00000  Uiso   1.00
O359   O     0.56108   0.53821   0.25000   0.00000  Uiso   1.00
O360   O     0.43892   0.46179   0.24999   0.00000  Uiso   1.00
O361   O     0.50000   0.53822   0.18453   0.00000  Uiso   1.00
O362   O     0.50000   0.46178   0.31547   0.00000  Uiso   1.00
O363   O     0.50000   0.53822   0.31547   0.00000  Uiso   1.00
O364   O     0.50000   0.46178   0.18453   0.00000  Uiso   1.00
Zn365  Zn    0.50000   0.55104   0.25000   0.00000  Uiso   1.00
Zn366  Zn    0.50000   0.44896   0.25000   0.00000  Uiso   1.00
O367   O     0.54875   0.38309   0.30950   0.00000  Uiso   1.00
C368   C     0.59087   0.37266   0.30331   0.00000  Uiso   1.00
H369   H     0.61025   0.40270   0.31268   0.00000  Uiso   1.00
H370   H     0.59823   0.36398   0.26811   0.00000  Uiso   1.00
H371   H     0.60009   0.34473   0.32579   0.00000  Uiso   1.00
O372   O     0.46307   0.61816   0.18112   0.00000  Uiso   1.00
C373   C     0.48782   0.62629   0.14322   0.00000  Uiso   1.00
H374   H     0.47725   0.60296   0.11617   0.00000  Uiso   1.00
H375   H     0.52118   0.61984   0.15028   0.00000  Uiso   1.00
H376   H     0.48450   0.66123   0.13042   0.00000  Uiso   1.00
O377   O     0.45444   0.38168   0.18768   0.00000  Uiso   1.00
C378   C     0.41408   0.36319   0.18033   0.00000  Uiso   1.00
H379   H     0.39304   0.39112   0.17183   0.00000  Uiso   1.00
H380   H     0.40127   0.34519   0.20994   0.00000  Uiso   1.00
H381   H     0.41345   0.34051   0.15086   0.00000  Uiso   1.00
O382   O     0.54207   0.61958   0.31539   0.00000  Uiso   1.00
C383   C     0.52410   0.62817   0.35721   0.00000  Uiso   1.00
H384   H     0.53439   0.60196   0.38112   0.00000  Uiso   1.00
H385   H     0.48955   0.62646   0.35563   0.00000  Uiso   1.00
H386   H     0.53482   0.66131   0.37089   0.00000  Uiso   1.00
O387   O     0.56423   0.55440   0.02871   0.00000  Uiso   1.00
H388   H     0.55889   0.55674   0.49623   0.00000  Uiso   1.00
O389   O     0.56363   0.45573   0.47811   0.00000  Uiso   1.00
H390   H     0.58871   0.45325   0.45966   0.00000  Uiso   1.00
O391   O     0.44422   0.54897   0.47846   0.00000  Uiso   1.00
H392   H     0.41781   0.54976   0.46121   0.00000  Uiso   1.00
O393   O     0.44399   0.45289   0.01890   0.00000  Uiso   1.00
H394   H     0.41762   0.45066   0.03539   0.00000  Uiso   1.00
O395   O     0.56228   0.54869   0.12200   0.00000  Uiso   1.00
H396   H     0.58260   0.56516   0.10325   0.00000  Uiso   1.00
O397   O     0.55684   0.44793   0.38227   0.00000  Uiso   1.00
H398   H     0.56448   0.42135   0.40043   0.00000  Uiso   1.00
O399   O     0.44518   0.55260   0.38231   0.00000  Uiso   1.00
H400   H     0.43778   0.57941   0.40002   0.00000  Uiso   1.00
O401   O     0.44455   0.44719   0.11475   0.00000  Uiso   1.00
H402   H     0.43740   0.42014   0.09651   0.00000  Uiso   1.00
O403   O     0.37244   0.41753   0.24910   0.00000  Uiso   1.00
H404   H     0.35121   0.39345   0.25440   0.00000  Uiso   1.00
O405   O     0.62721   0.57810   0.28074   0.00000  Uiso   1.00
H406   H     0.61745   0.59291   0.25292   0.00000  Uiso   1.00
O407   O     0.62381   0.42841   0.21427   0.00000  Uiso   1.00
H408   H     0.64391   0.41001   0.19786   0.00000  Uiso   1.00
O409   O     0.37576   0.57471   0.29202   0.00000  Uiso   1.00
H410   H     0.39911   0.56370   0.31056   0.00000  Uiso   1.00
C411   C     0.75353   0.49950   0.25398   0.00000  Uiso   1.00
C412   C     0.91342   0.50058   0.24910   0.00000  Uiso   1.00
C413   C     0.83361   0.49998   0.16406   0.00000  Uiso   1.00
C414   C     0.83347   0.50003   0.33601   0.00000  Uiso   1.00
C415   C     0.85703   0.35815   0.28035   0.00000  Uiso   1.00
C416   C     0.81331   0.64217   0.21673   0.00000  Uiso   1.00
C417   C     0.81026   0.35718   0.21890   0.00000  Uiso   1.00
C418   C     0.85446   0.64306   0.28250   0.00000  Uiso   1.00
C419   C     0.68681   0.45885   0.24845   0.00000  Uiso   1.00
C420   C     0.97987   0.53952   0.26737   0.00000  Uiso   1.00
C421   C     0.97832   0.46230   0.23760   0.00000  Uiso   1.00
C422   C     0.68890   0.53770   0.27302   0.00000  Uiso   1.00
C423   C     0.86747   0.52750   0.04878   0.00000  Uiso   1.00
C424   C     0.86653   0.47701   0.45345   0.00000  Uiso   1.00
C425   C     0.80655   0.52665   0.45358   0.00000  Uiso   1.00
C426   C     0.80670   0.47552   0.04516   0.00000  Uiso   1.00
C427   C     0.86641   0.52600   0.09544   0.00000  Uiso   1.00
C428   C     0.86396   0.47438   0.40668   0.00000  Uiso   1.00
C429   C     0.80619   0.52718   0.40674   0.00000  Uiso   1.00
C430   C     0.80627   0.47369   0.09190   0.00000  Uiso   1.00
C431   C     0.83527   0.50007   0.11618   0.00000  Uiso   1.00
C432   C     0.83436   0.50028   0.38403   0.00000  Uiso   1.00
C433   C     0.83750   0.50180   0.02423   0.00000  Uiso   1.00
C434   C     0.83719   0.50226   0.47599   0.00000  Uiso   1.00
C435   C     0.95786   0.50160   0.24993   0.00000  Uiso   1.00
C436   C     0.70935   0.49833   0.25991   0.00000  Uiso   1.00
N437   N     0.83333   0.61907   0.25000   0.00000  Uiso   1.00
N438   N     0.83333   0.38093   0.25000   0.00000  Uiso   1.00
O439   O     0.77226   0.53821   0.24999   0.00000  Uiso   1.00
O440   O     0.89441   0.46179   0.25000   0.00000  Uiso   1.00
O441   O     0.89441   0.53821   0.25000   0.00000  Uiso   1.00
O442   O     0.77226   0.46179   0.24999   0.00000  Uiso   1.00
O443   O     0.83333   0.53822   0.18453   0.00000  Uiso   1.00
O444   O     0.83334   0.46178   0.31547   0.00000  Uiso   1.00
O445   O     0.83334   0.53822   0.31547   0.00000  Uiso   1.00
O446   O     0.83333   0.46178   0.18453   0.00000  Uiso   1.00
Zn447  Zn    0.83333   0.55104   0.25000   0.00000  Uiso   1.00
Zn448  Zn    0.83333   0.44896   0.25000   0.00000  Uiso   1.00
O449   O     0.88209   0.38309   0.30950   0.00000  Uiso   1.00
C450   C     0.92420   0.37266   0.30331   0.00000  Uiso   1.00
H451   H     0.94358   0.40270   0.31268   0.00000  Uiso   1.00
H452   H     0.93157   0.36398   0.26811   0.00000  Uiso   1.00
H453   H     0.93342   0.34473   0.32579   0.00000  Uiso   1.00
O454   O     0.79640   0.61816   0.18112   0.00000  Uiso   1.00
C455   C     0.82115   0.62629   0.14322   0.00000  Uiso   1.00
H456   H     0.81058   0.60296   0.11617   0.00000  Uiso   1.00
H457   H     0.85451   0.61984   0.15028   0.00000  Uiso   1.00
H458   H     0.81784   0.66123   0.13042   0.00000  Uiso   1.00
O459   O     0.78777   0.38168   0.18768   0.00000  Uiso   1.00
C460   C     0.74742   0.36319   0.18033   0.00000  Uiso   1.00
H461   H     0.72638   0.39112   0.17183   0.00000  Uiso   1.00
H462   H     0.73461   0.34519   0.20994   0.00000  Uiso   1.00
H463   H     0.74679   0.34051   0.15086   0.00000  Uiso   1.00
O464   O     0.87540   0.61958   0.31539   0.00000  Uiso   1.00
C465   C     0.85743   0.62817   0.35721   0.00000  Uiso   1.00
H466   H     0.86773   0.60196   0.38112   0.00000  Uiso   1.00
H467   H     0.82288   0.62646   0.35563   0.00000  Uiso   1.00
H468   H     0.86815   0.66131   0.37089   0.00000  Uiso   1.00
O469   O     0.89756   0.55440   0.02871   0.00000  Uiso   1.00
H470   H     0.89222   0.55674   0.49623   0.00000  Uiso   1.00
O471   O     0.89696   0.45573   0.47811   0.00000  Uiso   1.00
H472   H     0.92205   0.45325   0.45966   0.00000  Uiso   1.00
O473   O     0.77756   0.54897   0.47846   0.00000  Uiso   1.00
H474   H     0.75114   0.54976   0.46121   0.00000  Uiso   1.00
O475   O     0.77733   0.45289   0.01890   0.00000  Uiso   1.00
H476   H     0.75095   0.45066   0.03539   0.00000  Uiso   1.00
O477   O     0.89561   0.54869   0.12200   0.00000  Uiso   1.00
H478   H     0.91593   0.56516   0.10325   0.00000  Uiso   1.00
O479   O     0.89017   0.44793   0.38227   0.00000  Uiso   1.00
H480   H     0.89781   0.42135   0.40043   0.00000  Uiso   1.00
O481   O     0.77851   0.55260   0.38231   0.00000  Uiso   1.00
H482   H     0.77111   0.57941   0.40002   0.00000  Uiso   1.00
O483   O     0.77788   0.44719   0.11475   0.00000  Uiso   1.00
H484   H     0.77073   0.42014   0.09651   0.00000  Uiso   1.00
O485   O     0.70578   0.41753   0.24910   0.00000  Uiso   1.00
H486   H     0.68455   0.39345   0.25440   0.00000  Uiso   1.00
O487   O     0.96055   0.57810   0.28074   0.00000  Uiso   1.00
H488   H     0.95079   0.59291   0.25292   0.00000  Uiso   1.00
O489   O     0.95714   0.42841   0.21427   0.00000  Uiso   1.00
H490   H     0.97724   0.41001   0.19786   0.00000  Uiso   1.00
O491   O     0.70909   0.57471   0.29202   0.00000  Uiso   1.00
H492   H     0.73244   0.56370   0.31056   0.00000  Uiso   1.00
C493   C     0.08687   0.83283   0.25398   0.00000  Uiso   1.00
C494   C     0.24675   0.83392   0.24910   0.00000  Uiso   1.00
C495   C     0.16694   0.83332   0.16406   0.00000  Uiso   1.00
C496   C     0.16680   0.83336   0.33601   0.00000  Uiso   1.00
C497   C     0.19036   0.69148   0.28035   0.00000  Uiso   1.00
C498   C     0.14665   0.97551   0.21673   0.00000  Uiso   1.00
C499   C     0.14360   0.69052   0.21890   0.00000  Uiso   1.00
C500   C     0.18779   0.97640   0.28250   0.00000  Uiso   1.00
C501   C     0.02015   0.79218   0.24845   0.00000  Uiso   1.00
C502   C     0.31321   0.87285   0.26737   0.00000  Uiso   1.00
C503   C     0.31165   0.79564   0.23760   0.00000  Uiso   1.00
C504   C     0.02223   0.87104   0.27302   0.00000  Uiso   1.00
C505   C     0.20080   0.86084   0.04878   0.00000  Uiso   1.00
C506   C     0.19986   0.81035   0.45345   0.00000  Uiso   1.00
C507   C     0.13988   0.85999   0.45358   0.00000  Uiso   1.00
C508   C     0.14004   0.80885   0.04516   0.00000  Uiso   1.00
C509   C     0.19974   0.85934   0.09544   0.00000  Uiso   1.00
C510   C     0.19729   0.80772   0.40668   0.00000  Uiso   1.00
C511   C     0.13952   0.86051   0.40674   0.00000  Uiso   1.00
C512   C     0.13960   0.80703   0.09190   0.00000  Uiso   1.00
C513   C     0.16860   0.83340   0.11618   0.00000  Uiso   1.00
C514   C     0.16770   0.83361   0.38403   0.00000  Uiso   1.00
C515   C     0.17083   0.83513   0.02423   0.00000  Uiso   1.00
C516   C     0.17052   0.83560   0.47599   0.00000  Uiso   1.00
C517   C     0.29119   0.83494   0.24993   0.00000  Uiso   1.00
C518   C     0.04269   0.83166   0.25991   0.00000  Uiso   1.00
N519   N     0.16667   0.95240   0.25000   0.00000  Uiso   1.00
N520   N     0.16667   0.71427   0.25000   0.00000  Uiso   1.00
O521   O     0.10559   0.87154   0.24999   0.00000  Uiso   1.00
O522   O     0.22774   0.79513   0.25000   0.00000  Uiso   1.00
O523   O     0.22774   0.87154   0.25000   0.00000  Uiso   1.00
O524   O     0.10559   0.79513   0.24999   0.00000  Uiso   1.00
O525   O     0.16666   0.87155   0.18453   0.00000  Uiso   1.00
O526   O     0.16667   0.79511   0.31547   0.00000  Uiso   1.00
O527   O     0.16667   0.87155   0.31547   0.00000  Uiso   1.00
O528   O     0.16666   0.79511   0.18453   0.00000  Uiso   1.00
Zn529  Zn    0.16667   0.88437   0.25000   0.00000  Uiso   1.00
Zn530  Zn    0.16667   0.78229   0.25000   0.00000  Uiso   1.00
O531   O     0.21542   0.71643   0.30950   0.00000  Uiso   1.00
C532   C     0.25754   0.70599   0.30331   0.00000  Uiso   1.00
H533   H     0.27691   0.73603   0.31268   0.00000  Uiso   1.00
H534   H     0.26490   0.69731   0.26811   0.00000  Uiso   1.00
H535   H     0.26675   0.67807   0.32579   0.00000  Uiso   1.00
O536   O     0.12973   0.95149   0.18112   0.00000  Uiso   1.00
C537   C     0.15448   0.95962   0.14322   0.00000  Uiso   1.00
H538   H     0.14391   0.93630   0.11617   0.00000  Uiso   1.00
H539   H     0.18785   0.95318   0.15028   0.00000  Uiso   1.00
H540   H     0.15117   0.99456   0.13042   0.00000  Uiso   1.00
O541   O     0.12111   0.71502   0.18768   0.00000  Uiso   1.00
C542   C     0.08075   0.69652   0.18033   0.00000  Uiso   1.00
H543   H     0.05971   0.72446   0.17183   0.00000  Uiso   1.00
H544   H     0.06794   0.67853   0.20994   0.00000  Uiso   1.00
H545   H     0.08012   0.67384   0.15086   0.00000  Uiso   1.00
O546   O     0.20874   0.95292   0.31539   0.00000  Uiso   1.00
C547   C     0.19076   0.96151   0.35721   0.00000  Uiso   1.00
H548   H     0.20106   0.93529   0.38112   0.00000  Uiso   1.00
H549   H     0.15622   0.95979   0.35563   0.00000  Uiso   1.00
H550   H     0.20148   0.99464   0.37089   0.00000  Uiso   1.00
O551   O     0.23090   0.88774   0.02871   0.00000  Uiso   1.00
H552   H     0.22556   0.89007   0.49623   0.00000  Uiso   1.00
O553   O     0.23029   0.78906   0.47811   0.00000  Uiso   1.00
H554   H     0.25538   0.78658   0.45966   0.00000  Uiso   1.00
O555   O     0.11089   0.88230   0.47846   0.00000  Uiso   1.00
H556   H     0.08447   0.88309   0.46121   0.00000  Uiso   1.00
O557   O     0.11066   0.78622   0.01890   0.00000  Uiso   1.00
H558   H     0.08429   0.78399   0.03539   0.00000  Uiso   1.00
O559   O     0.22895   0.88203   0.12200   0.00000  Uiso   1.00
H560   H     0.24926   0.89849   0.10325   0.00000  Uiso   1.00
O561   O     0.22350   0.78126   0.38227   0.00000  Uiso   1.00
H562   H     0.23114   0.75469   0.40043   0.00000  Uiso   1.00
O563   O     0.11184   0.88593   0.38231   0.00000  Uiso   1.00
H564   H     0.10444   0.91275   0.40002   0.00000  Uiso   1.00
O565   O     0.11121   0.78053   0.11475   0.00000  Uiso   1.00
H566   H     0.10407   0.75347   0.09651   0.00000  Uiso   1.00
O567   O     0.03911   0.75086   0.24910   0.00000  Uiso   1.00
H568   H     0.01788   0.72679   0.25440   0.00000  Uiso   1.00
O569   O     0.29388   0.91143   0.28074   0.00000  Uiso   1.00
H570   H     0.28412   0.92624   0.25292   0.00000  Uiso   1.00
O571   O     0.29047   0.76174   0.21427   0.00000  Uiso   1.00
H572   H     0.31058   0.74335   0.19786   0.00000  Uiso   1.00
O573   O     0.04243   0.90804   0.29202   0.00000  Uiso   1.00
H574   H     0.06577   0.89703   0.31056   0.00000  Uiso   1.00
C575   C     0.42020   0.83283   0.25398   0.00000  Uiso   1.00
C576   C     0.58009   0.83392   0.24910   0.00000  Uiso   1.00
C577   C     0.50028   0.83332   0.16406   0.00000  Uiso   1.00
C578   C     0.50014   0.83336   0.33601   0.00000  Uiso   1.00
C579   C     0.52369   0.69148   0.28035   0.00000  Uiso   1.00
C580   C     0.47998   0.97551   0.21673   0.00000  Uiso   1.00
C581   C     0.47693   0.69052   0.21890   0.00000  Uiso   1.00
C582   C     0.52113   0.97640   0.28250   0.00000  Uiso   1.00
C583   C     0.35348   0.79218   0.24845   0.00000  Uiso   1.00
C584   C     0.64654   0.87285   0.26737   0.00000  Uiso   1.00
C585   C     0.64499   0.79564   0.23760   0.00000  Uiso   1.00
C586   C     0.35557   0.87104   0.27302   0.00000  Uiso   1.00
C587   C     0.53413   0.86084   0.04878   0.00000  Uiso   1.00
C588   C     0.53319   0.81035   0.45345   0.00000  Uiso   1.00
C589   C     0.47321   0.85999   0.45358   0.00000  Uiso   1.00
C590   C     0.47337   0.80885   0.04516   0.00000  Uiso   1.00
C591   C     0.53308   0.85934   0.09544   0.00000  Uiso   1.00
C592   C     0.53062   0.80772   0.40668   0.00000  Uiso   1.00
C593   C     0.47286   0.86051   0.40674   0.00000  Uiso   1.00
C594   C     0.47294   0.80703   0.09190   0.00000  Uiso   1.00
C595   C     0.50193   0.83340   0.11618   0.00000  Uiso   1.00
C596   C     0.50103   0.83361   0.38403   0.00000  Uiso   1.00
C597   C     0.50416   0.83513   0.02423   0.00000  Uiso   1.00
C598   C     0.50385   0.83560   0.47599   0.00000  Uiso   1.00
C599   C     0.62453   0.83494   0.24993   0.00000  Uiso   1.00
C600   C     0.37602   0.83166   0.25991   0.00000  Uiso   1.00
N601   N     0.50000   0.95240   0.25000   0.00000  Uiso   1.00
N602   N     0.50000   0.71427   0.25000   0.00000  Uiso   1.00
O603   O     0.43892   0.87154   0.24999   0.00000  Uiso   1.00
O604   O     0.56108   0.79513   0.25000   0.00000  Uiso   1.00
O605   O     0.56108   0.87154   0.25000   0.00000  Uiso   1.00
O606   O     0.43892   0.79513   0.24999   0.00000  Uiso   1.00
O607   O     0.50000   0.87155   0.18453   0.00000  Uiso   1.00
O608   O     0.50000   0.79511   0.31547   0.00000  Uiso   1.00
O609   O     0.50000   0.87155   0.31547   0.00000  Uiso   1.00
O610   O     0.50000   0.79511   0.18453   0.00000  Uiso   1.00
Zn611  Zn    0.50000   0.88437   0.25000   0.00000  Uiso   1.00
Zn612  Zn    0.50000   0.78229   0.25000   0.00000  Uiso   1.00
O613   O     0.54875   0.71643   0.30950   0.00000  Uiso   1.00
C614   C     0.59087   0.70599   0.30331   0.00000  Uiso   1.00
H615   H     0.61025   0.73603   0.31268   0.00000  Uiso   1.00
H616   H     0.59823   0.69731   0.26811   0.00000  Uiso   1.00
H617   H     0.60009   0.67807   0.32579   0.00000  Uiso   1.00
O618   O     0.46307   0.95149   0.18112   0.00000  Uiso   1.00
C619   C     0.48782   0.95962   0.14322   0.00000  Uiso   1.00
H620   H     0.47725   0.93630   0.11617   0.00000  Uiso   1.00
H621   H     0.52118   0.95318   0.15028   0.00000  Uiso   1.00
H622   H     0.48450   0.99456   0.13042   0.00000  Uiso   1.00
O623   O     0.45444   0.71502   0.18768   0.00000  Uiso   1.00
C624   C     0.41408   0.69652   0.18033   0.00000  Uiso   1.00
H625   H     0.39304   0.72446   0.17183   0.00000  Uiso   1.00
H626   H     0.40127   0.67853   0.20994   0.00000  Uiso   1.00
H627   H     0.41345   0.67384   0.15086   0.00000  Uiso   1.00
O628   O     0.54207   0.95292   0.31539   0.00000  Uiso   1.00
C629   C     0.52410   0.96151   0.35721   0.00000  Uiso   1.00
H630   H     0.53439   0.93529   0.38112   0.00000  Uiso   1.00
H631   H     0.48955   0.95979   0.35563   0.00000  Uiso   1.00
H632   H     0.53482   0.99464   0.37089   0.00000  Uiso   1.00
O633   O     0.56423   0.88774   0.02871   0.00000  Uiso   1.00
H634   H     0.55889   0.89007   0.49623   0.00000  Uiso   1.00
O635   O     0.56363   0.78906   0.47811   0.00000  Uiso   1.00
H636   H     0.58871   0.78658   0.45966   0.00000  Uiso   1.00
O637   O     0.44422   0.88230   0.47846   0.00000  Uiso   1.00
H638   H     0.41781   0.88309   0.46121   0.00000  Uiso   1.00
O639   O     0.44399   0.78622   0.01890   0.00000  Uiso   1.00
H640   H     0.41762   0.78399   0.03539   0.00000  Uiso   1.00
O641   O     0.56228   0.88203   0.12200   0.00000  Uiso   1.00
H642   H     0.58260   0.89849   0.10325   0.00000  Uiso   1.00
O643   O     0.55684   0.78126   0.38227   0.00000  Uiso   1.00
H644   H     0.56448   0.75469   0.40043   0.00000  Uiso   1.00
O645   O     0.44518   0.88593   0.38231   0.00000  Uiso   1.00
H646   H     0.43778   0.91275   0.40002   0.00000  Uiso   1.00
O647   O     0.44455   0.78053   0.11475   0.00000  Uiso   1.00
H648   H     0.43740   0.75347   0.09651   0.00000  Uiso   1.00
O649   O     0.37244   0.75086   0.24910   0.00000  Uiso   1.00
H650   H     0.35121   0.72679   0.25440   0.00000  Uiso   1.00
O651   O     0.62721   0.91143   0.28074   0.00000  Uiso   1.00
H652   H     0.61745   0.92624   0.25292   0.00000  Uiso   1.00
O653   O     0.62381   0.76174   0.21427   0.00000  Uiso   1.00
H654   H     0.64391   0.74335   0.19786   0.00000  Uiso   1.00
O655   O     0.37576   0.90804   0.29202   0.00000  Uiso   1.00
H656   H     0.39911   0.89703   0.31056   0.00000  Uiso   1.00
C657   C     0.75353   0.83283   0.25398   0.00000  Uiso   1.00
C658   C     0.91342   0.83392   0.24910   0.00000  Uiso   1.00
C659   C     0.83361   0.83332   0.16406   0.00000  Uiso   1.00
C660   C     0.83347   0.83336   0.33601   0.00000  Uiso   1.00
C661   C     0.85703   0.69148   0.28035   0.00000  Uiso   1.00
C662   C     0.81331   0.97551   0.21673   0.00000  Uiso   1.00
C663   C     0.81026   0.69052   0.21890   0.00000  Uiso   1.00
C664   C     0.85446   0.97640   0.28250   0.00000  Uiso   1.00
C665   C     0.68681   0.79218   0.24845   0.00000  Uiso   1.00
C666   C     0.97987   0.87285   0.26737   0.00000  Uiso   1.00
C667   C     0.97832   0.79564   0.23760   0.00000  Uiso   1.00
C668   C     0.68890   0.87104   0.27302   0.00000  Uiso   1.00
C669   C     0.86747   0.86084   0.04878   0.00000  Uiso   1.00
C670   C     0.86653   0.81035   0.45345   0.00000  Uiso   1.00
C671   C     0.80655   0.85999   0.45358   0.00000  Uiso   1.00
C672   C     0.80670   0.80885   0.04516   0.00000  Uiso   1.00
C673   C     0.86641   0.85934   0.09544   0.00000  Uiso   1.00
C674   C     0.86396   0.80772   0.40668   0.00000  Uiso   1.00
C675   C     0.80619   0.86051   0.40674   0.00000  Uiso   1.00
C676   C     0.80627   0.80703   0.09190   0.00000  Uiso   1.00
C677   C     0.83527   0.83340   0.11618   0.00000  Uiso   1.00
C678   C     0.83436   0.83361   0.38403   0.00000  Uiso   1.00
C679   C     0.83750   0.83513   0.02423   0.00000  Uiso   1.00
C680   C     0.83719   0.83560   0.47599   0.00000  Uiso   1.00
C681   C     0.95786   0.83494   0.24993   0.00000  Uiso   1.00
C682   C     0.70935   0.83166   0.25991   0.00000  Uiso   1.00
N683   N     0.83333   0.95240   0.25000   0.00000  Uiso   1.00
N684   N     0.83333   0.71427   0.25000   0.00000  Uiso   1.00
O685   O     0.77226   0.87154   0.24999   0.00000  Uiso   1.00
O686   O     0.89441   0.79513   0.25000   0.00000  Uiso   1.00
O687   O     0.89441   0.87154   0.25000   0.00000  Uiso   1.00
O688   O     0.77226   0.79513   0.24999   0.00000  Uiso   1.00
O689   O     0.83333   0.87155   0.18453   0.00000  Uiso   1.00
O690   O     0.83334   0.79511   0.31547   0.00000  Uiso   1.00
O691   O     0.83334   0.87155   0.31547   0.00000  Uiso   1.00
O692   O     0.83333   0.79511   0.18453   0.00000  Uiso   1.00
Zn693  Zn    0.83333   0.88437   0.25000   0.00000  Uiso   1.00
Zn694  Zn    0.83333   0.78229   0.25000   0.00000  Uiso   1.00
O695   O     0.88209   0.71643   0.30950   0.00000  Uiso   1.00
C696   C     0.92420   0.70599   0.30331   0.00000  Uiso   1.00
H697   H     0.94358   0.73603   0.31268   0.00000  Uiso   1.00
H698   H     0.93157   0.69731   0.26811   0.00000  Uiso   1.00
H699   H     0.93342   0.67807   0.32579   0.00000  Uiso   1.00
O700   O     0.79640   0.95149   0.18112   0.00000  Uiso   1.00
C701   C     0.82115   0.95962   0.14322   0.00000  Uiso   1.00
H702   H     0.81058   0.93630   0.11617   0.00000  Uiso   1.00
H703   H     0.85451   0.95318   0.15028   0.00000  Uiso   1.00
H704   H     0.81784   0.99456   0.13042   0.00000  Uiso   1.00
O705   O     0.78777   0.71502   0.18768   0.00000  Uiso   1.00
C706   C     0.74742   0.69652   0.18033   0.00000  Uiso   1.00
H707   H     0.72638   0.72446   0.17183   0.00000  Uiso   1.00
H708   H     0.73461   0.67853   0.20994   0.00000  Uiso   1.00
H709   H     0.74679   0.67384   0.15086   0.00000  Uiso   1.00
O710   O     0.87540   0.95292   0.31539   0.00000  Uiso   1.00
C711   C     0.85743   0.96151   0.35721   0.00000  Uiso   1.00
H712   H     0.86773   0.93529   0.38112   0.00000  Uiso   1.00
H713   H     0.82288   0.95979   0.35563   0.00000  Uiso   1.00
H714   H     0.86815   0.99464   0.37089   0.00000  Uiso   1.00
O715   O     0.89756   0.88774   0.02871   0.00000  Uiso   1.00
H716   H     0.89222   0.89007   0.49623   0.00000  Uiso   1.00
O717   O     0.89696   0.78906   0.47811   0.00000  Uiso   1.00
H718   H     0.92205   0.78658   0.45966   0.00000  Uiso   1.00
O719   O     0.77756   0.88230   0.47846   0.00000  Uiso   1.00
H720   H     0.75114   0.88309   0.46121   0.00000  Uiso   1.00
O721   O     0.77733   0.78622   0.01890   0.00000  Uiso   1.00
H722   H     0.75095   0.78399   0.03539   0.00000  Uiso   1.00
O723   O     0.89561   0.88203   0.12200   0.00000  Uiso   1.00
H724   H     0.91593   0.89849   0.10325   0.00000  Uiso   1.00
O725   O     0.89017   0.78126   0.38227   0.00000  Uiso   1.00
H726   H     0.89781   0.75469   0.40043   0.00000  Uiso   1.00
O727   O     0.77851   0.88593   0.38231   0.00000  Uiso   1.00
H728   H     0.77111   0.91275   0.40002   0.00000  Uiso   1.00
O729   O     0.77788   0.78053   0.11475   0.00000  Uiso   1.00
H730   H     0.77073   0.75347   0.09651   0.00000  Uiso   1.00
O731   O     0.70578   0.75086   0.24910   0.00000  Uiso   1.00
H732   H     0.68455   0.72679   0.25440   0.00000  Uiso   1.00
O733   O     0.96055   0.91143   0.28074   0.00000  Uiso   1.00
H734   H     0.95079   0.92624   0.25292   0.00000  Uiso   1.00
O735   O     0.95714   0.76174   0.21427   0.00000  Uiso   1.00
H736   H     0.97724   0.74335   0.19786   0.00000  Uiso   1.00
O737   O     0.70909   0.90804   0.29202   0.00000  Uiso   1.00
H738   H     0.73244   0.89703   0.31056   0.00000  Uiso   1.00
C739   C     0.08687   0.16616   0.75398   0.00000  Uiso   1.00
C740   C     0.24675   0.16725   0.74910   0.00000  Uiso   1.00
C741   C     0.16694   0.16665   0.66406   0.00000  Uiso   1.00
C742   C     0.16680   0.16670   0.83601   0.00000  Uiso   1.00
C743   C     0.19036   0.02481   0.78035   0.00000  Uiso   1.00
C744   C     0.14665   0.30884   0.71673   0.00000  Uiso   1.00
C745   C     0.14360   0.02385   0.71890   0.00000  Uiso   1.00
C746   C     0.18779   0.30973   0.78250   0.00000  Uiso   1.00
C747   C     0.02015   0.12552   0.74845   0.00000  Uiso   1.00
C748   C     0.31321   0.20618   0.76737   0.00000  Uiso   1.00
C749   C     0.31165   0.12897   0.73760   0.00000  Uiso   1.00
C750   C     0.02223   0.20437   0.77302   0.00000  Uiso   1.00
C751   C     0.20080   0.19417   0.54878   0.00000  Uiso   1.00
C752   C     0.19986   0.14368   0.95345   0.00000  Uiso   1.00
C753   C     0.13988   0.19332   0.95358   0.00000  Uiso   1.00
C754   C     0.14004   0.14218   0.54516   0.00000  Uiso   1.00
C755   C     0.19974   0.19267   0.59544   0.00000  Uiso   1.00
C756   C     0.19729   0.14105   0.90668   0.00000  Uiso   1.00
C757   C     0.13952   0.19384   0.90674   0.00000  Uiso   1.00
C758   C     0.13960   0.14036   0.59190   0.00000  Uiso   1.00
C759   C     0.16860   0.16673   0.61618   0.00000  Uiso   1.00
C760   C     0.16770   0.16694   0.88403   0.00000  Uiso   1.00
C761   C     0.17083   0.16846   0.52423   0.00000  Uiso   1.00
C762   C     0.17052   0.16893   0.97599   0.00000  Uiso   1.00
C763   C     0.29119   0.16827   0.74993   0.00000  Uiso   1.00
C764   C     0.04269   0.16499   0.75991   0.00000  Uiso   1.00
N765   N     0.16667   0.28573   0.75000   0.00000  Uiso   1.00
N766   N     0.16667   0.04760   0.75000   0.00000  Uiso   1.00
O767   O     0.10559   0.20487   0.74999   0.00000  Uiso   1.00
O768   O     0.22774   0.12846   0.75000   0.00000  Uiso   1.00
O769   O     0.22774   0.20487   0.75000   0.00000  Uiso   1.00
O770   O     0.10559   0.12846   0.74999   0.00000  Uiso   1.00
O771   O     0.16666   0.20489   0.68453   0.00000  Uiso   1.00
O772   O     0.16667   0.12845   0.81547   0.00000  Uiso   1.00
O773   O     0.16667   0.20489   0.81547   0.00000  Uiso   1.00
O774   O     0.16666   0.12845   0.68453   0.00000  Uiso   1.00
Zn775  Zn    0.16667   0.21771   0.75000   0.00000  Uiso   1.00
Zn776  Zn    0.16667   0.11563   0.75000   0.00000  Uiso   1.00
O777   O     0.21542   0.04976   0.80950   0.00000  Uiso   1.00
C778   C     0.25754   0.03932   0.80331   0.00000  Uiso   1.00
H779   H     0.27691   0.06936   0.81268   0.00000  Uiso   1.00
H780   H     0.26490   0.03065   0.76811   0.00000  Uiso   1.00
H781   H     0.26675   0.01140   0.82579   0.00000  Uiso   1.00
O782   O     0.12973   0.28482   0.68112   0.00000  Uiso   1.00
C783   C     0.15448   0.29295   0.64322   0.00000  Uiso   1.00
H784   H     0.14391   0.26963   0.61617   0.00000  Uiso   1.00
H785   H     0.18785   0.28651   0.65028   0.00000  Uiso   1.00
H786   H     0.15117   0.32790   0.63042   0.00000  Uiso   1.00
O787   O     0.12111   0.04835   0.68768   0.00000  Uiso   1.00
C788   C     0.08075   0.02985   0.68033   0.00000  Uiso   1.00
H789   H     0.05971   0.05779   0.67183   0.00000  Uiso   1.00
H790   H     0.06794   0.01186   0.70994   0.00000  Uiso   1.00
H791   H     0.08012   0.00717   0.65086   0.00000  Uiso   1.00
O792   O     0.20874   0.28625   0.81539   0.00000  Uiso   1.00
C793   C     0.19076   0.29484   0.85721   0.00000  Uiso   1.00
H794   H     0.20106   0.26863   0.88112   0.00000  Uiso   1.00
H795   H     0.15622   0.29313   0.85563   0.00000  Uiso   1.00
H796   H     0.20148   0.32798   0.87089   0.00000  Uiso   1.00
O797   O     0.23090   0.22107   0.52871   0.00000  Uiso   1.00
H798   H     0.22556   0.22340   0.99623   0.00000  Uiso   1.00
O799   O     0.23029   0.12240   0.97811   0.00000  Uiso   1.00
H800   H     0.25538   0.11991   0.95966   0.00000  Uiso   1.00
O801   O     0.11089   0.21563   0.97846   0.00000  Uiso   1.00
H802   H     0.08447   0.21643   0.96121   0.00000  Uiso   1.00
O803   O     0.11066   0.11956   0.51890   0.00000  Uiso   1.00
H804   H     0.08429   0.11732   0.53539   0.00000  Uiso   1.00
O805   O     0.22895   0.21536   0.62200   0.00000  Uiso   1.00
H806   H     0.24926   0.23182   0.60325   0.00000  Uiso   1.00
O807   O     0.22350   0.11459   0.88227   0.00000  Uiso   1.00
H808   H     0.23114   0.08802   0.90043   0.00000  Uiso   1.00
O809   O     0.11184   0.21926   0.88231   0.00000  Uiso   1.00
H810   H     0.10444   0.24608   0.90002   0.00000  Uiso   1.00
O811   O     0.11121   0.11386   0.61475   0.00000  Uiso   1.00
H812   H     0.10407   0.08681   0.59651   0.00000  Uiso   1.00
O813   O     0.03911   0.08419   0.74910   0.00000  Uiso   1.00
H814   H     0.01788   0.06012   0.75440   0.00000  Uiso   1.00
O815   O     0.29388   0.24477   0.78074   0.00000  Uiso   1.00
H816   H     0.28412   0.25958   0.75292   0.00000  Uiso   1.00
O817   O     0.29047   0.09508   0.71427   0.00000  Uiso   1.00
H818   H     0.31058   0.07668   0.69786   0.00000  Uiso   1.00
O819   O     0.04243   0.24138   0.79202   0.00000  Uiso   1.00
H820   H     0.06577   0.23036   0.81056   0.00000  Uiso   1.00
C821   C     0.42020   0.16616   0.75398   0.00000  Uiso   1.00
C822   C     0.58009   0.16725   0.74910   0.00000  Uiso   1.00
C823   C     0.50028   0.16665   0.66406   0.00000  Uiso   1.00
C824   C     0.50014   0.16670   0.83601   0.00000  Uiso   1.00
C825   C     0.52369   0.02481   0.78035   0.00000  Uiso   1.00
C826   C     0.47998   0.30884   0.71673   0.00000  Uiso   1.00
C827   C     0.47693   0.02385   0.71890   0.00000  Uiso   1.00
C828   C     0.52113   0.30973   0.78250   0.00000  Uiso   1.00
C829   C     0.35348   0.12552   0.74845   0.00000  Uiso   1.00
C830   C     0.64654   0.20618   0.76737   0.00000  Uiso   1.00
C831   C     0.64499   0.12897   0.73760   0.00000  Uiso   1.00
C832   C     0.35557   0.20437   0.77302   0.00000  Uiso   1.00
C833   C     0.53413   0.19417   0.54878   0.00000  Uiso   1.00
C834   C     0.53319   0.14368   0.95345   0.00000  Uiso   1.00
C835   C     0.47321   0.19332   0.95358   0.00000  Uiso   1.00
C836   C     0.47337   0.14218   0.54516   0.00000  Uiso   1.00
C837   C     0.53308   0.19267   0.59544   0.00000  Uiso   1.00
C838   C     0.53062   0.14105   0.90668   0.00000  Uiso   1.00
C839   C     0.47286   0.19384   0.90674   0.00000  Uiso   1.00
C840   C     0.47294   0.14036   0.59190   0.00000  Uiso   1.00
C841   C     0.50193   0.16673   0.61618   0.00000  Uiso   1.00
C842   C     0.50103   0.16694   0.88403   0.00000  Uiso   1.00
C843   C     0.50416   0.16846   0.52423   0.00000  Uiso   1.00
C844   C     0.50385   0.16893   0.97599   0.00000  Uiso   1.00
C845   C     0.62453   0.16827   0.74993   0.00000  Uiso   1.00
C846   C     0.37602   0.16499   0.75991   0.00000  Uiso   1.00
N847   N     0.50000   0.28573   0.75000   0.00000  Uiso   1.00
N848   N     0.50000   0.04760   0.75000   0.00000  Uiso   1.00
O849   O     0.43892   0.20487   0.74999   0.00000  Uiso   1.00
O850   O     0.56108   0.12846   0.75000   0.00000  Uiso   1.00
O851   O     0.56108   0.20487   0.75000   0.00000  Uiso   1.00
O852   O     0.43892   0.12846   0.74999   0.00000  Uiso   1.00
O853   O     0.50000   0.20489   0.68453   0.00000  Uiso   1.00
O854   O     0.50000   0.12845   0.81547   0.00000  Uiso   1.00
O855   O     0.50000   0.20489   0.81547   0.00000  Uiso   1.00
O856   O     0.50000   0.12845   0.68453   0.00000  Uiso   1.00
Zn857  Zn    0.50000   0.21771   0.75000   0.00000  Uiso   1.00
Zn858  Zn    0.50000   0.11563   0.75000   0.00000  Uiso   1.00
O859   O     0.54875   0.04976   0.80950   0.00000  Uiso   1.00
C860   C     0.59087   0.03932   0.80331   0.00000  Uiso   1.00
H861   H     0.61025   0.06936   0.81268   0.00000  Uiso   1.00
H862   H     0.59823   0.03065   0.76811   0.00000  Uiso   1.00
H863   H     0.60009   0.01140   0.82579   0.00000  Uiso   1.00
O864   O     0.46307   0.28482   0.68112   0.00000  Uiso   1.00
C865   C     0.48782   0.29295   0.64322   0.00000  Uiso   1.00
H866   H     0.47725   0.26963   0.61617   0.00000  Uiso   1.00
H867   H     0.52118   0.28651   0.65028   0.00000  Uiso   1.00
H868   H     0.48450   0.32790   0.63042   0.00000  Uiso   1.00
O869   O     0.45444   0.04835   0.68768   0.00000  Uiso   1.00
C870   C     0.41408   0.02985   0.68033   0.00000  Uiso   1.00
H871   H     0.39304   0.05779   0.67183   0.00000  Uiso   1.00
H872   H     0.40127   0.01186   0.70994   0.00000  Uiso   1.00
H873   H     0.41345   0.00717   0.65086   0.00000  Uiso   1.00
O874   O     0.54207   0.28625   0.81539   0.00000  Uiso   1.00
C875   C     0.52410   0.29484   0.85721   0.00000  Uiso   1.00
H876   H     0.53439   0.26863   0.88112   0.00000  Uiso   1.00
H877   H     0.48955   0.29313   0.85563   0.00000  Uiso   1.00
H878   H     0.53482   0.32798   0.87089   0.00000  Uiso   1.00
O879   O     0.56423   0.22107   0.52871   0.00000  Uiso   1.00
H880   H     0.55889   0.22340   0.99623   0.00000  Uiso   1.00
O881   O     0.56363   0.12240   0.97811   0.00000  Uiso   1.00
H882   H     0.58871   0.11991   0.95966   0.00000  Uiso   1.00
O883   O     0.44422   0.21563   0.97846   0.00000  Uiso   1.00
H884   H     0.41781   0.21643   0.96121   0.00000  Uiso   1.00
O885   O     0.44399   0.11956   0.51890   0.00000  Uiso   1.00
H886   H     0.41762   0.11732   0.53539   0.00000  Uiso   1.00
O887   O     0.56228   0.21536   0.62200   0.00000  Uiso   1.00
H888   H     0.58260   0.23182   0.60325   0.00000  Uiso   1.00
O889   O     0.55684   0.11459   0.88227   0.00000  Uiso   1.00
H890   H     0.56448   0.08802   0.90043   0.00000  Uiso   1.00
O891   O     0.44518   0.21926   0.88231   0.00000  Uiso   1.00
H892   H     0.43778   0.24608   0.90002   0.00000  Uiso   1.00
O893   O     0.44455   0.11386   0.61475   0.00000  Uiso   1.00
H894   H     0.43740   0.08681   0.59651   0.00000  Uiso   1.00
O895   O     0.37244   0.08419   0.74910   0.00000  Uiso   1.00
H896   H     0.35121   0.06012   0.75440   0.00000  Uiso   1.00
O897   O     0.62721   0.24477   0.78074   0.00000  Uiso   1.00
H898   H     0.61745   0.25958   0.75292   0.00000  Uiso   1.00
O899   O     0.62381   0.09508   0.71427   0.00000  Uiso   1.00
H900   H     0.64391   0.07668   0.69786   0.00000  Uiso   1.00
O901   O     0.37576   0.24138   0.79202   0.00000  Uiso   1.00
H902   H     0.39911   0.23036   0.81056   0.00000  Uiso   1.00
C903   C     0.75353   0.16616   0.75398   0.00000  Uiso   1.00
C904   C     0.91342   0.16725   0.74910   0.00000  Uiso   1.00
C905   C     0.83361   0.16665   0.66406   0.00000  Uiso   1.00
C906   C     0.83347   0.16670   0.83601   0.00000  Uiso   1.00
C907   C     0.85703   0.02481   0.78035   0.00000  Uiso   1.00
C908   C     0.81331   0.30884   0.71673   0.00000  Uiso   1.00
C909   C     0.81026   0.02385   0.71890   0.00000  Uiso   1.00
C910   C     0.85446   0.30973   0.78250   0.00000  Uiso   1.00
C911   C     0.68681   0.12552   0.74845   0.00000  Uiso   1.00
C912   C     0.97987   0.20618   0.76737   0.00000  Uiso   1.00
C913   C     0.97832   0.12897   0.73760   0.00000  Uiso   1.00
C914   C     0.68890   0.20437   0.77302   0.00000  Uiso   1.00
C915   C     0.86747   0.19417   0.54878   0.00000  Uiso   1.00
C916   C     0.86653   0.14368   0.95345   0.00000  Uiso   1.00
C917   C     0.80655   0.19332   0.95358   0.00000  Uiso   1.00
C918   C     0.80670   0.14218   0.54516   0.00000  Uiso   1.00
C919   C     0.86641   0.19267   0.59544   0.00000  Uiso   1.00
C920   C     0.86396   0.14105   0.90668   0.00000  Uiso   1.00
C921   C     0.80619   0.19384   0.90674   0.00000  Uiso   1.00
C922   C     0.80627   0.14036   0.59190   0.00000  Uiso   1.00
C923   C     0.83527   0.16673   0.61618   0.00000  Uiso   1.00
C924   C     0.83436   0.16694   0.88403   0.00000  Uiso   1.00
C925   C     0.83750   0.16846   0.52423   0.00000  Uiso   1.00
C926   C     0.83719   0.16893   0.97599   0.00000  Uiso   1.00
C927   C     0.95786   0.16827   0.74993   0.00000  Uiso   1.00
C928   C     0.70935   0.16499   0.75991   0.00000  Uiso   1.00
N929   N     0.83333   0.28573   0.75000   0.00000  Uiso   1.00
N930   N     0.83333   0.04760   0.75000   0.00000  Uiso   1.00
O931   O     0.77226   0.20487   0.74999   0.00000  Uiso   1.00
O932   O     0.89441   0.12846   0.75000   0.00000  Uiso   1.00
O933   O     0.89441   0.20487   0.75000   0.00000  Uiso   1.00
O934   O     0.77226   0.12846   0.74999   0.00000  Uiso   1.00
O935   O     0.83333   0.20489   0.68453   0.00000  Uiso   1.00
O936   O     0.83334   0.12845   0.81547   0.00000  Uiso   1.00
O937   O     0.83334   0.20489   0.81547   0.00000  Uiso   1.00
O938   O     0.83333   0.12845   0.68453   0.00000  Uiso   1.00
Zn939  Zn    0.83333   0.21771   0.75000   0.00000  Uiso   1.00
Zn940  Zn    0.83333   0.11563   0.75000   0.00000  Uiso   1.00
O941   O     0.88209   0.04976   0.80950   0.00000  Uiso   1.00
C942   C     0.92420   0.03932   0.80331   0.00000  Uiso   1.00
H943   H     0.94358   0.06936   0.81268   0.00000  Uiso   1.00
H944   H     0.93157   0.03065   0.76811   0.00000  Uiso   1.00
H945   H     0.93342   0.01140   0.82579   0.00000  Uiso   1.00
O946   O     0.79640   0.28482   0.68112   0.00000  Uiso   1.00
C947   C     0.82115   0.29295   0.64322   0.00000  Uiso   1.00
H948   H     0.81058   0.26963   0.61617   0.00000  Uiso   1.00
H949   H     0.85451   0.28651   0.65028   0.00000  Uiso   1.00
H950   H     0.81784   0.32790   0.63042   0.00000  Uiso   1.00
O951   O     0.78777   0.04835   0.68768   0.00000  Uiso   1.00
C952   C     0.74742   0.02985   0.68033   0.00000  Uiso   1.00
H953   H     0.72638   0.05779   0.67183   0.00000  Uiso   1.00
H954   H     0.73461   0.01186   0.70994   0.00000  Uiso   1.00
H955   H     0.74679   0.00717   0.65086   0.00000  Uiso   1.00
O956   O     0.87540   0.28625   0.81539   0.00000  Uiso   1.00
C957   C     0.85743   0.29484   0.85721   0.00000  Uiso   1.00
H958   H     0.86773   0.26863   0.88112   0.00000  Uiso   1.00
H959   H     0.82288   0.29313   0.85563   0.00000  Uiso   1.00
H960   H     0.86815   0.32798   0.87089   0.00000  Uiso   1.00
O961   O     0.89756   0.22107   0.52871   0.00000  Uiso   1.00
H962   H     0.89222   0.22340   0.99623   0.00000  Uiso   1.00
O963   O     0.89696   0.12240   0.97811   0.00000  Uiso   1.00
H964   H     0.92205   0.11991   0.95966   0.00000  Uiso   1.00
O965   O     0.77756   0.21563   0.97846   0.00000  Uiso   1.00
H966   H     0.75114   0.21643   0.96121   0.00000  Uiso   1.00
O967   O     0.77733   0.11956   0.51890   0.00000  Uiso   1.00
H968   H     0.75095   0.11732   0.53539   0.00000  Uiso   1.00
O969   O     0.89561   0.21536   0.62200   0.00000  Uiso   1.00
H970   H     0.91593   0.23182   0.60325   0.00000  Uiso   1.00
O971   O     0.89017   0.11459   0.88227   0.00000  Uiso   1.00
H972   H     0.89781   0.08802   0.90043   0.00000  Uiso   1.00
O973   O     0.77851   0.21926   0.88231   0.00000  Uiso   1.00
H974   H     0.77111   0.24608   0.90002   0.00000  Uiso   1.00
O975   O     0.77788   0.11386   0.61475   0.00000  Uiso   1.00
H976   H     0.77073   0.08681   0.59651   0.00000  Uiso   1.00
O977   O     0.70578   0.08419   0.74910   0.00000  Uiso   1.00
H978   H     0.68455   0.06012   0.75440   0.00000  Uiso   1.00
O979   O     0.96055   0.24477   0.78074   0.00000  Uiso   1.00
H980   H     0.95079   0.25958   0.75292   0.00000  Uiso   1.00
O981   O     0.95714   0.09508   0.71427   0.00000  Uiso   1.00
H982   H     0.97724   0.07668   0.69786   0.00000  Uiso   1.00
O983   O     0.70909   0.24138   0.79202   0.00000  Uiso   1.00
H984   H     0.73244   0.23036   0.81056   0.00000  Uiso   1.00
C985   C     0.08687   0.49950   0.75398   0.00000  Uiso   1.00
C986   C     0.24675   0.50058   0.74910   0.00000  Uiso   1.00
C987   C     0.16694   0.49998   0.66406   0.00000  Uiso   1.00
C988   C     0.16680   0.50003   0.83601   0.00000  Uiso   1.00
C989   C     0.19036   0.35815   0.78035   0.00000  Uiso   1.00
C990   C     0.14665   0.64217   0.71673   0.00000  Uiso   1.00
C991   C     0.14360   0.35718   0.71890   0.00000  Uiso   1.00
C992   C     0.18779   0.64306   0.78250   0.00000  Uiso   1.00
C993   C     0.02015   0.45885   0.74845   0.00000  Uiso   1.00
C994   C     0.31321   0.53952   0.76737   0.00000  Uiso   1.00
C995   C     0.31165   0.46230   0.73760   0.00000  Uiso   1.00
C996   C     0.02223   0.53770   0.77302   0.00000  Uiso   1.00
C997   C     0.20080   0.52750   0.54878   0.00000  Uiso   1.00
C998   C     0.19986   0.47701   0.95345   0.00000  Uiso   1.00
C999   C     0.13988   0.52665   0.95358   0.00000  Uiso   1.00
C1000  C     0.14004   0.47552   0.54516   0.00000  Uiso   1.00
C1001  C     0.19974   0.52600   0.59544   0.00000  Uiso   1.00
C1002  C     0.19729   0.47438   0.90668   0.00000  Uiso   1.00
C1003  C     0.13952   0.52718   0.90674   0.00000  Uiso   1.00
C1004  C     0.13960   0.47369   0.59190   0.00000  Uiso   1.00
C1005  C     0.16860   0.50007   0.61618   0.00000  Uiso   1.00
C1006  C     0.16770   0.50028   0.88403   0.00000  Uiso   1.00
C1007  C     0.17083   0.50180   0.52423   0.00000  Uiso   1.00
C1008  C     0.17052   0.50226   0.97599   0.00000  Uiso   1.00
C1009  C     0.29119   0.50160   0.74993   0.00000  Uiso   1.00
C1010  C     0.04269   0.49833   0.75991   0.00000  Uiso   1.00
N1011  N     0.16667   0.61907   0.75000   0.00000  Uiso   1.00
N1012  N     0.16667   0.38093   0.75000   0.00000  Uiso   1.00
O1013  O     0.10559   0.53821   0.74999   0.00000  Uiso   1.00
O1014  O     0.22774   0.46179   0.75000   0.00000  Uiso   1.00
O1015  O     0.22774   0.53821   0.75000   0.00000  Uiso   1.00
O1016  O     0.10559   0.46179   0.74999   0.00000  Uiso   1.00
O1017  O     0.16666   0.53822   0.68453   0.00000  Uiso   1.00
O1018  O     0.16667   0.46178   0.81547   0.00000  Uiso   1.00
O1019  O     0.16667   0.53822   0.81547   0.00000  Uiso   1.00
O1020  O     0.16666   0.46178   0.68453   0.00000  Uiso   1.00
Zn1021 Zn    0.16667   0.55104   0.75000   0.00000  Uiso   1.00
Zn1022 Zn    0.16667   0.44896   0.75000   0.00000  Uiso   1.00
O1023  O     0.21542   0.38309   0.80950   0.00000  Uiso   1.00
C1024  C     0.25754   0.37266   0.80331   0.00000  Uiso   1.00
H1025  H     0.27691   0.40270   0.81268   0.00000  Uiso   1.00
H1026  H     0.26490   0.36398   0.76811   0.00000  Uiso   1.00
H1027  H     0.26675   0.34473   0.82579   0.00000  Uiso   1.00
O1028  O     0.12973   0.61816   0.68112   0.00000  Uiso   1.00
C1029  C     0.15448   0.62629   0.64322   0.00000  Uiso   1.00
H1030  H     0.14391   0.60296   0.61617   0.00000  Uiso   1.00
H1031  H     0.18785   0.61984   0.65028   0.00000  Uiso   1.00
H1032  H     0.15117   0.66123   0.63042   0.00000  Uiso   1.00
O1033  O     0.12111   0.38168   0.68768   0.00000  Uiso   1.00
C1034  C     0.08075   0.36319   0.68033   0.00000  Uiso   1.00
H1035  H     0.05971   0.39112   0.67183   0.00000  Uiso   1.00
H1036  H     0.06794   0.34519   0.70994   0.00000  Uiso   1.00
H1037  H     0.08012   0.34051   0.65086   0.00000  Uiso   1.00
O1038  O     0.20874   0.61958   0.81539   0.00000  Uiso   1.00
C1039  C     0.19076   0.62817   0.85721   0.00000  Uiso   1.00
H1040  H     0.20106   0.60196   0.88112   0.00000  Uiso   1.00
H1041  H     0.15622   0.62646   0.85563   0.00000  Uiso   1.00
H1042  H     0.20148   0.66131   0.87089   0.00000  Uiso   1.00
O1043  O     0.23090   0.55440   0.52871   0.00000  Uiso   1.00
H1044  H     0.22556   0.55674   0.99623   0.00000  Uiso   1.00
O1045  O     0.23029   0.45573   0.97811   0.00000  Uiso   1.00
H1046  H     0.25538   0.45325   0.95966   0.00000  Uiso   1.00
O1047  O     0.11089   0.54897   0.97846   0.00000  Uiso   1.00
H1048  H     0.08447   0.54976   0.96121   0.00000  Uiso   1.00
O1049  O     0.11066   0.45289   0.51890   0.00000  Uiso   1.00
H1050  H     0.08429   0.45066   0.53539   0.00000  Uiso   1.00
O1051  O     0.22895   0.54869   0.62200   0.00000  Uiso   1.00
H1052  H     0.24926   0.56516   0.60325   0.00000  Uiso   1.00
O1053  O     0.22350   0.44793   0.88227   0.00000  Uiso   1.00
H1054  H     0.23114   0.42135   0.90043   0.00000  Uiso   1.00
O1055  O     0.11184   0.55260   0.88231   0.00000  Uiso   1.00
H1056  H     0.10444   0.57941   0.90002   0.00000  Uiso   1.00
O1057  O     0.11121   0.44719   0.61475   0.00000  Uiso   1.00
H1058  H     0.10407   0.42014   0.59651   0.00000  Uiso   1.00
O1059  O     0.03911   0.41753   0.74910   0.00000  Uiso   1.00
H1060  H     0.01788   0.39345   0.75440   0.00000  Uiso   1.00
O1061  O     0.29388   0.57810   0.78074   0.00000  Uiso   1.00
H1062  H     0.28412   0.59291   0.75292   0.00000  Uiso   1.00
O1063  O     0.29047   0.42841   0.71427   0.00000  Uiso   1.00
H1064  H     0.31058   0.41001   0.69786   0.00000  Uiso   1.00
O1065  O     0.04243   0.57471   0.79202   0.00000  Uiso   1.00
H1066  H     0.06577   0.56370   0.81056   0.00000  Uiso   1.00
C1067  C     0.42020   0.49950   0.75398   0.00000  Uiso   1.00
C1068  C     0.58009   0.50058   0.74910   0.00000  Uiso   1.00
C1069  C     0.50028   0.49998   0.66406   0.00000  Uiso   1.00
C1070  C     0.50014   0.50003   0.83601   0.00000  Uiso   1.00
C1071  C     0.52369   0.35815   0.78035   0.00000  Uiso   1.00
C1072  C     0.47998   0.64217   0.71673   0.00000  Uiso   1.00
C1073  C     0.47693   0.35718   0.71890   0.00000  Uiso   1.00
C1074  C     0.52113   0.64306   0.78250   0.00000  Uiso   1.00
C1075  C     0.35348   0.45885   0.74845   0.00000  Uiso   1.00
C1076  C     0.64654   0.53952   0.76737   0.00000  Uiso   1.00
C1077  C     0.64499   0.46230   0.73760   0.00000  Uiso   1.00
C1078  C     0.35557   0.53770   0.77302   0.00000  Uiso   1.00
C1079  C     0.53413   0.52750   0.54878   0.00000  Uiso   1.00
C1080  C     0.53319   0.47701   0.95345   0.00000  Uiso   1.00
C1081  C     0.47321   0.52665   0.95358   0.00000  Uiso   1.00
C1082  C     0.47337   0.47552   0.54516   0.00000  Uiso   1.00
C1083  C     0.53308   0.52600   0.59544   0.00000  Uiso   1.00
C1084  C     0.53062   0.47438   0.90668   0.00000  Uiso   1.00
C1085  C     0.47286   0.52718   0.90674   0.00000  Uiso   1.00
C1086  C     0.47294   0.47369   0.59190   0.00000  Uiso   1.00
C1087  C     0.50193   0.50007   0.61618   0.00000  Uiso   1.00
C1088  C     0.50103   0.50028   0.88403   0.00000  Uiso   1.00
C1089  C     0.50416   0.50180   0.52423   0.00000  Uiso   1.00
C1090  C     0.50385   0.50226   0.97599   0.00000  Uiso   1.00
C1091  C     0.62453   0.50160   0.74993   0.00000  Uiso   1.00
C1092  C     0.37602   0.49833   0.75991   0.00000  Uiso   1.00
N1093  N     0.50000   0.61907   0.75000   0.00000  Uiso   1.00
N1094  N     0.50000   0.38093   0.75000   0.00000  Uiso   1.00
O1095  O     0.43892   0.53821   0.74999   0.00000  Uiso   1.00
O1096  O     0.56108   0.46179   0.75000   0.00000  Uiso   1.00
O1097  O     0.56108   0.53821   0.75000   0.00000  Uiso   1.00
O1098  O     0.43892   0.46179   0.74999   0.00000  Uiso   1.00
O1099  O     0.50000   0.53822   0.68453   0.00000  Uiso   1.00
O1100  O     0.50000   0.46178   0.81547   0.00000  Uiso   1.00
O1101  O     0.50000   0.53822   0.81547   0.00000  Uiso   1.00
O1102  O     0.50000   0.46178   0.68453   0.00000  Uiso   1.00
Zn1103 Zn    0.50000   0.55104   0.75000   0.00000  Uiso   1.00
Zn1104 Zn    0.50000   0.44896   0.75000   0.00000  Uiso   1.00
O1105  O     0.54875   0.38309   0.80950   0.00000  Uiso   1.00
C1106  C     0.59087   0.37266   0.80331   0.00000  Uiso   1.00
H1107  H     0.61025   0.40270   0.81268   0.00000  Uiso   1.00
H1108  H     0.59823   0.36398   0.76811   0.00000  Uiso   1.00
H1109  H     0.60009   0.34473   0.82579   0.00000  Uiso   1.00
O1110  O     0.46307   0.61816   0.68112   0.00000  Uiso   1.00
C1111  C     0.48782   0.62629   0.64322   0.00000  Uiso   1.00
H1112  H     0.47725   0.60296   0.61617   0.00000  Uiso   1.00
H1113  H     0.52118   0.61984   0.65028   0.00000  Uiso   1.00
H1114  H     0.48450   0.66123   0.63042   0.00000  Uiso   1.00
O1115  O     0.45444   0.38168   0.68768   0.00000  Uiso   1.00
C1116  C     0.41408   0.36319   0.68033   0.00000  Uiso   1.00
H1117  H     0.39304   0.39112   0.67183   0.00000  Uiso   1.00
H1118  H     0.40127   0.34519   0.70994   0.00000  Uiso   1.00
H1119  H     0.41345   0.34051   0.65086   0.00000  Uiso   1.00
O1120  O     0.54207   0.61958   0.81539   0.00000  Uiso   1.00
C1121  C     0.52410   0.62817   0.85721   0.00000  Uiso   1.00
H1122  H     0.53439   0.60196   0.88112   0.00000  Uiso   1.00
H1123  H     0.48955   0.62646   0.85563   0.00000  Uiso   1.00
H1124  H     0.53482   0.66131   0.87089   0.00000  Uiso   1.00
O1125  O     0.56423   0.55440   0.52871   0.00000  Uiso   1.00
H1126  H     0.55889   0.55674   0.99623   0.00000  Uiso   1.00
O1127  O     0.56363   0.45573   0.97811   0.00000  Uiso   1.00
H1128  H     0.58871   0.45325   0.95966   0.00000  Uiso   1.00
O1129  O     0.44422   0.54897   0.97846   0.00000  Uiso   1.00
H1130  H     0.41781   0.54976   0.96121   0.00000  Uiso   1.00
O1131  O     0.44399   0.45289   0.51890   0.00000  Uiso   1.00
H1132  H     0.41762   0.45066   0.53539   0.00000  Uiso   1.00
O1133  O     0.56228   0.54869   0.62200   0.00000  Uiso   1.00
H1134  H     0.58260   0.56516   0.60325   0.00000  Uiso   1.00
O1135  O     0.55684   0.44793   0.88227   0.00000  Uiso   1.00
H1136  H     0.56448   0.42135   0.90043   0.00000  Uiso   1.00
O1137  O     0.44518   0.55260   0.88231   0.00000  Uiso   1.00
H1138  H     0.43778   0.57941   0.90002   0.00000  Uiso   1.00
O1139  O     0.44455   0.44719   0.61475   0.00000  Uiso   1.00
H1140  H     0.43740   0.42014   0.59651   0.00000  Uiso   1.00
O1141  O     0.37244   0.41753   0.74910   0.00000  Uiso   1.00
H1142  H     0.35121   0.39345   0.75440   0.00000  Uiso   1.00
O1143  O     0.62721   0.57810   0.78074   0.00000  Uiso   1.00
H1144  H     0.61745   0.59291   0.75292   0.00000  Uiso   1.00
O1145  O     0.62381   0.42841   0.71427   0.00000  Uiso   1.00
H1146  H     0.64391   0.41001   0.69786   0.00000  Uiso   1.00
O1147  O     0.37576   0.57471   0.79202   0.00000  Uiso   1.00
H1148  H     0.39911   0.56370   0.81056   0.00000  Uiso   1.00
C1149  C     0.75353   0.49950   0.75398   0.00000  Uiso   1.00
C1150  C     0.91342   0.50058   0.74910   0.00000  Uiso   1.00
C1151  C     0.83361   0.49998   0.66406   0.00000  Uiso   1.00
C1152  C     0.83347   0.50003   0.83601   0.00000  Uiso   1.00
C1153  C     0.85703   0.35815   0.78035   0.00000  Uiso   1.00
C1154  C     0.81331   0.64217   0.71673   0.00000  Uiso   1.00
C1155  C     0.81026   0.35718   0.71890   0.00000  Uiso   1.00
C1156  C     0.85446   0.64306   0.78250   0.00000  Uiso   1.00
C1157  C     0.68681   0.45885   0.74845   0.00000  Uiso   1.00
C1158  C     0.97987   0.53952   0.76737   0.00000  Uiso   1.00
C1159  C     0.97832   0.46230   0.73760   0.00000  Uiso   1.00
C1160  C     0.68890   0.53770   0.77302   0.00000  Uiso   1.00
C1161  C     0.86747   0.52750   0.54878   0.00000  Uiso   1.00
C1162  C     0.86653   0.47701   0.95345   0.00000  Uiso   1.00
C1163  C     0.80655   0.52665   0.95358   0.00000  Uiso   1.00
C1164  C     0.80670   0.47552   0.54516   0.00000  Uiso   1.00
C1165  C     0.86641   0.52600   0.59544   0.00000  Uiso   1.00
C1166  C     0.86396   0.47438   0.90668   0.00000  Uiso   1.00
C1167  C     0.80619   0.52718   0.90674   0.00000  Uiso   1.00
C1168  C     0.80627   0.47369   0.59190   0.00000  Uiso   1.00
C1169  C     0.83527   0.50007   0.61618   0.00000  Uiso   1.00
C1170  C     0.83436   0.50028   0.88403   0.00000  Uiso   1.00
C1171  C     0.83750   0.50180   0.52423   0.00000  Uiso   1.00
C1172  C     0.83719   0.50226   0.97599   0.00000  Uiso   1.00
C1173  C     0.95786   0.50160   0.74993   0.00000  Uiso   1.00
C1174  C     0.70935   0.49833   0.75991   0.00000  Uiso   1.00
N1175  N     0.83333   0.61907   0.75000   0.00000  Uiso   1.00
N1176  N     0.83333   0.38093   0.75000   0.00000  Uiso   1.00
O1177  O     0.77226   0.53821   0.74999   0.00000  Uiso   1.00
O1178  O     0.89441   0.46179   0.75000   0.00000  Uiso   1.00
O1179  O     0.89441   0.53821   0.75000   0.00000  Uiso   1.00
O1180  O     0.77226   0.46179   0.74999   0.00000  Uiso   1.00
O1181  O     0.83333   0.53822   0.68453   0.00000  Uiso   1.00
O1182  O     0.83334   0.46178   0.81547   0.00000  Uiso   1.00
O1183  O     0.83334   0.53822   0.81547   0.00000  Uiso   1.00
O1184  O     0.83333   0.46178   0.68453   0.00000  Uiso   1.00
Zn1185 Zn    0.83333   0.55104   0.75000   0.00000  Uiso   1.00
Zn1186 Zn    0.83333   0.44896   0.75000   0.00000  Uiso   1.00
O1187  O     0.88209   0.38309   0.80950   0.00000  Uiso   1.00
C1188  C     0.92420   0.37266   0.80331   0.00000  Uiso   1.00
H1189  H     0.94358   0.40270   0.81268   0.00000  Uiso   1.00
H1190  H     0.93157   0.36398   0.76811   0.00000  Uiso   1.00
H1191  H     0.93342   0.34473   0.82579   0.00000  Uiso   1.00
O1192  O     0.79640   0.61816   0.68112   0.00000  Uiso   1.00
C1193  C     0.82115   0.62629   0.64322   0.00000  Uiso   1.00
H1194  H     0.81058   0.60296   0.61617   0.00000  Uiso   1.00
H1195  H     0.85451   0.61984   0.65028   0.00000  Uiso   1.00
H1196  H     0.81784   0.66123   0.63042   0.00000  Uiso   1.00
O1197  O     0.78777   0.38168   0.68768   0.00000  Uiso   1.00
C1198  C     0.74742   0.36319   0.68033   0.00000  Uiso   1.00
H1199  H     0.72638   0.39112   0.67183   0.00000  Uiso   1.00
H1200  H     0.73461   0.34519   0.70994   0.00000  Uiso   1.00
H1201  H     0.74679   0.34051   0.65086   0.00000  Uiso   1.00
O1202  O     0.87540   0.61958   0.81539   0.00000  Uiso   1.00
C1203  C     0.85743   0.62817   0.85721   0.00000  Uiso   1.00
H1204  H     0.86773   0.60196   0.88112   0.00000  Uiso   1.00
H1205  H     0.82288   0.62646   0.85563   0.00000  Uiso   1.00
H1206  H     0.86815   0.66131   0.87089   0.00000  Uiso   1.00
O1207  O     0.89756   0.55440   0.52871   0.00000  Uiso   1.00
H1208  H     0.89222   0.55674   0.99623   0.00000  Uiso   1.00
O1209  O     0.89696   0.45573   0.97811   0.00000  Uiso   1.00
H1210  H     0.92205   0.45325   0.95966   0.00000  Uiso   1.00
O1211  O     0.77756   0.54897   0.97846   0.00000  Uiso   1.00
H1212  H     0.75114   0.54976   0.96121   0.00000  Uiso   1.00
O1213  O     0.77733   0.45289   0.51890   0.00000  Uiso   1.00
H1214  H     0.75095   0.45066   0.53539   0.00000  Uiso   1.00
O1215  O     0.89561   0.54869   0.62200   0.00000  Uiso   1.00
H1216  H     0.91593   0.56516   0.60325   0.00000  Uiso   1.00
O1217  O     0.89017   0.44793   0.88227   0.00000  Uiso   1.00
H1218  H     0.89781   0.42135   0.90043   0.00000  Uiso   1.00
O1219  O     0.77851   0.55260   0.88231   0.00000  Uiso   1.00
H1220  H     0.77111   0.57941   0.90002   0.00000  Uiso   1.00
O1221  O     0.77788   0.44719   0.61475   0.00000  Uiso   1.00
H1222  H     0.77073   0.42014   0.59651   0.00000  Uiso   1.00
O1223  O     0.70578   0.41753   0.74910   0.00000  Uiso   1.00
H1224  H     0.68455   0.39345   0.75440   0.00000  Uiso   1.00
O1225  O     0.96055   0.57810   0.78074   0.00000  Uiso   1.00
H1226  H     0.95079   0.59291   0.75292   0.00000  Uiso   1.00
O1227  O     0.95714   0.42841   0.71427   0.00000  Uiso   1.00
H1228  H     0.97724   0.41001   0.69786   0.00000  Uiso   1.00
O1229  O     0.70909   0.57471   0.79202   0.00000  Uiso   1.00
H1230  H     0.73244   0.56370   0.81056   0.00000  Uiso   1.00
C1231  C     0.08687   0.83283   0.75398   0.00000  Uiso   1.00
C1232  C     0.24675   0.83392   0.74910   0.00000  Uiso   1.00
C1233  C     0.16694   0.83332   0.66406   0.00000  Uiso   1.00
C1234  C     0.16680   0.83336   0.83601   0.00000  Uiso   1.00
C1235  C     0.19036   0.69148   0.78035   0.00000  Uiso   1.00
C1236  C     0.14665   0.97551   0.71673   0.00000  Uiso   1.00
C1237  C     0.14360   0.69052   0.71890   0.00000  Uiso   1.00
C1238  C     0.18779   0.97640   0.78250   0.00000  Uiso   1.00
C1239  C     0.02015   0.79218   0.74845   0.00000  Uiso   1.00
C1240  C     0.31321   0.87285   0.76737   0.00000  Uiso   1.00
C1241  C     0.31165   0.79564   0.73760   0.00000  Uiso   1.00
C1242  C     0.02223   0.87104   0.77302   0.00000  Uiso   1.00
C1243  C     0.20080   0.86084   0.54878   0.00000  Uiso   1.00
C1244  C     0.19986   0.81035   0.95345   0.00000  Uiso   1.00
C1245  C     0.13988   0.85999   0.95358   0.00000  Uiso   1.00
C1246  C     0.14004   0.80885   0.54516   0.00000  Uiso   1.00
C1247  C     0.19974   0.85934   0.59544   0.00000  Uiso   1.00
C1248  C     0.19729   0.80772   0.90668   0.00000  Uiso   1.00
C1249  C     0.13952   0.86051   0.90674   0.00000  Uiso   1.00
C1250  C     0.13960   0.80703   0.59190   0.00000  Uiso   1.00
C1251  C     0.16860   0.83340   0.61618   0.00000  Uiso   1.00
C1252  C     0.16770   0.83361   0.88403   0.00000  Uiso   1.00
C1253  C     0.17083   0.83513   0.52423   0.00000  Uiso   1.00
C1254  C     0.17052   0.83560   0.97599   0.00000  Uiso   1.00
C1255  C     0.29119   0.83494   0.74993   0.00000  Uiso   1.00
C1256  C     0.04269   0.83166   0.75991   0.00000  Uiso   1.00
N1257  N     0.16667   0.95240   0.75000   0.00000  Uiso   1.00
N1258  N     0.16667   0.71427   0.75000   0.00000  Uiso   1.00
O1259  O     0.10559   0.87154   0.74999   0.00000  Uiso   1.00
O1260  O     0.22774   0.79513   0.75000   0.00000  Uiso   1.00
O1261  O     0.22774   0.87154   0.75000   0.00000  Uiso   1.00
O1262  O     0.10559   0.79513   0.74999   0.00000  Uiso   1.00
O1263  O     0.16666   0.87155   0.68453   0.00000  Uiso   1.00
O1264  O     0.16667   0.79511   0.81547   0.00000  Uiso   1.00
O1265  O     0.16667   0.87155   0.81547   0.00000  Uiso   1.00
O1266  O     0.16666   0.79511   0.68453   0.00000  Uiso   1.00
Zn1267 Zn    0.16667   0.88437   0.75000   0.00000  Uiso   1.00
Zn1268 Zn    0.16667   0.78229   0.75000   0.00000  Uiso   1.00
O1269  O     0.21542   0.71643   0.80950   0.00000  Uiso   1.00
C1270  C     0.25754   0.70599   0.80331   0.00000  Uiso   1.00
H1271  H     0.27691   0.73603   0.81268   0.00000  Uiso   1.00
H1272  H     0.26490   0.69731   0.76811   0.00000  Uiso   1.00
H1273  H     0.26675   0.67807   0.82579   0.00000  Uiso   1.00
O1274  O     0.12973   0.95149   0.68112   0.00000  Uiso   1.00
C1275  C     0.15448   0.95962   0.64322   0.00000  Uiso   1.00
H1276  H     0.14391   0.93630   0.61617   0.00000  Uiso   1.00
H1277  H     0.18785   0.95318   0.65028   0.00000  Uiso   1.00
H1278  H     0.15117   0.99456   0.63042   0.00000  Uiso   1.00
O1279  O     0.12111   0.71502   0.68768   0.00000  Uiso   1.00
C1280  C     0.08075   0.69652   0.68033   0.00000  Uiso   1.00
H1281  H     0.05971   0.72446   0.67183   0.00000  Uiso   1.00
H1282  H     0.06794   0.67853   0.70994   0.00000  Uiso   1.00
H1283  H     0.08012   0.67384   0.65086   0.00000  Uiso   1.00
O1284  O     0.20874   0.95292   0.81539   0.00000  Uiso   1.00
C1285  C     0.19076   0.96151   0.85721   0.00000  Uiso   1.00
H1286  H     0.20106   0.93529   0.88112   0.00000  Uiso   1.00
H1287  H     0.15622   0.95979   0.85563   0.00000  Uiso   1.00
H1288  H     0.20148   0.99464   0.87089   0.00000  Uiso   1.00
O1289  O     0.23090   0.88774   0.52871   0.00000  Uiso   1.00
H1290  H     0.22556   0.89007   0.99623   0.00000  Uiso   1.00
O1291  O     0.23029   0.78906   0.97811   0.00000  Uiso   1.00
H1292  H     0.25538   0.78658   0.95966   0.00000  Uiso   1.00
O1293  O     0.11089   0.88230   0.97846   0.00000  Uiso   1.00
H1294  H     0.08447   0.88309   0.96121   0.00000  Uiso   1.00
O1295  O     0.11066   0.78622   0.51890   0.00000  Uiso   1.00
H1296  H     0.08429   0.78399   0.53539   0.00000  Uiso   1.00
O1297  O     0.22895   0.88203   0.62200   0.00000  Uiso   1.00
H1298  H     0.24926   0.89849   0.60325   0.00000  Uiso   1.00
O1299  O     0.22350   0.78126   0.88227   0.00000  Uiso   1.00
H1300  H     0.23114   0.75469   0.90043   0.00000  Uiso   1.00
O1301  O     0.11184   0.88593   0.88231   0.00000  Uiso   1.00
H1302  H     0.10444   0.91275   0.90002   0.00000  Uiso   1.00
O1303  O     0.11121   0.78053   0.61475   0.00000  Uiso   1.00
H1304  H     0.10407   0.75347   0.59651   0.00000  Uiso   1.00
O1305  O     0.03911   0.75086   0.74910   0.00000  Uiso   1.00
H1306  H     0.01788   0.72679   0.75440   0.00000  Uiso   1.00
O1307  O     0.29388   0.91143   0.78074   0.00000  Uiso   1.00
H1308  H     0.28412   0.92624   0.75292   0.00000  Uiso   1.00
O1309  O     0.29047   0.76174   0.71427   0.00000  Uiso   1.00
H1310  H     0.31058   0.74335   0.69786   0.00000  Uiso   1.00
O1311  O     0.04243   0.90804   0.79202   0.00000  Uiso   1.00
H1312  H     0.06577   0.89703   0.81056   0.00000  Uiso   1.00
C1313  C     0.42020   0.83283   0.75398   0.00000  Uiso   1.00
C1314  C     0.58009   0.83392   0.74910   0.00000  Uiso   1.00
C1315  C     0.50028   0.83332   0.66406   0.00000  Uiso   1.00
C1316  C     0.50014   0.83336   0.83601   0.00000  Uiso   1.00
C1317  C     0.52369   0.69148   0.78035   0.00000  Uiso   1.00
C1318  C     0.47998   0.97551   0.71673   0.00000  Uiso   1.00
C1319  C     0.47693   0.69052   0.71890   0.00000  Uiso   1.00
C1320  C     0.52113   0.97640   0.78250   0.00000  Uiso   1.00
C1321  C     0.35348   0.79218   0.74845   0.00000  Uiso   1.00
C1322  C     0.64654   0.87285   0.76737   0.00000  Uiso   1.00
C1323  C     0.64499   0.79564   0.73760   0.00000  Uiso   1.00
C1324  C     0.35557   0.87104   0.77302   0.00000  Uiso   1.00
C1325  C     0.53413   0.86084   0.54878   0.00000  Uiso   1.00
C1326  C     0.53319   0.81035   0.95345   0.00000  Uiso   1.00
C1327  C     0.47321   0.85999   0.95358   0.00000  Uiso   1.00
C1328  C     0.47337   0.80885   0.54516   0.00000  Uiso   1.00
C1329  C     0.53308   0.85934   0.59544   0.00000  Uiso   1.00
C1330  C     0.53062   0.80772   0.90668   0.00000  Uiso   1.00
C1331  C     0.47286   0.86051   0.90674   0.00000  Uiso   1.00
C1332  C     0.47294   0.80703   0.59190   0.00000  Uiso   1.00
C1333  C     0.50193   0.83340   0.61618   0.00000  Uiso   1.00
C1334  C     0.50103   0.83361   0.88403   0.00000  Uiso   1.00
C1335  C     0.50416   0.83513   0.52423   0.00000  Uiso   1.00
C1336  C     0.50385   0.83560   0.97599   0.00000  Uiso   1.00
C1337  C     0.62453   0.83494   0.74993   0.00000  Uiso   1.00
C1338  C     0.37602   0.83166   0.75991   0.00000  Uiso   1.00
N1339  N     0.50000   0.95240   0.75000   0.00000  Uiso   1.00
N1340  N     0.50000   0.71427   0.75000   0.00000  Uiso   1.00
O1341  O     0.43892   0.87154   0.74999   0.00000  Uiso   1.00
O1342  O     0.56108   0.79513   0.75000   0.00000  Uiso   1.00
O1343  O     0.56108   0.87154   0.75000   0.00000  Uiso   1.00
O1344  O     0.43892   0.79513   0.74999   0.00000  Uiso   1.00
O1345  O     0.50000   0.87155   0.68453   0.00000  Uiso   1.00
O1346  O     0.50000   0.79511   0.81547   0.00000  Uiso   1.00
O1347  O     0.50000   0.87155   0.81547   0.00000  Uiso   1.00
O1348  O     0.50000   0.79511   0.68453   0.00000  Uiso   1.00
Zn1349 Zn    0.50000   0.88437   0.75000   0.00000  Uiso   1.00
Zn1350 Zn    0.50000   0.78229   0.75000   0.00000  Uiso   1.00
O1351  O     0.54875   0.71643   0.80950   0.00000  Uiso   1.00
C1352  C     0.59087   0.70599   0.80331   0.00000  Uiso   1.00
H1353  H     0.61025   0.73603   0.81268   0.00000  Uiso   1.00
H1354  H     0.59823   0.69731   0.76811   0.00000  Uiso   1.00
H1355  H     0.60009   0.67807   0.82579   0.00000  Uiso   1.00
O1356  O     0.46307   0.95149   0.68112   0.00000  Uiso   1.00
C1357  C     0.48782   0.95962   0.64322   0.00000  Uiso   1.00
H1358  H     0.47725   0.93630   0.61617   0.00000  Uiso   1.00
H1359  H     0.52118   0.95318   0.65028   0.00000  Uiso   1.00
H1360  H     0.48450   0.99456   0.63042   0.00000  Uiso   1.00
O1361  O     0.45444   0.71502   0.68768   0.00000  Uiso   1.00
C1362  C     0.41408   0.69652   0.68033   0.00000  Uiso   1.00
H1363  H     0.39304   0.72446   0.67183   0.00000  Uiso   1.00
H1364  H     0.40127   0.67853   0.70994   0.00000  Uiso   1.00
H1365  H     0.41345   0.67384   0.65086   0.00000  Uiso   1.00
O1366  O     0.54207   0.95292   0.81539   0.00000  Uiso   1.00
C1367  C     0.52410   0.96151   0.85721   0.00000  Uiso   1.00
H1368  H     0.53439   0.93529   0.88112   0.00000  Uiso   1.00
H1369  H     0.48955   0.95979   0.85563   0.00000  Uiso   1.00
H1370  H     0.53482   0.99464   0.87089   0.00000  Uiso   1.00
O1371  O     0.56423   0.88774   0.52871   0.00000  Uiso   1.00
H1372  H     0.55889   0.89007   0.99623   0.00000  Uiso   1.00
O1373  O     0.56363   0.78906   0.97811   0.00000  Uiso   1.00
H1374  H     0.58871   0.78658   0.95966   0.00000  Uiso   1.00
O1375  O     0.44422   0.88230   0.97846   0.00000  Uiso   1.00
H1376  H     0.41781   0.88309   0.96121   0.00000  Uiso   1.00
O1377  O     0.44399   0.78622   0.51890   0.00000  Uiso   1.00
H1378  H     0.41762   0.78399   0.53539   0.00000  Uiso   1.00
O1379  O     0.56228   0.88203   0.62200   0.00000  Uiso   1.00
H1380  H     0.58260   0.89849   0.60325   0.00000  Uiso   1.00
O1381  O     0.55684   0.78126   0.88227   0.00000  Uiso   1.00
H1382  H     0.56448   0.75469   0.90043   0.00000  Uiso   1.00
O1383  O     0.44518   0.88593   0.88231   0.00000  Uiso   1.00
H1384  H     0.43778   0.91275   0.90002   0.00000  Uiso   1.00
O1385  O     0.44455   0.78053   0.61475   0.00000  Uiso   1.00
H1386  H     0.43740   0.75347   0.59651   0.00000  Uiso   1.00
O1387  O     0.37244   0.75086   0.74910   0.00000  Uiso   1.00
H1388  H     0.35121   0.72679   0.75440   0.00000  Uiso   1.00
O1389  O     0.62721   0.91143   0.78074   0.00000  Uiso   1.00
H1390  H     0.61745   0.92624   0.75292   0.00000  Uiso   1.00
O1391  O     0.62381   0.76174   0.71427   0.00000  Uiso   1.00
H1392  H     0.64391   0.74335   0.69786   0.00000  Uiso   1.00
O1393  O     0.37576   0.90804   0.79202   0.00000  Uiso   1.00
H1394  H     0.39911   0.89703   0.81056   0.00000  Uiso   1.00
C1395  C     0.75353   0.83283   0.75398   0.00000  Uiso   1.00
C1396  C     0.91342   0.83392   0.74910   0.00000  Uiso   1.00
C1397  C     0.83361   0.83332   0.66406   0.00000  Uiso   1.00
C1398  C     0.83347   0.83336   0.83601   0.00000  Uiso   1.00
C1399  C     0.85703   0.69148   0.78035   0.00000  Uiso   1.00
C1400  C     0.81331   0.97551   0.71673   0.00000  Uiso   1.00
C1401  C     0.81026   0.69052   0.71890   0.00000  Uiso   1.00
C1402  C     0.85446   0.97640   0.78250   0.00000  Uiso   1.00
C1403  C     0.68681   0.79218   0.74845   0.00000  Uiso   1.00
C1404  C     0.97987   0.87285   0.76737   0.00000  Uiso   1.00
C1405  C     0.97832   0.79564   0.73760   0.00000  Uiso   1.00
C1406  C     0.68890   0.87104   0.77302   0.00000  Uiso   1.00
C1407  C     0.86747   0.86084   0.54878   0.00000  Uiso   1.00
C1408  C     0.86653   0.81035   0.95345   0.00000  Uiso   1.00
C1409  C     0.80655   0.85999   0.95358   0.00000  Uiso   1.00
C1410  C     0.80670   0.80885   0.54516   0.00000  Uiso   1.00
C1411  C     0.86641   0.85934   0.59544   0.00000  Uiso   1.00
C1412  C     0.86396   0.80772   0.90668   0.00000  Uiso   1.00
C1413  C     0.80619   0.86051   0.90674   0.00000  Uiso   1.00
C1414  C     0.80627   0.80703   0.59190   0.00000  Uiso   1.00
C1415  C     0.83527   0.83340   0.61618   0.00000  Uiso   1.00
C1416  C     0.83436   0.83361   0.88403   0.00000  Uiso   1.00
C1417  C     0.83750   0.83513   0.52423   0.00000  Uiso   1.00
C1418  C     0.83719   0.83560   0.97599   0.00000  Uiso   1.00
C1419  C     0.95786   0.83494   0.74993   0.00000  Uiso   1.00
C1420  C     0.70935   0.83166   0.75991   0.00000  Uiso   1.00
N1421  N     0.83333   0.95240   0.75000   0.00000  Uiso   1.00
N1422  N     0.83333   0.71427   0.75000   0.00000  Uiso   1.00
O1423  O     0.77226   0.87154   0.74999   0.00000  Uiso   1.00
O1424  O     0.89441   0.79513   0.75000   0.00000  Uiso   1.00
O1425  O     0.89441   0.87154   0.75000   0.00000  Uiso   1.00
O1426  O     0.77226   0.79513   0.74999   0.00000  Uiso   1.00
O1427  O     0.83333   0.87155   0.68453   0.00000  Uiso   1.00
O1428  O     0.83334   0.79511   0.81547   0.00000  Uiso   1.00
O1429  O     0.83334   0.87155   0.81547   0.00000  Uiso   1.00
O1430  O     0.83333   0.79511   0.68453   0.00000  Uiso   1.00
Zn1431 Zn    0.83333   0.88437   0.75000   0.00000  Uiso   1.00
Zn1432 Zn    0.83333   0.78229   0.75000   0.00000  Uiso   1.00
O1433  O     0.88209   0.71643   0.80950   0.00000  Uiso   1.00
C1434  C     0.92420   0.70599   0.80331   0.00000  Uiso   1.00
H1435  H     0.94358   0.73603   0.81268   0.00000  Uiso   1.00
H1436  H     0.93157   0.69731   0.76811   0.00000  Uiso   1.00
H1437  H     0.93342   0.67807   0.82579   0.00000  Uiso   1.00
O1438  O     0.79640   0.95149   0.68112   0.00000  Uiso   1.00
C1439  C     0.82115   0.95962   0.64322   0.00000  Uiso   1.00
H1440  H     0.81058   0.93630   0.61617   0.00000  Uiso   1.00
H1441  H     0.85451   0.95318   0.65028   0.00000  Uiso   1.00
H1442  H     0.81784   0.99456   0.63042   0.00000  Uiso   1.00
O1443  O     0.78777   0.71502   0.68768   0.00000  Uiso   1.00
C1444  C     0.74742   0.69652   0.68033   0.00000  Uiso   1.00
H1445  H     0.72638   0.72446   0.67183   0.00000  Uiso   1.00
H1446  H     0.73461   0.67853   0.70994   0.00000  Uiso   1.00
H1447  H     0.74679   0.67384   0.65086   0.00000  Uiso   1.00
O1448  O     0.87540   0.95292   0.81539   0.00000  Uiso   1.00
C1449  C     0.85743   0.96151   0.85721   0.00000  Uiso   1.00
H1450  H     0.86773   0.93529   0.88112   0.00000  Uiso   1.00
H1451  H     0.82288   0.95979   0.85563   0.00000  Uiso   1.00
H1452  H     0.86815   0.99464   0.87089   0.00000  Uiso   1.00
O1453  O     0.89756   0.88774   0.52871   0.00000  Uiso   1.00
H1454  H     0.89222   0.89007   0.99623   0.00000  Uiso   1.00
O1455  O     0.89696   0.78906   0.97811   0.00000  Uiso   1.00
H1456  H     0.92205   0.78658   0.95966   0.00000  Uiso   1.00
O1457  O     0.77756   0.88230   0.97846   0.00000  Uiso   1.00
H1458  H     0.75114   0.88309   0.96121   0.00000  Uiso   1.00
O1459  O     0.77733   0.78622   0.51890   0.00000  Uiso   1.00
H1460  H     0.75095   0.78399   0.53539   0.00000  Uiso   1.00
O1461  O     0.89561   0.88203   0.62200   0.00000  Uiso   1.00
H1462  H     0.91593   0.89849   0.60325   0.00000  Uiso   1.00
O1463  O     0.89017   0.78126   0.88227   0.00000  Uiso   1.00
H1464  H     0.89781   0.75469   0.90043   0.00000  Uiso   1.00
O1465  O     0.77851   0.88593   0.88231   0.00000  Uiso   1.00
H1466  H     0.77111   0.91275   0.90002   0.00000  Uiso   1.00
O1467  O     0.77788   0.78053   0.61475   0.00000  Uiso   1.00
H1468  H     0.77073   0.75347   0.59651   0.00000  Uiso   1.00
O1469  O     0.70578   0.75086   0.74910   0.00000  Uiso   1.00
H1470  H     0.68455   0.72679   0.75440   0.00000  Uiso   1.00
O1471  O     0.96055   0.91143   0.78074   0.00000  Uiso   1.00
H1472  H     0.95079   0.92624   0.75292   0.00000  Uiso   1.00
O1473  O     0.95714   0.76174   0.71427   0.00000  Uiso   1.00
H1474  H     0.97724   0.74335   0.69786   0.00000  Uiso   1.00
O1475  O     0.70909   0.90804   0.79202   0.00000  Uiso   1.00
H1476  H     0.73244   0.89703   0.81056   0.00000  Uiso   1.00
loop_
_geom_bond_atom_site_label_1
_geom_bond_atom_site_label_2
_geom_bond_distance
_geom_bond_site_symmetry_2
_ccdc_geom_bond_type
C1     O32     1.287   .     A
C1     O29     1.290   .     A
C1     C26     1.437   .     S
C2     O31     1.284   .     A
C2     O30     1.290   .     A
C2     C25     1.432   .     S
C3     O33     1.287   .     A
C3     C21     1.435   .     S
C3     O36     1.287   .     A
C4     O35     1.288   .     A
C4     O34     1.288   .     A
C4     C22     1.438   .     S
C5     N28     1.367   .     A
C5     O39     1.383   .     S
C5     C500    1.436   1_545 S
C6     O44     1.380   .     S
C6     N27     1.371   .     A
C6     C253    1.439   .     S
C7     O49     1.389   .     S
C7     N28     1.368   .     A
C7     C498    1.439   1_545 S
C8     O54     1.382   .     S
C8     N27     1.369   .     A
C8     C251    1.436   .     S
C9     C26     1.403   .     A
C9     O75     1.380   .     S
C9     C175    1.388   1_455 S
C10    O77     1.375   .     S
C10    C25     1.411   .     A
C10    C94     1.376   .     S
C11    C25     1.402   .     A
C11    O79     1.384   .     S
C11    C91     1.388   .     S
C12    O81     1.380   .     S
C12    C26     1.410   .     A
C12    C174    1.376   1_455 S
C13    C23     1.414   .     A
C13    O59     1.386   .     S
C13    C17     1.399   .     A
C14    C18     1.404   .     A
C14    C24     1.399   .     A
C14    O61     1.382   .     S
C15    C19     1.403   .     A
C15    C24     1.400   .     A
C15    O63     1.383   .     S
C16    C20     1.401   .     A
C16    C23     1.403   .     A
C16    O65     1.383   .     S
C17    O67     1.386   .     S
C17    C21     1.403   .     A
C18    O69     1.381   .     S
C18    C22     1.404   .     A
C19    O71     1.382   .     S
C19    C22     1.404   .     A
C20    O73     1.381   .     S
C20    C21     1.400   .     A
C23    C762    1.445   1_554 S
C24    C761    1.445   .     S
N27    Zn37    2.014   .     S
N28    Zn38    2.014   .     S
O29    Zn37    1.997   .     S
O30    Zn38    1.997   .     S
O31    Zn37    2.013   .     S
O32    Zn38    2.013   .     S
O33    Zn37    1.997   .     S
O34    Zn38    1.997   .     S
O35    Zn37    1.997   .     S
O36    Zn38    1.997   .     S
O39    C40     1.414   .     S
C40    H43     1.109   .     S
C40    H42     1.115   .     S
C40    H41     1.109   .     S
O44    C45     1.414   .     S
C45    H47     1.114   .     S
C45    H46     1.109   .     S
C45    H48     1.110   .     S
O49    C50     1.415   .     S
C50    H52     1.115   .     S
C50    H53     1.108   .     S
C50    H51     1.109   .     S
O54    C55     1.413   .     S
C55    H56     1.109   .     S
C55    H57     1.114   .     S
C55    H58     1.109   .     S
O59    H798    0.988   1_554 S
H60    O797    0.988   .     S
O61    H62     0.990   .     S
O63    H64     0.990   .     S
O65    H66     0.990   .     S
O67    H68     0.989   .     S
O69    H70     0.990   .     S
O71    H72     0.990   .     S
O73    H74     0.990   .     S
O75    H76     0.992   .     S
O77    H78     0.992   .     S
O79    H80     0.991   .     S
O81    H82     0.990   .     S
C83    O114    1.287   .     A
C83    O111    1.290   .     A
C83    C108    1.437   .     S
C84    O113    1.284   .     A
C84    O112    1.290   .     A
C84    C107    1.432   .     S
C85    O115    1.287   .     A
C85    C103    1.435   .     S
C85    O118    1.287   .     A
C86    O117    1.288   .     A
C86    O116    1.288   .     A
C86    C104    1.438   .     S
C87    N110    1.367   .     A
C87    O121    1.383   .     S
C87    C582    1.436   1_545 S
C88    O126    1.380   .     S
C88    N109    1.371   .     A
C88    C335    1.439   .     S
C89    O131    1.389   .     S
C89    N110    1.368   .     A
C89    C580    1.439   1_545 S
C90    O136    1.382   .     S
C90    N109    1.369   .     A
C90    C333    1.436   .     S
C91    C108    1.403   .     A
C91    O157    1.380   .     S
C92    O159    1.375   .     S
C92    C107    1.411   .     A
C92    C176    1.376   .     S
C93    C107    1.402   .     A
C93    O161    1.384   .     S
C93    C173    1.388   .     S
C94    O163    1.380   .     S
C94    C108    1.410   .     A
C95    C105    1.414   .     A
C95    O141    1.386   .     S
C95    C99     1.399   .     A
C96    C100    1.404   .     A
C96    C106    1.399   .     A
C96    O143    1.382   .     S
C97    C101    1.403   .     A
C97    C106    1.400   .     A
C97    O145    1.383   .     S
C98    C102    1.401   .     A
C98    C105    1.403   .     A
C98    O147    1.383   .     S
C99    O149    1.386   .     S
C99    C103    1.403   .     A
C100   O151    1.381   .     S
C100   C104    1.404   .     A
C101   O153    1.382   .     S
C101   C104    1.404   .     A
C102   O155    1.381   .     S
C102   C103    1.400   .     A
C105   C844    1.445   1_554 S
C106   C843    1.445   .     S
N109   Zn119   2.014   .     S
N110   Zn120   2.014   .     S
O111   Zn119   1.997   .     S
O112   Zn120   1.997   .     S
O113   Zn119   2.013   .     S
O114   Zn120   2.013   .     S
O115   Zn119   1.997   .     S
O116   Zn120   1.997   .     S
O117   Zn119   1.997   .     S
O118   Zn120   1.997   .     S
O121   C122    1.414   .     S
C122   H125    1.109   .     S
C122   H124    1.115   .     S
C122   H123    1.109   .     S
O126   C127    1.414   .     S
C127   H129    1.114   .     S
C127   H128    1.109   .     S
C127   H130    1.110   .     S
O131   C132    1.415   .     S
C132   H134    1.115   .     S
C132   H135    1.108   .     S
C132   H133    1.109   .     S
O136   C137    1.413   .     S
C137   H138    1.109   .     S
C137   H139    1.114   .     S
C137   H140    1.109   .     S
O141   H880    0.988   1_554 S
H142   O879    0.988   .     S
O143   H144    0.990   .     S
O145   H146    0.990   .     S
O147   H148    0.990   .     S
O149   H150    0.989   .     S
O151   H152    0.990   .     S
O153   H154    0.990   .     S
O155   H156    0.990   .     S
O157   H158    0.992   .     S
O159   H160    0.992   .     S
O161   H162    0.991   .     S
O163   H164    0.990   .     S
C165   O196    1.287   .     A
C165   O193    1.290   .     A
C165   C190    1.437   .     S
C166   O195    1.284   .     A
C166   O194    1.290   .     A
C166   C189    1.432   .     S
C167   O197    1.287   .     A
C167   C185    1.435   .     S
C167   O200    1.287   .     A
C168   O199    1.288   .     A
C168   O198    1.288   .     A
C168   C186    1.438   .     S
C169   N192    1.367   .     A
C169   O203    1.383   .     S
C169   C664    1.436   1_545 S
C170   O208    1.380   .     S
C170   N191    1.371   .     A
C170   C417    1.439   .     S
C171   O213    1.389   .     S
C171   N192    1.368   .     A
C171   C662    1.439   1_545 S
C172   O218    1.382   .     S
C172   N191    1.369   .     A
C172   C415    1.436   .     S
C173   C190    1.403   .     A
C173   O239    1.380   .     S
C174   O241    1.375   .     S
C174   C189    1.411   .     A
C174   C12     1.376   1_655 S
C175   C189    1.402   .     A
C175   O243    1.384   .     S
C175   C9      1.388   1_655 S
C176   O245    1.380   .     S
C176   C190    1.410   .     A
C177   C187    1.414   .     A
C177   O223    1.386   .     S
C177   C181    1.399   .     A
C178   C182    1.404   .     A
C178   C188    1.399   .     A
C178   O225    1.382   .     S
C179   C183    1.403   .     A
C179   C188    1.400   .     A
C179   O227    1.383   .     S
C180   C184    1.401   .     A
C180   C187    1.403   .     A
C180   O229    1.383   .     S
C181   O231    1.386   .     S
C181   C185    1.403   .     A
C182   O233    1.381   .     S
C182   C186    1.404   .     A
C183   O235    1.382   .     S
C183   C186    1.404   .     A
C184   O237    1.381   .     S
C184   C185    1.400   .     A
C187   C926    1.445   1_554 S
C188   C925    1.445   .     S
N191   Zn201   2.014   .     S
N192   Zn202   2.014   .     S
O193   Zn201   1.997   .     S
O194   Zn202   1.997   .     S
O195   Zn201   2.013   .     S
O196   Zn202   2.013   .     S
O197   Zn201   1.997   .     S
O198   Zn202   1.997   .     S
O199   Zn201   1.997   .     S
O200   Zn202   1.997   .     S
O203   C204    1.414   .     S
C204   H207    1.109   .     S
C204   H206    1.115   .     S
C204   H205    1.109   .     S
O208   C209    1.414   .     S
C209   H211    1.114   .     S
C209   H210    1.109   .     S
C209   H212    1.110   .     S
O213   C214    1.415   .     S
C214   H216    1.115   .     S
C214   H217    1.108   .     S
C214   H215    1.109   .     S
O218   C219    1.413   .     S
C219   H220    1.109   .     S
C219   H221    1.114   .     S
C219   H222    1.109   .     S
O223   H962    0.988   1_554 S
H224   O961    0.988   .     S
O225   H226    0.990   .     S
O227   H228    0.990   .     S
O229   H230    0.990   .     S
O231   H232    0.989   .     S
O233   H234    0.990   .     S
O235   H236    0.990   .     S
O237   H238    0.990   .     S
O239   H240    0.992   .     S
O241   H242    0.992   .     S
O243   H244    0.991   .     S
O245   H246    0.990   .     S
C247   O278    1.287   .     A
C247   O275    1.290   .     A
C247   C272    1.437   .     S
C248   O277    1.284   .     A
C248   O276    1.290   .     A
C248   C271    1.432   .     S
C249   O279    1.287   .     A
C249   C267    1.435   .     S
C249   O282    1.287   .     A
C250   O281    1.288   .     A
C250   O280    1.288   .     A
C250   C268    1.438   .     S
C251   N274    1.367   .     A
C251   O285    1.383   .     S
C252   O290    1.380   .     S
C252   N273    1.371   .     A
C252   C499    1.439   .     S
C253   O295    1.389   .     S
C253   N274    1.368   .     A
C254   O300    1.382   .     S
C254   N273    1.369   .     A
C254   C497    1.436   .     S
C255   C272    1.403   .     A
C255   O321    1.380   .     S
C255   C421    1.388   1_455 S
C256   O323    1.375   .     S
C256   C271    1.411   .     A
C256   C340    1.376   .     S
C257   C271    1.402   .     A
C257   O325    1.384   .     S
C257   C337    1.388   .     S
C258   O327    1.380   .     S
C258   C272    1.410   .     A
C258   C420    1.376   1_455 S
C259   C269    1.414   .     A
C259   O305    1.386   .     S
C259   C263    1.399   .     A
C260   C264    1.404   .     A
C260   C270    1.399   .     A
C260   O307    1.382   .     S
C261   C265    1.403   .     A
C261   C270    1.400   .     A
C261   O309    1.383   .     S
C262   C266    1.401   .     A
C262   C269    1.403   .     A
C262   O311    1.383   .     S
C263   O313    1.386   .     S
C263   C267    1.403   .     A
C264   O315    1.381   .     S
C264   C268    1.404   .     A
C265   O317    1.382   .     S
C265   C268    1.404   .     A
C266   O319    1.381   .     S
C266   C267    1.400   .     A
C269   C1008   1.445   1_554 S
C270   C1007   1.445   .     S
N273   Zn283   2.014   .     S
N274   Zn284   2.014   .     S
O275   Zn283   1.997   .     S
O276   Zn284   1.997   .     S
O277   Zn283   2.013   .     S
O278   Zn284   2.013   .     S
O279   Zn283   1.997   .     S
O280   Zn284   1.997   .     S
O281   Zn283   1.997   .     S
O282   Zn284   1.997   .     S
O285   C286    1.414   .     S
C286   H289    1.109   .     S
C286   H288    1.115   .     S
C286   H287    1.109   .     S
O290   C291    1.414   .     S
C291   H293    1.114   .     S
C291   H292    1.109   .     S
C291   H294    1.110   .     S
O295   C296    1.415   .     S
C296   H298    1.115   .     S
C296   H299    1.108   .     S
C296   H297    1.109   .     S
O300   C301    1.413   .     S
C301   H302    1.109   .     S
C301   H303    1.114   .     S
C301   H304    1.109   .     S
O305   H1044   0.988   1_554 S
H306   O1043   0.988   .     S
O307   H308    0.990   .     S
O309   H310    0.990   .     S
O311   H312    0.990   .     S
O313   H314    0.989   .     S
O315   H316    0.990   .     S
O317   H318    0.990   .     S
O319   H320    0.990   .     S
O321   H322    0.992   .     S
O323   H324    0.992   .     S
O325   H326    0.991   .     S
O327   H328    0.990   .     S
C329   O360    1.287   .     A
C329   O357    1.290   .     A
C329   C354    1.437   .     S
C330   O359    1.284   .     A
C330   O358    1.290   .     A
C330   C353    1.432   .     S
C331   O361    1.287   .     A
C331   C349    1.435   .     S
C331   O364    1.287   .     A
C332   O363    1.288   .     A
C332   O362    1.288   .     A
C332   C350    1.438   .     S
C333   N356    1.367   .     A
C333   O367    1.383   .     S
C334   O372    1.380   .     S
C334   N355    1.371   .     A
C334   C581    1.439   .     S
C335   O377    1.389   .     S
C335   N356    1.368   .     A
C336   O382    1.382   .     S
C336   N355    1.369   .     A
C336   C579    1.436   .     S
C337   C354    1.403   .     A
C337   O403    1.380   .     S
C338   O405    1.375   .     S
C338   C353    1.411   .     A
C338   C422    1.376   .     S
C339   C353    1.402   .     A
C339   O407    1.384   .     S
C339   C419    1.388   .     S
C340   O409    1.380   .     S
C340   C354    1.410   .     A
C341   C351    1.414   .     A
C341   O387    1.386   .     S
C341   C345    1.399   .     A
C342   C346    1.404   .     A
C342   C352    1.399   .     A
C342   O389    1.382   .     S
C343   C347    1.403   .     A
C343   C352    1.400   .     A
C343   O391    1.383   .     S
C344   C348    1.401   .     A
C344   C351    1.403   .     A
C344   O393    1.383   .     S
C345   O395    1.386   .     S
C345   C349    1.403   .     A
C346   O397    1.381   .     S
C346   C350    1.404   .     A
C347   O399    1.382   .     S
C347   C350    1.404   .     A
C348   O401    1.381   .     S
C348   C349    1.400   .     A
C351   C1090   1.445   1_554 S
C352   C1089   1.445   .     S
N355   Zn365   2.014   .     S
N356   Zn366   2.014   .     S
O357   Zn365   1.997   .     S
O358   Zn366   1.997   .     S
O359   Zn365   2.013   .     S
O360   Zn366   2.013   .     S
O361   Zn365   1.997   .     S
O362   Zn366   1.997   .     S
O363   Zn365   1.997   .     S
O364   Zn366   1.997   .     S
O367   C368    1.414   .     S
C368   H371    1.109   .     S
C368   H370    1.115   .     S
C368   H369    1.109   .     S
O372   C373    1.414   .     S
C373   H375    1.114   .     S
C373   H374    1.109   .     S
C373   H376    1.110   .     S
O377   C378    1.415   .     S
C378   H380    1.115   .     S
C378   H381    1.108   .     S
C378   H379    1.109   .     S
O382   C383    1.413   .     S
C383   H384    1.109   .     S
C383   H385    1.114   .     S
C383   H386    1.109   .     S
O387   H1126   0.988   1_554 S
H388   O1125   0.988   .     S
O389   H390    0.990   .     S
O391   H392    0.990   .     S
O393   H394    0.990   .     S
O395   H396    0.989   .     S
O397   H398    0.990   .     S
O399   H400    0.990   .     S
O401   H402    0.990   .     S
O403   H404    0.992   .     S
O405   H406    0.992   .     S
O407   H408    0.991   .     S
O409   H410    0.990   .     S
C411   O442    1.287   .     A
C411   O439    1.290   .     A
C411   C436    1.437   .     S
C412   O441    1.284   .     A
C412   O440    1.290   .     A
C412   C435    1.432   .     S
C413   O443    1.287   .     A
C413   C431    1.435   .     S
C413   O446    1.287   .     A
C414   O445    1.288   .     A
C414   O444    1.288   .     A
C414   C432    1.438   .     S
C415   N438    1.367   .     A
C415   O449    1.383   .     S
C416   O454    1.380   .     S
C416   N437    1.371   .     A
C416   C663    1.439   .     S
C417   O459    1.389   .     S
C417   N438    1.368   .     A
C418   O464    1.382   .     S
C418   N437    1.369   .     A
C418   C661    1.436   .     S
C419   C436    1.403   .     A
C419   O485    1.380   .     S
C420   O487    1.375   .     S
C420   C435    1.411   .     A
C420   C258    1.376   1_655 S
C421   C435    1.402   .     A
C421   O489    1.384   .     S
C421   C255    1.388   1_655 S
C422   O491    1.380   .     S
C422   C436    1.410   .     A
C423   C433    1.414   .     A
C423   O469    1.386   .     S
C423   C427    1.399   .     A
C424   C428    1.404   .     A
C424   C434    1.399   .     A
C424   O471    1.382   .     S
C425   C429    1.403   .     A
C425   C434    1.400   .     A
C425   O473    1.383   .     S
C426   C430    1.401   .     A
C426   C433    1.403   .     A
C426   O475    1.383   .     S
C427   O477    1.386   .     S
C427   C431    1.403   .     A
C428   O479    1.381   .     S
C428   C432    1.404   .     A
C429   O481    1.382   .     S
C429   C432    1.404   .     A
C430   O483    1.381   .     S
C430   C431    1.400   .     A
C433   C1172   1.445   1_554 S
C434   C1171   1.445   .     S
N437   Zn447   2.014   .     S
N438   Zn448   2.014   .     S
O439   Zn447   1.997   .     S
O440   Zn448   1.997   .     S
O441   Zn447   2.013   .     S
O442   Zn448   2.013   .     S
O443   Zn447   1.997   .     S
O444   Zn448   1.997   .     S
O445   Zn447   1.997   .     S
O446   Zn448   1.997   .     S
O449   C450    1.414   .     S
C450   H453    1.109   .     S
C450   H452    1.115   .     S
C450   H451    1.109   .     S
O454   C455    1.414   .     S
C455   H457    1.114   .     S
C455   H456    1.109   .     S
C455   H458    1.110   .     S
O459   C460    1.415   .     S
C460   H462    1.115   .     S
C460   H463    1.108   .     S
C460   H461    1.109   .     S
O464   C465    1.413   .     S
C465   H466    1.109   .     S
C465   H467    1.114   .     S
C465   H468    1.109   .     S
O469   H1208   0.988   1_554 S
H470   O1207   0.988   .     S
O471   H472    0.990   .     S
O473   H474    0.990   .     S
O475   H476    0.990   .     S
O477   H478    0.989   .     S
O479   H480    0.990   .     S
O481   H482    0.990   .     S
O483   H484    0.990   .     S
O485   H486    0.992   .     S
O487   H488    0.992   .     S
O489   H490    0.991   .     S
O491   H492    0.990   .     S
C493   O524    1.287   .     A
C493   O521    1.290   .     A
C493   C518    1.437   .     S
C494   O523    1.284   .     A
C494   O522    1.290   .     A
C494   C517    1.432   .     S
C495   O525    1.287   .     A
C495   C513    1.435   .     S
C495   O528    1.287   .     A
C496   O527    1.288   .     A
C496   O526    1.288   .     A
C496   C514    1.438   .     S
C497   N520    1.367   .     A
C497   O531    1.383   .     S
C498   O536    1.380   .     S
C498   N519    1.371   .     A
C498   C7      1.439   1_565 S
C499   O541    1.389   .     S
C499   N520    1.368   .     A
C500   O546    1.382   .     S
C500   N519    1.369   .     A
C500   C5      1.436   1_565 S
C501   C518    1.403   .     A
C501   O567    1.380   .     S
C501   C667    1.388   1_455 S
C502   O569    1.375   .     S
C502   C517    1.411   .     A
C502   C586    1.376   .     S
C503   C517    1.402   .     A
C503   O571    1.384   .     S
C503   C583    1.388   .     S
C504   O573    1.380   .     S
C504   C518    1.410   .     A
C504   C666    1.376   1_455 S
C505   C515    1.414   .     A
C505   O551    1.386   .     S
C505   C509    1.399   .     A
C506   C510    1.404   .     A
C506   C516    1.399   .     A
C506   O553    1.382   .     S
C507   C511    1.403   .     A
C507   C516    1.400   .     A
C507   O555    1.383   .     S
C508   C512    1.401   .     A
C508   C515    1.403   .     A
C508   O557    1.383   .     S
C509   O559    1.386   .     S
C509   C513    1.403   .     A
C510   O561    1.381   .     S
C510   C514    1.404   .     A
C511   O563    1.382   .     S
C511   C514    1.404   .     A
C512   O565    1.381   .     S
C512   C513    1.400   .     A
C515   C1254   1.445   1_554 S
C516   C1253   1.445   .     S
N519   Zn529   2.014   .     S
N520   Zn530   2.014   .     S
O521   Zn529   1.997   .     S
O522   Zn530   1.997   .     S
O523   Zn529   2.013   .     S
O524   Zn530   2.013   .     S
O525   Zn529   1.997   .     S
O526   Zn530   1.997   .     S
O527   Zn529   1.997   .     S
O528   Zn530   1.997   .     S
O531   C532    1.414   .     S
C532   H535    1.109   .     S
C532   H534    1.115   .     S
C532   H533    1.109   .     S
O536   C537    1.414   .     S
C537   H539    1.114   .     S
C537   H538    1.109   .     S
C537   H540    1.110   .     S
O541   C542    1.415   .     S
C542   H544    1.115   .     S
C542   H545    1.108   .     S
C542   H543    1.109   .     S
O546   C547    1.413   .     S
C547   H548    1.109   .     S
C547   H549    1.114   .     S
C547   H550    1.109   .     S
O551   H1290   0.988   1_554 S
H552   O1289   0.988   .     S
O553   H554    0.990   .     S
O555   H556    0.990   .     S
O557   H558    0.990   .     S
O559   H560    0.989   .     S
O561   H562    0.990   .     S
O563   H564    0.990   .     S
O565   H566    0.990   .     S
O567   H568    0.992   .     S
O569   H570    0.992   .     S
O571   H572    0.991   .     S
O573   H574    0.990   .     S
C575   O606    1.287   .     A
C575   O603    1.290   .     A
C575   C600    1.437   .     S
C576   O605    1.284   .     A
C576   O604    1.290   .     A
C576   C599    1.432   .     S
C577   O607    1.287   .     A
C577   C595    1.435   .     S
C577   O610    1.287   .     A
C578   O609    1.288   .     A
C578   O608    1.288   .     A
C578   C596    1.438   .     S
C579   N602    1.367   .     A
C579   O613    1.383   .     S
C580   O618    1.380   .     S
C580   N601    1.371   .     A
C580   C89     1.439   1_565 S
C581   O623    1.389   .     S
C581   N602    1.368   .     A
C582   O628    1.382   .     S
C582   N601    1.369   .     A
C582   C87     1.436   1_565 S
C583   C600    1.403   .     A
C583   O649    1.380   .     S
C584   O651    1.375   .     S
C584   C599    1.411   .     A
C584   C668    1.376   .     S
C585   C599    1.402   .     A
C585   O653    1.384   .     S
C585   C665    1.388   .     S
C586   O655    1.380   .     S
C586   C600    1.410   .     A
C587   C597    1.414   .     A
C587   O633    1.386   .     S
C587   C591    1.399   .     A
C588   C592    1.404   .     A
C588   C598    1.399   .     A
C588   O635    1.382   .     S
C589   C593    1.403   .     A
C589   C598    1.400   .     A
C589   O637    1.383   .     S
C590   C594    1.401   .     A
C590   C597    1.403   .     A
C590   O639    1.383   .     S
C591   O641    1.386   .     S
C591   C595    1.403   .     A
C592   O643    1.381   .     S
C592   C596    1.404   .     A
C593   O645    1.382   .     S
C593   C596    1.404   .     A
C594   O647    1.381   .     S
C594   C595    1.400   .     A
C597   C1336   1.445   1_554 S
C598   C1335   1.445   .     S
N601   Zn611   2.014   .     S
N602   Zn612   2.014   .     S
O603   Zn611   1.997   .     S
O604   Zn612   1.997   .     S
O605   Zn611   2.013   .     S
O606   Zn612   2.013   .     S
O607   Zn611   1.997   .     S
O608   Zn612   1.997   .     S
O609   Zn611   1.997   .     S
O610   Zn612   1.997   .     S
O613   C614    1.414   .     S
C614   H617    1.109   .     S
C614   H616    1.115   .     S
C614   H615    1.109   .     S
O618   C619    1.414   .     S
C619   H621    1.114   .     S
C619   H620    1.109   .     S
C619   H622    1.110   .     S
O623   C624    1.415   .     S
C624   H626    1.115   .     S
C624   H627    1.108   .     S
C624   H625    1.109   .     S
O628   C629    1.413   .     S
C629   H630    1.109   .     S
C629   H631    1.114   .     S
C629   H632    1.109   .     S
O633   H1372   0.988   1_554 S
H634   O1371   0.988   .     S
O635   H636    0.990   .     S
O637   H638    0.990   .     S
O639   H640    0.990   .     S
O641   H642    0.989   .     S
O643   H644    0.990   .     S
O645   H646    0.990   .     S
O647   H648    0.990   .     S
O649   H650    0.992   .     S
O651   H652    0.992   .     S
O653   H654    0.991   .     S
O655   H656    0.990   .     S
C657   O688    1.287   .     A
C657   O685    1.290   .     A
C657   C682    1.437   .     S
C658   O687    1.284   .     A
C658   O686    1.290   .     A
C658   C681    1.432   .     S
C659   O689    1.287   .     A
C659   C677    1.435   .     S
C659   O692    1.287   .     A
C660   O691    1.288   .     A
C660   O690    1.288   .     A
C660   C678    1.438   .     S
C661   N684    1.367   .     A
C661   O695    1.383   .     S
C662   O700    1.380   .     S
C662   N683    1.371   .     A
C662   C171    1.439   1_565 S
C663   O705    1.389   .     S
C663   N684    1.368   .     A
C664   O710    1.382   .     S
C664   N683    1.369   .     A
C664   C169    1.436   1_565 S
C665   C682    1.403   .     A
C665   O731    1.380   .     S
C666   O733    1.375   .     S
C666   C681    1.411   .     A
C666   C504    1.376   1_655 S
C667   C681    1.402   .     A
C667   O735    1.384   .     S
C667   C501    1.388   1_655 S
C668   O737    1.380   .     S
C668   C682    1.410   .     A
C669   C679    1.414   .     A
C669   O715    1.386   .     S
C669   C673    1.399   .     A
C670   C674    1.404   .     A
C670   C680    1.399   .     A
C670   O717    1.382   .     S
C671   C675    1.403   .     A
C671   C680    1.400   .     A
C671   O719    1.383   .     S
C672   C676    1.401   .     A
C672   C679    1.403   .     A
C672   O721    1.383   .     S
C673   O723    1.386   .     S
C673   C677    1.403   .     A
C674   O725    1.381   .     S
C674   C678    1.404   .     A
C675   O727    1.382   .     S
C675   C678    1.404   .     A
C676   O729    1.381   .     S
C676   C677    1.400   .     A
C679   C1418   1.445   1_554 S
C680   C1417   1.445   .     S
N683   Zn693   2.014   .     S
N684   Zn694   2.014   .     S
O685   Zn693   1.997   .     S
O686   Zn694   1.997   .     S
O687   Zn693   2.013   .     S
O688   Zn694   2.013   .     S
O689   Zn693   1.997   .     S
O690   Zn694   1.997   .     S
O691   Zn693   1.997   .     S
O692   Zn694   1.997   .     S
O695   C696    1.414   .     S
C696   H699    1.109   .     S
C696   H698    1.115   .     S
C696   H697    1.109   .     S
O700   C701    1.414   .     S
C701   H703    1.114   .     S
C701   H702    1.109   .     S
C701   H704    1.110   .     S
O705   C706    1.415   .     S
C706   H708    1.115   .     S
C706   H709    1.108   .     S
C706   H707    1.109   .     S
O710   C711    1.413   .     S
C711   H712    1.109   .     S
C711   H713    1.114   .     S
C711   H714    1.109   .     S
O715   H1454   0.988   1_554 S
H716   O1453   0.988   .     S
O717   H718    0.990   .     S
O719   H720    0.990   .     S
O721   H722    0.990   .     S
O723   H724    0.989   .     S
O725   H726    0.990   .     S
O727   H728    0.990   .     S
O729   H730    0.990   .     S
O731   H732    0.992   .     S
O733   H734    0.992   .     S
O735   H736    0.991   .     S
O737   H738    0.990   .     S
C739   O770    1.287   .     A
C739   O767    1.290   .     A
C739   C764    1.437   .     S
C740   O769    1.284   .     A
C740   O768    1.290   .     A
C740   C763    1.432   .     S
C741   O771    1.287   .     A
C741   C759    1.435   .     S
C741   O774    1.287   .     A
C742   O773    1.288   .     A
C742   O772    1.288   .     A
C742   C760    1.438   .     S
C743   N766    1.367   .     A
C743   O777    1.383   .     S
C743   C1238   1.436   1_545 S
C744   O782    1.380   .     S
C744   N765    1.371   .     A
C744   C991    1.439   .     S
C745   O787    1.389   .     S
C745   N766    1.368   .     A
C745   C1236   1.439   1_545 S
C746   O792    1.382   .     S
C746   N765    1.369   .     A
C746   C989    1.436   .     S
C747   C764    1.403   .     A
C747   O813    1.380   .     S
C747   C913    1.388   1_455 S
C748   O815    1.375   .     S
C748   C763    1.411   .     A
C748   C832    1.376   .     S
C749   C763    1.402   .     A
C749   O817    1.384   .     S
C749   C829    1.388   .     S
C750   O819    1.380   .     S
C750   C764    1.410   .     A
C750   C912    1.376   1_455 S
C751   C761    1.414   .     A
C751   O797    1.386   .     S
C751   C755    1.399   .     A
C752   C756    1.404   .     A
C752   C762    1.399   .     A
C752   O799    1.382   .     S
C753   C757    1.403   .     A
C753   C762    1.400   .     A
C753   O801    1.383   .     S
C754   C758    1.401   .     A
C754   C761    1.403   .     A
C754   O803    1.383   .     S
C755   O805    1.386   .     S
C755   C759    1.403   .     A
C756   O807    1.381   .     S
C756   C760    1.404   .     A
C757   O809    1.382   .     S
C757   C760    1.404   .     A
C758   O811    1.381   .     S
C758   C759    1.400   .     A
C762   C23     1.445   1_556 S
N765   Zn775   2.014   .     S
N766   Zn776   2.014   .     S
O767   Zn775   1.997   .     S
O768   Zn776   1.997   .     S
O769   Zn775   2.013   .     S
O770   Zn776   2.013   .     S
O771   Zn775   1.997   .     S
O772   Zn776   1.997   .     S
O773   Zn775   1.997   .     S
O774   Zn776   1.997   .     S
O777   C778    1.414   .     S
C778   H781    1.109   .     S
C778   H780    1.115   .     S
C778   H779    1.109   .     S
O782   C783    1.414   .     S
C783   H785    1.114   .     S
C783   H784    1.109   .     S
C783   H786    1.110   .     S
O787   C788    1.415   .     S
C788   H790    1.115   .     S
C788   H791    1.108   .     S
C788   H789    1.109   .     S
O792   C793    1.413   .     S
C793   H794    1.109   .     S
C793   H795    1.114   .     S
C793   H796    1.109   .     S
H798   O59     0.988   1_556 S
O799   H800    0.990   .     S
O801   H802    0.990   .     S
O803   H804    0.990   .     S
O805   H806    0.989   .     S
O807   H808    0.990   .     S
O809   H810    0.990   .     S
O811   H812    0.990   .     S
O813   H814    0.992   .     S
O815   H816    0.992   .     S
O817   H818    0.991   .     S
O819   H820    0.990   .     S
C821   O852    1.287   .     A
C821   O849    1.290   .     A
C821   C846    1.437   .     S
C822   O851    1.284   .     A
C822   O850    1.290   .     A
C822   C845    1.432   .     S
C823   O853    1.287   .     A
C823   C841    1.435   .     S
C823   O856    1.287   .     A
C824   O855    1.288   .     A
C824   O854    1.288   .     A
C824   C842    1.438   .     S
C825   N848    1.367   .     A
C825   O859    1.383   .     S
C825   C1320   1.436   1_545 S
C826   O864    1.380   .     S
C826   N847    1.371   .     A
C826   C1073   1.439   .     S
C827   O869    1.389   .     S
C827   N848    1.368   .     A
C827   C1318   1.439   1_545 S
C828   O874    1.382   .     S
C828   N847    1.369   .     A
C828   C1071   1.436   .     S
C829   C846    1.403   .     A
C829   O895    1.380   .     S
C830   O897    1.375   .     S
C830   C845    1.411   .     A
C830   C914    1.376   .     S
C831   C845    1.402   .     A
C831   O899    1.384   .     S
C831   C911    1.388   .     S
C832   O901    1.380   .     S
C832   C846    1.410   .     A
C833   C843    1.414   .     A
C833   O879    1.386   .     S
C833   C837    1.399   .     A
C834   C838    1.404   .     A
C834   C844    1.399   .     A
C834   O881    1.382   .     S
C835   C839    1.403   .     A
C835   C844    1.400   .     A
C835   O883    1.383   .     S
C836   C840    1.401   .     A
C836   C843    1.403   .     A
C836   O885    1.383   .     S
C837   O887    1.386   .     S
C837   C841    1.403   .     A
C838   O889    1.381   .     S
C838   C842    1.404   .     A
C839   O891    1.382   .     S
C839   C842    1.404   .     A
C840   O893    1.381   .     S
C840   C841    1.400   .     A
C844   C105    1.445   1_556 S
N847   Zn857   2.014   .     S
N848   Zn858   2.014   .     S
O849   Zn857   1.997   .     S
O850   Zn858   1.997   .     S
O851   Zn857   2.013   .     S
O852   Zn858   2.013   .     S
O853   Zn857   1.997   .     S
O854   Zn858   1.997   .     S
O855   Zn857   1.997   .     S
O856   Zn858   1.997   .     S
O859   C860    1.414   .     S
C860   H863    1.109   .     S
C860   H862    1.115   .     S
C860   H861    1.109   .     S
O864   C865    1.414   .     S
C865   H867    1.114   .     S
C865   H866    1.109   .     S
C865   H868    1.110   .     S
O869   C870    1.415   .     S
C870   H872    1.115   .     S
C870   H873    1.108   .     S
C870   H871    1.109   .     S
O874   C875    1.413   .     S
C875   H876    1.109   .     S
C875   H877    1.114   .     S
C875   H878    1.109   .     S
H880   O141    0.988   1_556 S
O881   H882    0.990   .     S
O883   H884    0.990   .     S
O885   H886    0.990   .     S
O887   H888    0.989   .     S
O889   H890    0.990   .     S
O891   H892    0.990   .     S
O893   H894    0.990   .     S
O895   H896    0.992   .     S
O897   H898    0.992   .     S
O899   H900    0.991   .     S
O901   H902    0.990   .     S
C903   O934    1.287   .     A
C903   O931    1.290   .     A
C903   C928    1.437   .     S
C904   O933    1.284   .     A
C904   O932    1.290   .     A
C904   C927    1.432   .     S
C905   O935    1.287   .     A
C905   C923    1.435   .     S
C905   O938    1.287   .     A
C906   O937    1.288   .     A
C906   O936    1.288   .     A
C906   C924    1.438   .     S
C907   N930    1.367   .     A
C907   O941    1.383   .     S
C907   C1402   1.436   1_545 S
C908   O946    1.380   .     S
C908   N929    1.371   .     A
C908   C1155   1.439   .     S
C909   O951    1.389   .     S
C909   N930    1.368   .     A
C909   C1400   1.439   1_545 S
C910   O956    1.382   .     S
C910   N929    1.369   .     A
C910   C1153   1.436   .     S
C911   C928    1.403   .     A
C911   O977    1.380   .     S
C912   O979    1.375   .     S
C912   C927    1.411   .     A
C912   C750    1.376   1_655 S
C913   C927    1.402   .     A
C913   O981    1.384   .     S
C913   C747    1.388   1_655 S
C914   O983    1.380   .     S
C914   C928    1.410   .     A
C915   C925    1.414   .     A
C915   O961    1.386   .     S
C915   C919    1.399   .     A
C916   C920    1.404   .     A
C916   C926    1.399   .     A
C916   O963    1.382   .     S
C917   C921    1.403   .     A
C917   C926    1.400   .     A
C917   O965    1.383   .     S
C918   C922    1.401   .     A
C918   C925    1.403   .     A
C918   O967    1.383   .     S
C919   O969    1.386   .     S
C919   C923    1.403   .     A
C920   O971    1.381   .     S
C920   C924    1.404   .     A
C921   O973    1.382   .     S
C921   C924    1.404   .     A
C922   O975    1.381   .     S
C922   C923    1.400   .     A
C926   C187    1.445   1_556 S
N929   Zn939   2.014   .     S
N930   Zn940   2.014   .     S
O931   Zn939   1.997   .     S
O932   Zn940   1.997   .     S
O933   Zn939   2.013   .     S
O934   Zn940   2.013   .     S
O935   Zn939   1.997   .     S
O936   Zn940   1.997   .     S
O937   Zn939   1.997   .     S
O938   Zn940   1.997   .     S
O941   C942    1.414   .     S
C942   H945    1.109   .     S
C942   H944    1.115   .     S
C942   H943    1.109   .     S
O946   C947    1.414   .     S
C947   H949    1.114   .     S
C947   H948    1.109   .     S
C947   H950    1.110   .     S
O951   C952    1.415   .     S
C952   H954    1.115   .     S
C952   H955    1.108   .     S
C952   H953    1.109   .     S
O956   C957    1.413   .     S
C957   H958    1.109   .     S
C957   H959    1.114   .     S
C957   H960    1.109   .     S
H962   O223    0.988   1_556 S
O963   H964    0.990   .     S
O965   H966    0.990   .     S
O967   H968    0.990   .     S
O969   H970    0.989   .     S
O971   H972    0.990   .     S
O973   H974    0.990   .     S
O975   H976    0.990   .     S
O977   H978    0.992   .     S
O979   H980    0.992   .     S
O981   H982    0.991   .     S
O983   H984    0.990   .     S
C985   O1016   1.287   .     A
C985   O1013   1.290   .     A
C985   C1010   1.437   .     S
C986   O1015   1.284   .     A
C986   O1014   1.290   .     A
C986   C1009   1.432   .     S
C987   O1017   1.287   .     A
C987   C1005   1.435   .     S
C987   O1020   1.287   .     A
C988   O1019   1.288   .     A
C988   O1018   1.288   .     A
C988   C1006   1.438   .     S
C989   N1012   1.367   .     A
C989   O1023   1.383   .     S
C990   O1028   1.380   .     S
C990   N1011   1.371   .     A
C990   C1237   1.439   .     S
C991   O1033   1.389   .     S
C991   N1012   1.368   .     A
C992   O1038   1.382   .     S
C992   N1011   1.369   .     A
C992   C1235   1.436   .     S
C993   C1010   1.403   .     A
C993   O1059   1.380   .     S
C993   C1159   1.388   1_455 S
C994   O1061   1.375   .     S
C994   C1009   1.411   .     A
C994   C1078   1.376   .     S
C995   C1009   1.402   .     A
C995   O1063   1.384   .     S
C995   C1075   1.388   .     S
C996   O1065   1.380   .     S
C996   C1010   1.410   .     A
C996   C1158   1.376   1_455 S
C997   C1007   1.414   .     A
C997   O1043   1.386   .     S
C997   C1001   1.399   .     A
C998   C1002   1.404   .     A
C998   C1008   1.399   .     A
C998   O1045   1.382   .     S
C999   C1003   1.403   .     A
C999   C1008   1.400   .     A
C999   O1047   1.383   .     S
C1000  C1004   1.401   .     A
C1000  C1007   1.403   .     A
C1000  O1049   1.383   .     S
C1001  O1051   1.386   .     S
C1001  C1005   1.403   .     A
C1002  O1053   1.381   .     S
C1002  C1006   1.404   .     A
C1003  O1055   1.382   .     S
C1003  C1006   1.404   .     A
C1004  O1057   1.381   .     S
C1004  C1005   1.400   .     A
C1008  C269    1.445   1_556 S
N1011  Zn1021  2.014   .     S
N1012  Zn1022  2.014   .     S
O1013  Zn1021  1.997   .     S
O1014  Zn1022  1.997   .     S
O1015  Zn1021  2.013   .     S
O1016  Zn1022  2.013   .     S
O1017  Zn1021  1.997   .     S
O1018  Zn1022  1.997   .     S
O1019  Zn1021  1.997   .     S
O1020  Zn1022  1.997   .     S
O1023  C1024   1.414   .     S
C1024  H1027   1.109   .     S
C1024  H1026   1.115   .     S
C1024  H1025   1.109   .     S
O1028  C1029   1.414   .     S
C1029  H1031   1.114   .     S
C1029  H1030   1.109   .     S
C1029  H1032   1.110   .     S
O1033  C1034   1.415   .     S
C1034  H1036   1.115   .     S
C1034  H1037   1.108   .     S
C1034  H1035   1.109   .     S
O1038  C1039   1.413   .     S
C1039  H1040   1.109   .     S
C1039  H1041   1.114   .     S
C1039  H1042   1.109   .     S
H1044  O305    0.988   1_556 S
O1045  H1046   0.990   .     S
O1047  H1048   0.990   .     S
O1049  H1050   0.990   .     S
O1051  H1052   0.989   .     S
O1053  H1054   0.990   .     S
O1055  H1056   0.990   .     S
O1057  H1058   0.990   .     S
O1059  H1060   0.992   .     S
O1061  H1062   0.992   .     S
O1063  H1064   0.991   .     S
O1065  H1066   0.990   .     S
C1067  O1098   1.287   .     A
C1067  O1095   1.290   .     A
C1067  C1092   1.437   .     S
C1068  O1097   1.284   .     A
C1068  O1096   1.290   .     A
C1068  C1091   1.432   .     S
C1069  O1099   1.287   .     A
C1069  C1087   1.435   .     S
C1069  O1102   1.287   .     A
C1070  O1101   1.288   .     A
C1070  O1100   1.288   .     A
C1070  C1088   1.438   .     S
C1071  N1094   1.367   .     A
C1071  O1105   1.383   .     S
C1072  O1110   1.380   .     S
C1072  N1093   1.371   .     A
C1072  C1319   1.439   .     S
C1073  O1115   1.389   .     S
C1073  N1094   1.368   .     A
C1074  O1120   1.382   .     S
C1074  N1093   1.369   .     A
C1074  C1317   1.436   .     S
C1075  C1092   1.403   .     A
C1075  O1141   1.380   .     S
C1076  O1143   1.375   .     S
C1076  C1091   1.411   .     A
C1076  C1160   1.376   .     S
C1077  C1091   1.402   .     A
C1077  O1145   1.384   .     S
C1077  C1157   1.388   .     S
C1078  O1147   1.380   .     S
C1078  C1092   1.410   .     A
C1079  C1089   1.414   .     A
C1079  O1125   1.386   .     S
C1079  C1083   1.399   .     A
C1080  C1084   1.404   .     A
C1080  C1090   1.399   .     A
C1080  O1127   1.382   .     S
C1081  C1085   1.403   .     A
C1081  C1090   1.400   .     A
C1081  O1129   1.383   .     S
C1082  C1086   1.401   .     A
C1082  C1089   1.403   .     A
C1082  O1131   1.383   .     S
C1083  O1133   1.386   .     S
C1083  C1087   1.403   .     A
C1084  O1135   1.381   .     S
C1084  C1088   1.404   .     A
C1085  O1137   1.382   .     S
C1085  C1088   1.404   .     A
C1086  O1139   1.381   .     S
C1086  C1087   1.400   .     A
C1090  C351    1.445   1_556 S
N1093  Zn1103  2.014   .     S
N1094  Zn1104  2.014   .     S
O1095  Zn1103  1.997   .     S
O1096  Zn1104  1.997   .     S
O1097  Zn1103  2.013   .     S
O1098  Zn1104  2.013   .     S
O1099  Zn1103  1.997   .     S
O1100  Zn1104  1.997   .     S
O1101  Zn1103  1.997   .     S
O1102  Zn1104  1.997   .     S
O1105  C1106   1.414   .     S
C1106  H1109   1.109   .     S
C1106  H1108   1.115   .     S
C1106  H1107   1.109   .     S
O1110  C1111   1.414   .     S
C1111  H1113   1.114   .     S
C1111  H1112   1.109   .     S
C1111  H1114   1.110   .     S
O1115  C1116   1.415   .     S
C1116  H1118   1.115   .     S
C1116  H1119   1.108   .     S
C1116  H1117   1.109   .     S
O1120  C1121   1.413   .     S
C1121  H1122   1.109   .     S
C1121  H1123   1.114   .     S
C1121  H1124   1.109   .     S
H1126  O387    0.988   1_556 S
O1127  H1128   0.990   .     S
O1129  H1130   0.990   .     S
O1131  H1132   0.990   .     S
O1133  H1134   0.989   .     S
O1135  H1136   0.990   .     S
O1137  H1138   0.990   .     S
O1139  H1140   0.990   .     S
O1141  H1142   0.992   .     S
O1143  H1144   0.992   .     S
O1145  H1146   0.991   .     S
O1147  H1148   0.990   .     S
C1149  O1180   1.287   .     A
C1149  O1177   1.290   .     A
C1149  C1174   1.437   .     S
C1150  O1179   1.284   .     A
C1150  O1178   1.290   .     A
C1150  C1173   1.432   .     S
C1151  O1181   1.287   .     A
C1151  C1169   1.435   .     S
C1151  O1184   1.287   .     A
C1152  O1183   1.288   .     A
C1152  O1182   1.288   .     A
C1152  C1170   1.438   .     S
C1153  N1176   1.367   .     A
C1153  O1187   1.383   .     S
C1154  O1192   1.380   .     S
C1154  N1175   1.371   .     A
C1154  C1401   1.439   .     S
C1155  O1197   1.389   .     S
C1155  N1176   1.368   .     A
C1156  O1202   1.382   .     S
C1156  N1175   1.369   .     A
C1156  C1399   1.436   .     S
C1157  C1174   1.403   .     A
C1157  O1223   1.380   .     S
C1158  O1225   1.375   .     S
C1158  C1173   1.411   .     A
C1158  C996    1.376   1_655 S
C1159  C1173   1.402   .     A
C1159  O1227   1.384   .     S
C1159  C993    1.388   1_655 S
C1160  O1229   1.380   .     S
C1160  C1174   1.410   .     A
C1161  C1171   1.414   .     A
C1161  O1207   1.386   .     S
C1161  C1165   1.399   .     A
C1162  C1166   1.404   .     A
C1162  C1172   1.399   .     A
C1162  O1209   1.382   .     S
C1163  C1167   1.403   .     A
C1163  C1172   1.400   .     A
C1163  O1211   1.383   .     S
C1164  C1168   1.401   .     A
C1164  C1171   1.403   .     A
C1164  O1213   1.383   .     S
C1165  O1215   1.386   .     S
C1165  C1169   1.403   .     A
C1166  O1217   1.381   .     S
C1166  C1170   1.404   .     A
C1167  O1219   1.382   .     S
C1167  C1170   1.404   .     A
C1168  O1221   1.381   .     S
C1168  C1169   1.400   .     A
C1172  C433    1.445   1_556 S
N1175  Zn1185  2.014   .     S
N1176  Zn1186  2.014   .     S
O1177  Zn1185  1.997   .     S
O1178  Zn1186  1.997   .     S
O1179  Zn1185  2.013   .     S
O1180  Zn1186  2.013   .     S
O1181  Zn1185  1.997   .     S
O1182  Zn1186  1.997   .     S
O1183  Zn1185  1.997   .     S
O1184  Zn1186  1.997   .     S
O1187  C1188   1.414   .     S
C1188  H1191   1.109   .     S
C1188  H1190   1.115   .     S
C1188  H1189   1.109   .     S
O1192  C1193   1.414   .     S
C1193  H1195   1.114   .     S
C1193  H1194   1.109   .     S
C1193  H1196   1.110   .     S
O1197  C1198   1.415   .     S
C1198  H1200   1.115   .     S
C1198  H1201   1.108   .     S
C1198  H1199   1.109   .     S
O1202  C1203   1.413   .     S
C1203  H1204   1.109   .     S
C1203  H1205   1.114   .     S
C1203  H1206   1.109   .     S
H1208  O469    0.988   1_556 S
O1209  H1210   0.990   .     S
O1211  H1212   0.990   .     S
O1213  H1214   0.990   .     S
O1215  H1216   0.989   .     S
O1217  H1218   0.990   .     S
O1219  H1220   0.990   .     S
O1221  H1222   0.990   .     S
O1223  H1224   0.992   .     S
O1225  H1226   0.992   .     S
O1227  H1228   0.991   .     S
O1229  H1230   0.990   .     S
C1231  O1262   1.287   .     A
C1231  O1259   1.290   .     A
C1231  C1256   1.437   .     S
C1232  O1261   1.284   .     A
C1232  O1260   1.290   .     A
C1232  C1255   1.432   .     S
C1233  O1263   1.287   .     A
C1233  C1251   1.435   .     S
C1233  O1266   1.287   .     A
C1234  O1265   1.288   .     A
C1234  O1264   1.288   .     A
C1234  C1252   1.438   .     S
C1235  N1258   1.367   .     A
C1235  O1269   1.383   .     S
C1236  O1274   1.380   .     S
C1236  N1257   1.371   .     A
C1236  C745    1.439   1_565 S
C1237  O1279   1.389   .     S
C1237  N1258   1.368   .     A
C1238  O1284   1.382   .     S
C1238  N1257   1.369   .     A
C1238  C743    1.436   1_565 S
C1239  C1256   1.403   .     A
C1239  O1305   1.380   .     S
C1239  C1405   1.388   1_455 S
C1240  O1307   1.375   .     S
C1240  C1255   1.411   .     A
C1240  C1324   1.376   .     S
C1241  C1255   1.402   .     A
C1241  O1309   1.384   .     S
C1241  C1321   1.388   .     S
C1242  O1311   1.380   .     S
C1242  C1256   1.410   .     A
C1242  C1404   1.376   1_455 S
C1243  C1253   1.414   .     A
C1243  O1289   1.386   .     S
C1243  C1247   1.399   .     A
C1244  C1248   1.404   .     A
C1244  C1254   1.399   .     A
C1244  O1291   1.382   .     S
C1245  C1249   1.403   .     A
C1245  C1254   1.400   .     A
C1245  O1293   1.383   .     S
C1246  C1250   1.401   .     A
C1246  C1253   1.403   .     A
C1246  O1295   1.383   .     S
C1247  O1297   1.386   .     S
C1247  C1251   1.403   .     A
C1248  O1299   1.381   .     S
C1248  C1252   1.404   .     A
C1249  O1301   1.382   .     S
C1249  C1252   1.404   .     A
C1250  O1303   1.381   .     S
C1250  C1251   1.400   .     A
C1254  C515    1.445   1_556 S
N1257  Zn1267  2.014   .     S
N1258  Zn1268  2.014   .     S
O1259  Zn1267  1.997   .     S
O1260  Zn1268  1.997   .     S
O1261  Zn1267  2.013   .     S
O1262  Zn1268  2.013   .     S
O1263  Zn1267  1.997   .     S
O1264  Zn1268  1.997   .     S
O1265  Zn1267  1.997   .     S
O1266  Zn1268  1.997   .     S
O1269  C1270   1.414   .     S
C1270  H1273   1.109   .     S
C1270  H1272   1.115   .     S
C1270  H1271   1.109   .     S
O1274  C1275   1.414   .     S
C1275  H1277   1.114   .     S
C1275  H1276   1.109   .     S
C1275  H1278   1.110   .     S
O1279  C1280   1.415   .     S
C1280  H1282   1.115   .     S
C1280  H1283   1.108   .     S
C1280  H1281   1.109   .     S
O1284  C1285   1.413   .     S
C1285  H1286   1.109   .     S
C1285  H1287   1.114   .     S
C1285  H1288   1.109   .     S
H1290  O551    0.988   1_556 S
O1291  H1292   0.990   .     S
O1293  H1294   0.990   .     S
O1295  H1296   0.990   .     S
O1297  H1298   0.989   .     S
O1299  H1300   0.990   .     S
O1301  H1302   0.990   .     S
O1303  H1304   0.990   .     S
O1305  H1306   0.992   .     S
O1307  H1308   0.992   .     S
O1309  H1310   0.991   .     S
O1311  H1312   0.990   .     S
C1313  O1344   1.287   .     A
C1313  O1341   1.290   .     A
C1313  C1338   1.437   .     S
C1314  O1343   1.284   .     A
C1314  O1342   1.290   .     A
C1314  C1337   1.432   .     S
C1315  O1345   1.287   .     A
C1315  C1333   1.435   .     S
C1315  O1348   1.287   .     A
C1316  O1347   1.288   .     A
C1316  O1346   1.288   .     A
C1316  C1334   1.438   .     S
C1317  N1340   1.367   .     A
C1317  O1351   1.383   .     S
C1318  O1356   1.380   .     S
C1318  N1339   1.371   .     A
C1318  C827    1.439   1_565 S
C1319  O1361   1.389   .     S
C1319  N1340   1.368   .     A
C1320  O1366   1.382   .     S
C1320  N1339   1.369   .     A
C1320  C825    1.436   1_565 S
C1321  C1338   1.403   .     A
C1321  O1387   1.380   .     S
C1322  O1389   1.375   .     S
C1322  C1337   1.411   .     A
C1322  C1406   1.376   .     S
C1323  C1337   1.402   .     A
C1323  O1391   1.384   .     S
C1323  C1403   1.388   .     S
C1324  O1393   1.380   .     S
C1324  C1338   1.410   .     A
C1325  C1335   1.414   .     A
C1325  O1371   1.386   .     S
C1325  C1329   1.399   .     A
C1326  C1330   1.404   .     A
C1326  C1336   1.399   .     A
C1326  O1373   1.382   .     S
C1327  C1331   1.403   .     A
C1327  C1336   1.400   .     A
C1327  O1375   1.383   .     S
C1328  C1332   1.401   .     A
C1328  C1335   1.403   .     A
C1328  O1377   1.383   .     S
C1329  O1379   1.386   .     S
C1329  C1333   1.403   .     A
C1330  O1381   1.381   .     S
C1330  C1334   1.404   .     A
C1331  O1383   1.382   .     S
C1331  C1334   1.404   .     A
C1332  O1385   1.381   .     S
C1332  C1333   1.400   .     A
C1336  C597    1.445   1_556 S
N1339  Zn1349  2.014   .     S
N1340  Zn1350  2.014   .     S
O1341  Zn1349  1.997   .     S
O1342  Zn1350  1.997   .     S
O1343  Zn1349  2.013   .     S
O1344  Zn1350  2.013   .     S
O1345  Zn1349  1.997   .     S
O1346  Zn1350  1.997   .     S
O1347  Zn1349  1.997   .     S
O1348  Zn1350  1.997   .     S
O1351  C1352   1.414   .     S
C1352  H1355   1.109   .     S
C1352  H1354   1.115   .     S
C1352  H1353   1.109   .     S
O1356  C1357   1.414   .     S
C1357  H1359   1.114   .     S
C1357  H1358   1.109   .     S
C1357  H1360   1.110   .     S
O1361  C1362   1.415   .     S
C1362  H1364   1.115   .     S
C1362  H1365   1.108   .     S
C1362  H1363   1.109   .     S
O1366  C1367   1.413   .     S
C1367  H1368   1.109   .     S
C1367  H1369   1.114   .     S
C1367  H1370   1.109   .     S
H1372  O633    0.988   1_556 S
O1373  H1374   0.990   .     S
O1375  H1376   0.990   .     S
O1377  H1378   0.990   .     S
O1379  H1380   0.989   .     S
O1381  H1382   0.990   .     S
O1383  H1384   0.990   .     S
O1385  H1386   0.990   .     S
O1387  H1388   0.992   .     S
O1389  H1390   0.992   .     S
O1391  H1392   0.991   .     S
O1393  H1394   0.990   .     S
C1395  O1426   1.287   .     A
C1395  O1423   1.290   .     A
C1395  C1420   1.437   .     S
C1396  O1425   1.284   .     A
C1396  O1424   1.290   .     A
C1396  C1419   1.432   .     S
C1397  O1427   1.287   .     A
C1397  C1415   1.435   .     S
C1397  O1430   1.287   .     A
C1398  O1429   1.288   .     A
C1398  O1428   1.288   .     A
C1398  C1416   1.438   .     S
C1399  N1422   1.367   .     A
C1399  O1433   1.383   .     S
C1400  O1438   1.380   .     S
C1400  N1421   1.371   .     A
C1400  C909    1.439   1_565 S
C1401  O1443   1.389   .     S
C1401  N1422   1.368   .     A
C1402  O1448   1.382   .     S
C1402  N1421   1.369   .     A
C1402  C907    1.436   1_565 S
C1403  C1420   1.403   .     A
C1403  O1469   1.380   .     S
C1404  O1471   1.375   .     S
C1404  C1419   1.411   .     A
C1404  C1242   1.376   1_655 S
C1405  C1419   1.402   .     A
C1405  O1473   1.384   .     S
C1405  C1239   1.388   1_655 S
C1406  O1475   1.380   .     S
C1406  C1420   1.410   .     A
C1407  C1417   1.414   .     A
C1407  O1453   1.386   .     S
C1407  C1411   1.399   .     A
C1408  C1412   1.404   .     A
C1408  C1418   1.399   .     A
C1408  O1455   1.382   .     S
C1409  C1413   1.403   .     A
C1409  C1418   1.400   .     A
C1409  O1457   1.383   .     S
C1410  C1414   1.401   .     A
C1410  C1417   1.403   .     A
C1410  O1459   1.383   .     S
C1411  O1461   1.386   .     S
C1411  C1415   1.403   .     A
C1412  O1463   1.381   .     S
C1412  C1416   1.404   .     A
C1413  O1465   1.382   .     S
C1413  C1416   1.404   .     A
C1414  O1467   1.381   .     S
C1414  C1415   1.400   .     A
C1418  C679    1.445   1_556 S
N1421  Zn1431  2.014   .     S
N1422  Zn1432  2.014   .     S
O1423  Zn1431  1.997   .     S
O1424  Zn1432  1.997   .     S
O1425  Zn1431  2.013   .     S
O1426  Zn1432  2.013   .     S
O1427  Zn1431  1.997   .     S
O1428  Zn1432  1.997   .     S
O1429  Zn1431  1.997   .     S
O1430  Zn1432  1.997   .     S
O1433  C1434   1.414   .     S
C1434  H1437   1.109   .     S
C1434  H1436   1.115   .     S
C1434  H1435   1.109   .     S
O1438  C1439   1.414   .     S
C1439  H1441   1.114   .     S
C1439  H1440   1.109   .     S
C1439  H1442   1.110   .     S
O1443  C1444   1.415   .     S
C1444  H1446   1.115   .     S
C1444  H1447   1.108   .     S
C1444  H1445   1.109   .     S
O1448  C1449   1.413   .     S
C1449  H1450   1.109   .     S
C1449  H1451   1.114   .     S
C1449  H1452   1.109   .     S
H1454  O715    0.988   1_556 S
O1455  H1456   0.990   .     S
O1457  H1458   0.990   .     S
O1459  H1460   0.990   .     S
O1461  H1462   0.989   .     S
O1463  H1464   0.990   .     S
O1465  H1466   0.990   .     S
O1467  H1468   0.990   .     S
O1469  H1470   0.992   .     S
O1471  H1472   0.992   .     S
O1473  H1474   0.991   .     S
O1475  H1476   0.990   .     S
