data_str_m1_o10_o16_pcu_sym.265
_audit_creation_date              2020-01-03
_audit_creation_method            'Materials Studio'
_symmetry_space_group_name_H-M    'P1'
_symmetry_Int_Tables_number       1
_symmetry_cell_setting            triclinic
loop_
_symmetry_equiv_pos_as_xyz
  x,y,z
_cell_length_a                    32.6763
_cell_length_b                    32.6580
_cell_length_c                    30.7549
_cell_angle_alpha                 96.5646
_cell_angle_beta                  74.7569
_cell_angle_gamma                 98.2464
loop_
_atom_site_label
_atom_site_type_symbol
_atom_site_fract_x
_atom_site_fract_y
_atom_site_fract_z
_atom_site_U_iso_or_equiv
_atom_site_adp_type
_atom_site_occupancy
C1     C     0.05303   0.16003   0.25957   0.00000  Uiso   1.00
C2     C     0.17829   0.16564   0.05502   0.00000  Uiso   1.00
C3     C     0.20416   0.10028   0.06004   0.00000  Uiso   1.00
C4     C     0.28070   0.17369   0.24023   0.00000  Uiso   1.00
C5     C     0.13542   0.18959   0.42196   0.00000  Uiso   1.00
C6     C     0.32625   0.17588   0.23688   0.00000  Uiso   1.00
C7     C     0.00757   0.15665   0.26513   0.00000  Uiso   1.00
C8     C     0.18083   0.32267   0.23776   0.00000  Uiso   1.00
C9     C     0.15114   0.01211   0.26429   0.00000  Uiso   1.00
C10    C     0.15621   0.05606   0.26015   0.00000  Uiso   1.00
C11    C     0.17660   0.27795   0.24040   0.00000  Uiso   1.00
C12    C     0.10461   0.22916   0.49289   0.00000  Uiso   1.00
C13    C     0.18490   0.14850   0.12908   0.00000  Uiso   1.00
C14    C     0.14776   0.18437   0.37150   0.00000  Uiso   1.00
C15    C     0.19956   0.08725   0.01669   0.00000  Uiso   1.00
C16    C     0.19241   0.13942   0.07999   0.00000  Uiso   1.00
C17    C     0.11704   0.22565   0.44516   0.00000  Uiso   1.00
C18    C     0.11696   0.20161   0.01706   0.00000  Uiso   1.00
C19    C     0.14321   0.17088   0.49372   0.00000  Uiso   1.00
C20    C     0.14361   0.15970   0.44795   0.00000  Uiso   1.00
C21    C     0.16627   0.14902   0.01494   0.00000  Uiso   1.00
C22    C     0.18001   0.11060   0.49392   0.00000  Uiso   1.00
C23    C     0.17205   0.09546   0.45168   0.00000  Uiso   1.00
C24    C     0.15081   0.11865   0.43066   0.00000  Uiso   1.00
H25    H     0.20954   0.05744   0.00236   0.00000  Uiso   1.00
H26    H     0.01512   0.19349   0.21072   0.00000  Uiso   1.00
H27    H     0.22724   0.08836   0.10910   0.00000  Uiso   1.00
H28    H     0.33129   0.12286   0.31575   0.00000  Uiso   1.00
H29    H     0.09681   0.01606   0.30866   0.00000  Uiso   1.00
H30    H     0.19415   0.21635   0.09026   0.00000  Uiso   1.00
H31    H     0.09717   0.17482   0.07322   0.00000  Uiso   1.00
H32    H     0.06289   0.26767   0.49904   0.00000  Uiso   1.00
I33    I     0.23547   0.01663   0.19033   0.00000  Uiso   1.00
I34    I     0.19511   0.03962   0.41634   0.00000  Uiso   1.00
I35    I     0.10902   0.27712   0.41144   0.00000  Uiso   1.00
I36    I     0.11191   0.08523   0.38880   0.00000  Uiso   1.00
O37    O     0.16667   0.16667   0.25000   0.00000  Uiso   1.00
O38    O     0.15451   0.12637   0.15458   0.00000  Uiso   1.00
O39    O     0.12940   0.20391   0.34968   0.00000  Uiso   1.00
O40    O     0.20824   0.17759   0.14606   0.00000  Uiso   1.00
O41    O     0.17451   0.15880   0.34968   0.00000  Uiso   1.00
O42    O     0.21999   0.07361   0.08167   0.00000  Uiso   1.00
O43    O     0.31377   0.13424   0.29914   0.00000  Uiso   1.00
O44    O     0.11494   0.32740   0.29354   0.00000  Uiso   1.00
O45    O     0.17659   0.20742   0.06840   0.00000  Uiso   1.00
O46    O     0.09875   0.20287   0.06308   0.00000  Uiso   1.00
O47    O     0.08049   0.25939   0.01749   0.00000  Uiso   1.00
O48    O     0.17930   0.08019   0.28213   0.00000  Uiso   1.00
O49    O     0.14632   0.26085   0.27013   0.00000  Uiso   1.00
O50    O     0.07412   0.13291   0.23413   0.00000  Uiso   1.00
O51    O     0.26693   0.19272   0.21360   0.00000  Uiso   1.00
O52    O     0.07071   0.18878   0.28213   0.00000  Uiso   1.00
O53    O     0.25491   0.15226   0.27013   0.00000  Uiso   1.00
O54    O     0.13760   0.06944   0.23413   0.00000  Uiso   1.00
O55    O     0.20345   0.25620   0.21360   0.00000  Uiso   1.00
Zn56   Zn    0.19338   0.13994   0.28734   0.00000  Uiso   1.00
Zn57   Zn    0.13379   0.12458   0.21875   0.00000  Uiso   1.00
Zn58   Zn    0.21056   0.19775   0.20657   0.00000  Uiso   1.00
Zn59   Zn    0.12893   0.20439   0.28733   0.00000  Uiso   1.00
C60    C     0.38636   0.16003   0.25957   0.00000  Uiso   1.00
C61    C     0.51162   0.16564   0.05502   0.00000  Uiso   1.00
C62    C     0.53749   0.10028   0.06004   0.00000  Uiso   1.00
C63    C     0.61403   0.17369   0.24023   0.00000  Uiso   1.00
C64    C     0.46875   0.18959   0.42196   0.00000  Uiso   1.00
C65    C     0.65958   0.17588   0.23688   0.00000  Uiso   1.00
C66    C     0.34090   0.15665   0.26513   0.00000  Uiso   1.00
C67    C     0.51416   0.32267   0.23776   0.00000  Uiso   1.00
C68    C     0.48448   0.01211   0.26429   0.00000  Uiso   1.00
C69    C     0.48955   0.05606   0.26015   0.00000  Uiso   1.00
C70    C     0.50993   0.27795   0.24040   0.00000  Uiso   1.00
C71    C     0.43794   0.22916   0.49289   0.00000  Uiso   1.00
C72    C     0.51824   0.14850   0.12908   0.00000  Uiso   1.00
C73    C     0.48109   0.18437   0.37150   0.00000  Uiso   1.00
C74    C     0.53290   0.08725   0.01669   0.00000  Uiso   1.00
C75    C     0.52575   0.13942   0.07999   0.00000  Uiso   1.00
C76    C     0.45038   0.22565   0.44516   0.00000  Uiso   1.00
C77    C     0.45029   0.20161   0.01706   0.00000  Uiso   1.00
C78    C     0.47654   0.17088   0.49372   0.00000  Uiso   1.00
C79    C     0.47695   0.15970   0.44795   0.00000  Uiso   1.00
C80    C     0.49960   0.14902   0.01494   0.00000  Uiso   1.00
C81    C     0.51334   0.11060   0.49392   0.00000  Uiso   1.00
C82    C     0.50538   0.09546   0.45168   0.00000  Uiso   1.00
C83    C     0.48414   0.11865   0.43066   0.00000  Uiso   1.00
H84    H     0.54287   0.05744   0.00236   0.00000  Uiso   1.00
H85    H     0.34845   0.19349   0.21072   0.00000  Uiso   1.00
H86    H     0.56058   0.08836   0.10910   0.00000  Uiso   1.00
H87    H     0.66462   0.12286   0.31575   0.00000  Uiso   1.00
H88    H     0.43014   0.01606   0.30866   0.00000  Uiso   1.00
H89    H     0.52748   0.21635   0.09026   0.00000  Uiso   1.00
H90    H     0.43050   0.17482   0.07322   0.00000  Uiso   1.00
H91    H     0.39623   0.26767   0.49904   0.00000  Uiso   1.00
I92    I     0.56880   0.01663   0.19033   0.00000  Uiso   1.00
I93    I     0.52844   0.03962   0.41634   0.00000  Uiso   1.00
I94    I     0.44236   0.27712   0.41144   0.00000  Uiso   1.00
I95    I     0.44524   0.08523   0.38880   0.00000  Uiso   1.00
O96    O     0.50000   0.16667   0.25000   0.00000  Uiso   1.00
O97    O     0.48784   0.12637   0.15458   0.00000  Uiso   1.00
O98    O     0.46274   0.20391   0.34968   0.00000  Uiso   1.00
O99    O     0.54157   0.17759   0.14606   0.00000  Uiso   1.00
O100   O     0.50785   0.15880   0.34968   0.00000  Uiso   1.00
O101   O     0.55332   0.07361   0.08167   0.00000  Uiso   1.00
O102   O     0.64711   0.13424   0.29914   0.00000  Uiso   1.00
O103   O     0.44828   0.32740   0.29354   0.00000  Uiso   1.00
O104   O     0.50992   0.20742   0.06840   0.00000  Uiso   1.00
O105   O     0.43208   0.20287   0.06308   0.00000  Uiso   1.00
O106   O     0.41383   0.25939   0.01749   0.00000  Uiso   1.00
O107   O     0.51264   0.08019   0.28213   0.00000  Uiso   1.00
O108   O     0.47965   0.26085   0.27013   0.00000  Uiso   1.00
O109   O     0.40745   0.13291   0.23413   0.00000  Uiso   1.00
O110   O     0.60026   0.19272   0.21360   0.00000  Uiso   1.00
O111   O     0.40405   0.18878   0.28213   0.00000  Uiso   1.00
O112   O     0.58824   0.15226   0.27013   0.00000  Uiso   1.00
O113   O     0.47093   0.06944   0.23413   0.00000  Uiso   1.00
O114   O     0.53678   0.25620   0.21360   0.00000  Uiso   1.00
Zn115  Zn    0.52672   0.13994   0.28734   0.00000  Uiso   1.00
Zn116  Zn    0.46713   0.12458   0.21875   0.00000  Uiso   1.00
Zn117  Zn    0.54389   0.19775   0.20657   0.00000  Uiso   1.00
Zn118  Zn    0.46226   0.20439   0.28733   0.00000  Uiso   1.00
C119   C     0.71969   0.16003   0.25957   0.00000  Uiso   1.00
C120   C     0.84495   0.16564   0.05502   0.00000  Uiso   1.00
C121   C     0.87083   0.10028   0.06004   0.00000  Uiso   1.00
C122   C     0.94736   0.17369   0.24023   0.00000  Uiso   1.00
C123   C     0.80208   0.18959   0.42196   0.00000  Uiso   1.00
C124   C     0.99291   0.17588   0.23688   0.00000  Uiso   1.00
C125   C     0.67423   0.15665   0.26513   0.00000  Uiso   1.00
C126   C     0.84749   0.32267   0.23776   0.00000  Uiso   1.00
C127   C     0.81781   0.01211   0.26429   0.00000  Uiso   1.00
C128   C     0.82288   0.05606   0.26015   0.00000  Uiso   1.00
C129   C     0.84326   0.27795   0.24040   0.00000  Uiso   1.00
C130   C     0.77127   0.22916   0.49289   0.00000  Uiso   1.00
C131   C     0.85157   0.14850   0.12908   0.00000  Uiso   1.00
C132   C     0.81443   0.18437   0.37150   0.00000  Uiso   1.00
C133   C     0.86623   0.08725   0.01669   0.00000  Uiso   1.00
C134   C     0.85908   0.13942   0.07999   0.00000  Uiso   1.00
C135   C     0.78371   0.22565   0.44516   0.00000  Uiso   1.00
C136   C     0.78363   0.20161   0.01706   0.00000  Uiso   1.00
C137   C     0.80987   0.17088   0.49372   0.00000  Uiso   1.00
C138   C     0.81028   0.15970   0.44795   0.00000  Uiso   1.00
C139   C     0.83294   0.14902   0.01494   0.00000  Uiso   1.00
C140   C     0.84667   0.11060   0.49392   0.00000  Uiso   1.00
C141   C     0.83872   0.09546   0.45168   0.00000  Uiso   1.00
C142   C     0.81747   0.11865   0.43066   0.00000  Uiso   1.00
H143   H     0.87620   0.05744   0.00236   0.00000  Uiso   1.00
H144   H     0.68179   0.19349   0.21072   0.00000  Uiso   1.00
H145   H     0.89391   0.08836   0.10910   0.00000  Uiso   1.00
H146   H     0.99796   0.12286   0.31575   0.00000  Uiso   1.00
H147   H     0.76347   0.01606   0.30866   0.00000  Uiso   1.00
H148   H     0.86082   0.21635   0.09026   0.00000  Uiso   1.00
H149   H     0.76383   0.17482   0.07322   0.00000  Uiso   1.00
H150   H     0.72956   0.26767   0.49904   0.00000  Uiso   1.00
I151   I     0.90214   0.01663   0.19033   0.00000  Uiso   1.00
I152   I     0.86178   0.03962   0.41634   0.00000  Uiso   1.00
I153   I     0.77569   0.27712   0.41144   0.00000  Uiso   1.00
I154   I     0.77857   0.08523   0.38880   0.00000  Uiso   1.00
O155   O     0.83333   0.16667   0.25000   0.00000  Uiso   1.00
O156   O     0.82118   0.12637   0.15458   0.00000  Uiso   1.00
O157   O     0.79607   0.20391   0.34968   0.00000  Uiso   1.00
O158   O     0.87491   0.17759   0.14606   0.00000  Uiso   1.00
O159   O     0.84118   0.15880   0.34968   0.00000  Uiso   1.00
O160   O     0.88666   0.07361   0.08167   0.00000  Uiso   1.00
O161   O     0.98044   0.13424   0.29914   0.00000  Uiso   1.00
O162   O     0.78161   0.32740   0.29354   0.00000  Uiso   1.00
O163   O     0.84326   0.20742   0.06840   0.00000  Uiso   1.00
O164   O     0.76542   0.20287   0.06308   0.00000  Uiso   1.00
O165   O     0.74716   0.25939   0.01749   0.00000  Uiso   1.00
O166   O     0.84597   0.08019   0.28213   0.00000  Uiso   1.00
O167   O     0.81298   0.26085   0.27013   0.00000  Uiso   1.00
O168   O     0.74078   0.13291   0.23413   0.00000  Uiso   1.00
O169   O     0.93360   0.19272   0.21360   0.00000  Uiso   1.00
O170   O     0.73738   0.18878   0.28213   0.00000  Uiso   1.00
O171   O     0.92158   0.15226   0.27013   0.00000  Uiso   1.00
O172   O     0.80426   0.06944   0.23413   0.00000  Uiso   1.00
O173   O     0.87012   0.25620   0.21360   0.00000  Uiso   1.00
Zn174  Zn    0.86005   0.13994   0.28734   0.00000  Uiso   1.00
Zn175  Zn    0.80046   0.12458   0.21875   0.00000  Uiso   1.00
Zn176  Zn    0.87723   0.19775   0.20657   0.00000  Uiso   1.00
Zn177  Zn    0.79560   0.20439   0.28733   0.00000  Uiso   1.00
C178   C     0.05303   0.49336   0.25957   0.00000  Uiso   1.00
C179   C     0.17829   0.49898   0.05502   0.00000  Uiso   1.00
C180   C     0.20416   0.43362   0.06004   0.00000  Uiso   1.00
C181   C     0.28070   0.50702   0.24023   0.00000  Uiso   1.00
C182   C     0.13542   0.52292   0.42196   0.00000  Uiso   1.00
C183   C     0.32625   0.50921   0.23688   0.00000  Uiso   1.00
C184   C     0.00757   0.48999   0.26513   0.00000  Uiso   1.00
C185   C     0.18083   0.65600   0.23776   0.00000  Uiso   1.00
C186   C     0.15114   0.34544   0.26429   0.00000  Uiso   1.00
C187   C     0.15621   0.38939   0.26015   0.00000  Uiso   1.00
C188   C     0.17660   0.61129   0.24040   0.00000  Uiso   1.00
C189   C     0.10461   0.56250   0.49289   0.00000  Uiso   1.00
C190   C     0.18490   0.48183   0.12908   0.00000  Uiso   1.00
C191   C     0.14776   0.51770   0.37150   0.00000  Uiso   1.00
C192   C     0.19956   0.42059   0.01669   0.00000  Uiso   1.00
C193   C     0.19241   0.47276   0.07999   0.00000  Uiso   1.00
C194   C     0.11704   0.55899   0.44516   0.00000  Uiso   1.00
C195   C     0.11696   0.53495   0.01706   0.00000  Uiso   1.00
C196   C     0.14321   0.50421   0.49372   0.00000  Uiso   1.00
C197   C     0.14361   0.49304   0.44795   0.00000  Uiso   1.00
C198   C     0.16627   0.48236   0.01494   0.00000  Uiso   1.00
C199   C     0.18001   0.44394   0.49392   0.00000  Uiso   1.00
C200   C     0.17205   0.42879   0.45168   0.00000  Uiso   1.00
C201   C     0.15081   0.45198   0.43066   0.00000  Uiso   1.00
H202   H     0.20954   0.39077   0.00236   0.00000  Uiso   1.00
H203   H     0.01512   0.52682   0.21072   0.00000  Uiso   1.00
H204   H     0.22724   0.42169   0.10910   0.00000  Uiso   1.00
H205   H     0.33129   0.45619   0.31575   0.00000  Uiso   1.00
H206   H     0.09681   0.34940   0.30866   0.00000  Uiso   1.00
H207   H     0.19415   0.54968   0.09026   0.00000  Uiso   1.00
H208   H     0.09717   0.50815   0.07322   0.00000  Uiso   1.00
H209   H     0.06289   0.60101   0.49904   0.00000  Uiso   1.00
I210   I     0.23547   0.34996   0.19033   0.00000  Uiso   1.00
I211   I     0.19511   0.37295   0.41634   0.00000  Uiso   1.00
I212   I     0.10902   0.61046   0.41144   0.00000  Uiso   1.00
I213   I     0.11191   0.41856   0.38880   0.00000  Uiso   1.00
O214   O     0.16667   0.50000   0.25000   0.00000  Uiso   1.00
O215   O     0.15451   0.45970   0.15458   0.00000  Uiso   1.00
O216   O     0.12940   0.53724   0.34968   0.00000  Uiso   1.00
O217   O     0.20824   0.51092   0.14606   0.00000  Uiso   1.00
O218   O     0.17451   0.49213   0.34968   0.00000  Uiso   1.00
O219   O     0.21999   0.40694   0.08167   0.00000  Uiso   1.00
O220   O     0.31377   0.46758   0.29914   0.00000  Uiso   1.00
O221   O     0.11494   0.66074   0.29354   0.00000  Uiso   1.00
O222   O     0.17659   0.54075   0.06840   0.00000  Uiso   1.00
O223   O     0.09875   0.53620   0.06308   0.00000  Uiso   1.00
O224   O     0.08049   0.59273   0.01749   0.00000  Uiso   1.00
O225   O     0.17930   0.41352   0.28213   0.00000  Uiso   1.00
O226   O     0.14632   0.59418   0.27013   0.00000  Uiso   1.00
O227   O     0.07412   0.46625   0.23413   0.00000  Uiso   1.00
O228   O     0.26693   0.52605   0.21360   0.00000  Uiso   1.00
O229   O     0.07071   0.52211   0.28213   0.00000  Uiso   1.00
O230   O     0.25491   0.48559   0.27013   0.00000  Uiso   1.00
O231   O     0.13760   0.40277   0.23413   0.00000  Uiso   1.00
O232   O     0.20345   0.58953   0.21360   0.00000  Uiso   1.00
Zn233  Zn    0.19338   0.47327   0.28734   0.00000  Uiso   1.00
Zn234  Zn    0.13379   0.45791   0.21875   0.00000  Uiso   1.00
Zn235  Zn    0.21056   0.53109   0.20657   0.00000  Uiso   1.00
Zn236  Zn    0.12893   0.53773   0.28733   0.00000  Uiso   1.00
C237   C     0.38636   0.49336   0.25957   0.00000  Uiso   1.00
C238   C     0.51162   0.49898   0.05502   0.00000  Uiso   1.00
C239   C     0.53749   0.43362   0.06004   0.00000  Uiso   1.00
C240   C     0.61403   0.50702   0.24023   0.00000  Uiso   1.00
C241   C     0.46875   0.52292   0.42196   0.00000  Uiso   1.00
C242   C     0.65958   0.50921   0.23688   0.00000  Uiso   1.00
C243   C     0.34090   0.48999   0.26513   0.00000  Uiso   1.00
C244   C     0.51416   0.65600   0.23776   0.00000  Uiso   1.00
C245   C     0.48448   0.34544   0.26429   0.00000  Uiso   1.00
C246   C     0.48955   0.38939   0.26015   0.00000  Uiso   1.00
C247   C     0.50993   0.61129   0.24040   0.00000  Uiso   1.00
C248   C     0.43794   0.56250   0.49289   0.00000  Uiso   1.00
C249   C     0.51824   0.48183   0.12908   0.00000  Uiso   1.00
C250   C     0.48109   0.51770   0.37150   0.00000  Uiso   1.00
C251   C     0.53290   0.42059   0.01669   0.00000  Uiso   1.00
C252   C     0.52575   0.47276   0.07999   0.00000  Uiso   1.00
C253   C     0.45038   0.55899   0.44516   0.00000  Uiso   1.00
C254   C     0.45029   0.53495   0.01706   0.00000  Uiso   1.00
C255   C     0.47654   0.50421   0.49372   0.00000  Uiso   1.00
C256   C     0.47695   0.49304   0.44795   0.00000  Uiso   1.00
C257   C     0.49960   0.48236   0.01494   0.00000  Uiso   1.00
C258   C     0.51334   0.44394   0.49392   0.00000  Uiso   1.00
C259   C     0.50538   0.42879   0.45168   0.00000  Uiso   1.00
C260   C     0.48414   0.45198   0.43066   0.00000  Uiso   1.00
H261   H     0.54287   0.39077   0.00236   0.00000  Uiso   1.00
H262   H     0.34845   0.52682   0.21072   0.00000  Uiso   1.00
H263   H     0.56058   0.42169   0.10910   0.00000  Uiso   1.00
H264   H     0.66462   0.45619   0.31575   0.00000  Uiso   1.00
H265   H     0.43014   0.34940   0.30866   0.00000  Uiso   1.00
H266   H     0.52748   0.54968   0.09026   0.00000  Uiso   1.00
H267   H     0.43050   0.50815   0.07322   0.00000  Uiso   1.00
H268   H     0.39623   0.60101   0.49904   0.00000  Uiso   1.00
I269   I     0.56880   0.34996   0.19033   0.00000  Uiso   1.00
I270   I     0.52844   0.37295   0.41634   0.00000  Uiso   1.00
I271   I     0.44236   0.61046   0.41144   0.00000  Uiso   1.00
I272   I     0.44524   0.41856   0.38880   0.00000  Uiso   1.00
O273   O     0.50000   0.50000   0.25000   0.00000  Uiso   1.00
O274   O     0.48784   0.45970   0.15458   0.00000  Uiso   1.00
O275   O     0.46274   0.53724   0.34968   0.00000  Uiso   1.00
O276   O     0.54157   0.51092   0.14606   0.00000  Uiso   1.00
O277   O     0.50785   0.49213   0.34968   0.00000  Uiso   1.00
O278   O     0.55332   0.40694   0.08167   0.00000  Uiso   1.00
O279   O     0.64711   0.46758   0.29914   0.00000  Uiso   1.00
O280   O     0.44828   0.66074   0.29354   0.00000  Uiso   1.00
O281   O     0.50992   0.54075   0.06840   0.00000  Uiso   1.00
O282   O     0.43208   0.53620   0.06308   0.00000  Uiso   1.00
O283   O     0.41383   0.59273   0.01749   0.00000  Uiso   1.00
O284   O     0.51264   0.41352   0.28213   0.00000  Uiso   1.00
O285   O     0.47965   0.59418   0.27013   0.00000  Uiso   1.00
O286   O     0.40745   0.46625   0.23413   0.00000  Uiso   1.00
O287   O     0.60026   0.52605   0.21360   0.00000  Uiso   1.00
O288   O     0.40405   0.52211   0.28213   0.00000  Uiso   1.00
O289   O     0.58824   0.48559   0.27013   0.00000  Uiso   1.00
O290   O     0.47093   0.40277   0.23413   0.00000  Uiso   1.00
O291   O     0.53678   0.58953   0.21360   0.00000  Uiso   1.00
Zn292  Zn    0.52672   0.47327   0.28734   0.00000  Uiso   1.00
Zn293  Zn    0.46713   0.45791   0.21875   0.00000  Uiso   1.00
Zn294  Zn    0.54389   0.53109   0.20657   0.00000  Uiso   1.00
Zn295  Zn    0.46226   0.53773   0.28733   0.00000  Uiso   1.00
C296   C     0.71969   0.49336   0.25957   0.00000  Uiso   1.00
C297   C     0.84495   0.49898   0.05502   0.00000  Uiso   1.00
C298   C     0.87083   0.43362   0.06004   0.00000  Uiso   1.00
C299   C     0.94736   0.50702   0.24023   0.00000  Uiso   1.00
C300   C     0.80208   0.52292   0.42196   0.00000  Uiso   1.00
C301   C     0.99291   0.50921   0.23688   0.00000  Uiso   1.00
C302   C     0.67423   0.48999   0.26513   0.00000  Uiso   1.00
C303   C     0.84749   0.65600   0.23776   0.00000  Uiso   1.00
C304   C     0.81781   0.34544   0.26429   0.00000  Uiso   1.00
C305   C     0.82288   0.38939   0.26015   0.00000  Uiso   1.00
C306   C     0.84326   0.61129   0.24040   0.00000  Uiso   1.00
C307   C     0.77127   0.56250   0.49289   0.00000  Uiso   1.00
C308   C     0.85157   0.48183   0.12908   0.00000  Uiso   1.00
C309   C     0.81443   0.51770   0.37150   0.00000  Uiso   1.00
C310   C     0.86623   0.42059   0.01669   0.00000  Uiso   1.00
C311   C     0.85908   0.47276   0.07999   0.00000  Uiso   1.00
C312   C     0.78371   0.55899   0.44516   0.00000  Uiso   1.00
C313   C     0.78363   0.53495   0.01706   0.00000  Uiso   1.00
C314   C     0.80987   0.50421   0.49372   0.00000  Uiso   1.00
C315   C     0.81028   0.49304   0.44795   0.00000  Uiso   1.00
C316   C     0.83294   0.48236   0.01494   0.00000  Uiso   1.00
C317   C     0.84667   0.44394   0.49392   0.00000  Uiso   1.00
C318   C     0.83872   0.42879   0.45168   0.00000  Uiso   1.00
C319   C     0.81747   0.45198   0.43066   0.00000  Uiso   1.00
H320   H     0.87620   0.39077   0.00236   0.00000  Uiso   1.00
H321   H     0.68179   0.52682   0.21072   0.00000  Uiso   1.00
H322   H     0.89391   0.42169   0.10910   0.00000  Uiso   1.00
H323   H     0.99796   0.45619   0.31575   0.00000  Uiso   1.00
H324   H     0.76347   0.34940   0.30866   0.00000  Uiso   1.00
H325   H     0.86082   0.54968   0.09026   0.00000  Uiso   1.00
H326   H     0.76383   0.50815   0.07322   0.00000  Uiso   1.00
H327   H     0.72956   0.60101   0.49904   0.00000  Uiso   1.00
I328   I     0.90214   0.34996   0.19033   0.00000  Uiso   1.00
I329   I     0.86178   0.37295   0.41634   0.00000  Uiso   1.00
I330   I     0.77569   0.61046   0.41144   0.00000  Uiso   1.00
I331   I     0.77857   0.41856   0.38880   0.00000  Uiso   1.00
O332   O     0.83333   0.50000   0.25000   0.00000  Uiso   1.00
O333   O     0.82118   0.45970   0.15458   0.00000  Uiso   1.00
O334   O     0.79607   0.53724   0.34968   0.00000  Uiso   1.00
O335   O     0.87491   0.51092   0.14606   0.00000  Uiso   1.00
O336   O     0.84118   0.49213   0.34968   0.00000  Uiso   1.00
O337   O     0.88666   0.40694   0.08167   0.00000  Uiso   1.00
O338   O     0.98044   0.46758   0.29914   0.00000  Uiso   1.00
O339   O     0.78161   0.66074   0.29354   0.00000  Uiso   1.00
O340   O     0.84326   0.54075   0.06840   0.00000  Uiso   1.00
O341   O     0.76542   0.53620   0.06308   0.00000  Uiso   1.00
O342   O     0.74716   0.59273   0.01749   0.00000  Uiso   1.00
O343   O     0.84597   0.41352   0.28213   0.00000  Uiso   1.00
O344   O     0.81298   0.59418   0.27013   0.00000  Uiso   1.00
O345   O     0.74078   0.46625   0.23413   0.00000  Uiso   1.00
O346   O     0.93360   0.52605   0.21360   0.00000  Uiso   1.00
O347   O     0.73738   0.52211   0.28213   0.00000  Uiso   1.00
O348   O     0.92158   0.48559   0.27013   0.00000  Uiso   1.00
O349   O     0.80426   0.40277   0.23413   0.00000  Uiso   1.00
O350   O     0.87012   0.58953   0.21360   0.00000  Uiso   1.00
Zn351  Zn    0.86005   0.47327   0.28734   0.00000  Uiso   1.00
Zn352  Zn    0.80046   0.45791   0.21875   0.00000  Uiso   1.00
Zn353  Zn    0.87723   0.53109   0.20657   0.00000  Uiso   1.00
Zn354  Zn    0.79560   0.53773   0.28733   0.00000  Uiso   1.00
C355   C     0.05303   0.82670   0.25957   0.00000  Uiso   1.00
C356   C     0.17829   0.83231   0.05502   0.00000  Uiso   1.00
C357   C     0.20416   0.76695   0.06004   0.00000  Uiso   1.00
C358   C     0.28070   0.84035   0.24023   0.00000  Uiso   1.00
C359   C     0.13542   0.85625   0.42196   0.00000  Uiso   1.00
C360   C     0.32625   0.84254   0.23688   0.00000  Uiso   1.00
C361   C     0.00757   0.82332   0.26513   0.00000  Uiso   1.00
C362   C     0.18083   0.98933   0.23776   0.00000  Uiso   1.00
C363   C     0.15114   0.67877   0.26429   0.00000  Uiso   1.00
C364   C     0.15621   0.72273   0.26015   0.00000  Uiso   1.00
C365   C     0.17660   0.94462   0.24040   0.00000  Uiso   1.00
C366   C     0.10461   0.89583   0.49289   0.00000  Uiso   1.00
C367   C     0.18490   0.81516   0.12908   0.00000  Uiso   1.00
C368   C     0.14776   0.85104   0.37150   0.00000  Uiso   1.00
C369   C     0.19956   0.75392   0.01669   0.00000  Uiso   1.00
C370   C     0.19241   0.80609   0.07999   0.00000  Uiso   1.00
C371   C     0.11704   0.89232   0.44516   0.00000  Uiso   1.00
C372   C     0.11696   0.86828   0.01706   0.00000  Uiso   1.00
C373   C     0.14321   0.83754   0.49372   0.00000  Uiso   1.00
C374   C     0.14361   0.82637   0.44795   0.00000  Uiso   1.00
C375   C     0.16627   0.81569   0.01494   0.00000  Uiso   1.00
C376   C     0.18001   0.77727   0.49392   0.00000  Uiso   1.00
C377   C     0.17205   0.76212   0.45168   0.00000  Uiso   1.00
C378   C     0.15081   0.78531   0.43066   0.00000  Uiso   1.00
H379   H     0.20954   0.72410   0.00236   0.00000  Uiso   1.00
H380   H     0.01512   0.86015   0.21072   0.00000  Uiso   1.00
H381   H     0.22724   0.75502   0.10910   0.00000  Uiso   1.00
H382   H     0.33129   0.78952   0.31575   0.00000  Uiso   1.00
H383   H     0.09681   0.68273   0.30866   0.00000  Uiso   1.00
H384   H     0.19415   0.88301   0.09026   0.00000  Uiso   1.00
H385   H     0.09717   0.84148   0.07322   0.00000  Uiso   1.00
H386   H     0.06289   0.93434   0.49904   0.00000  Uiso   1.00
I387   I     0.23547   0.68330   0.19033   0.00000  Uiso   1.00
I388   I     0.19511   0.70629   0.41634   0.00000  Uiso   1.00
I389   I     0.10902   0.94379   0.41144   0.00000  Uiso   1.00
I390   I     0.11191   0.75189   0.38880   0.00000  Uiso   1.00
O391   O     0.16667   0.83333   0.25000   0.00000  Uiso   1.00
O392   O     0.15451   0.79304   0.15458   0.00000  Uiso   1.00
O393   O     0.12940   0.87058   0.34968   0.00000  Uiso   1.00
O394   O     0.20824   0.84425   0.14606   0.00000  Uiso   1.00
O395   O     0.17451   0.82546   0.34968   0.00000  Uiso   1.00
O396   O     0.21999   0.74028   0.08167   0.00000  Uiso   1.00
O397   O     0.31377   0.80091   0.29914   0.00000  Uiso   1.00
O398   O     0.11494   0.99407   0.29354   0.00000  Uiso   1.00
O399   O     0.17659   0.87409   0.06840   0.00000  Uiso   1.00
O400   O     0.09875   0.86954   0.06308   0.00000  Uiso   1.00
O401   O     0.08049   0.92606   0.01749   0.00000  Uiso   1.00
O402   O     0.17930   0.74686   0.28213   0.00000  Uiso   1.00
O403   O     0.14632   0.92751   0.27013   0.00000  Uiso   1.00
O404   O     0.07412   0.79958   0.23413   0.00000  Uiso   1.00
O405   O     0.26693   0.85939   0.21360   0.00000  Uiso   1.00
O406   O     0.07071   0.85544   0.28213   0.00000  Uiso   1.00
O407   O     0.25491   0.81892   0.27013   0.00000  Uiso   1.00
O408   O     0.13760   0.73610   0.23413   0.00000  Uiso   1.00
O409   O     0.20345   0.92286   0.21360   0.00000  Uiso   1.00
Zn410  Zn    0.19338   0.80661   0.28734   0.00000  Uiso   1.00
Zn411  Zn    0.13379   0.79124   0.21875   0.00000  Uiso   1.00
Zn412  Zn    0.21056   0.86442   0.20657   0.00000  Uiso   1.00
Zn413  Zn    0.12893   0.87106   0.28733   0.00000  Uiso   1.00
C414   C     0.38636   0.82670   0.25957   0.00000  Uiso   1.00
C415   C     0.51162   0.83231   0.05502   0.00000  Uiso   1.00
C416   C     0.53749   0.76695   0.06004   0.00000  Uiso   1.00
C417   C     0.61403   0.84035   0.24023   0.00000  Uiso   1.00
C418   C     0.46875   0.85625   0.42196   0.00000  Uiso   1.00
C419   C     0.65958   0.84254   0.23688   0.00000  Uiso   1.00
C420   C     0.34090   0.82332   0.26513   0.00000  Uiso   1.00
C421   C     0.51416   0.98933   0.23776   0.00000  Uiso   1.00
C422   C     0.48448   0.67877   0.26429   0.00000  Uiso   1.00
C423   C     0.48955   0.72273   0.26015   0.00000  Uiso   1.00
C424   C     0.50993   0.94462   0.24040   0.00000  Uiso   1.00
C425   C     0.43794   0.89583   0.49289   0.00000  Uiso   1.00
C426   C     0.51824   0.81516   0.12908   0.00000  Uiso   1.00
C427   C     0.48109   0.85104   0.37150   0.00000  Uiso   1.00
C428   C     0.53290   0.75392   0.01669   0.00000  Uiso   1.00
C429   C     0.52575   0.80609   0.07999   0.00000  Uiso   1.00
C430   C     0.45038   0.89232   0.44516   0.00000  Uiso   1.00
C431   C     0.45029   0.86828   0.01706   0.00000  Uiso   1.00
C432   C     0.47654   0.83754   0.49372   0.00000  Uiso   1.00
C433   C     0.47695   0.82637   0.44795   0.00000  Uiso   1.00
C434   C     0.49960   0.81569   0.01494   0.00000  Uiso   1.00
C435   C     0.51334   0.77727   0.49392   0.00000  Uiso   1.00
C436   C     0.50538   0.76212   0.45168   0.00000  Uiso   1.00
C437   C     0.48414   0.78531   0.43066   0.00000  Uiso   1.00
H438   H     0.54287   0.72410   0.00236   0.00000  Uiso   1.00
H439   H     0.34845   0.86015   0.21072   0.00000  Uiso   1.00
H440   H     0.56058   0.75502   0.10910   0.00000  Uiso   1.00
H441   H     0.66462   0.78952   0.31575   0.00000  Uiso   1.00
H442   H     0.43014   0.68273   0.30866   0.00000  Uiso   1.00
H443   H     0.52748   0.88301   0.09026   0.00000  Uiso   1.00
H444   H     0.43050   0.84148   0.07322   0.00000  Uiso   1.00
H445   H     0.39623   0.93434   0.49904   0.00000  Uiso   1.00
I446   I     0.56880   0.68330   0.19033   0.00000  Uiso   1.00
I447   I     0.52844   0.70629   0.41634   0.00000  Uiso   1.00
I448   I     0.44236   0.94379   0.41144   0.00000  Uiso   1.00
I449   I     0.44524   0.75189   0.38880   0.00000  Uiso   1.00
O450   O     0.50000   0.83333   0.25000   0.00000  Uiso   1.00
O451   O     0.48784   0.79304   0.15458   0.00000  Uiso   1.00
O452   O     0.46274   0.87058   0.34968   0.00000  Uiso   1.00
O453   O     0.54157   0.84425   0.14606   0.00000  Uiso   1.00
O454   O     0.50785   0.82546   0.34968   0.00000  Uiso   1.00
O455   O     0.55332   0.74028   0.08167   0.00000  Uiso   1.00
O456   O     0.64711   0.80091   0.29914   0.00000  Uiso   1.00
O457   O     0.44828   0.99407   0.29354   0.00000  Uiso   1.00
O458   O     0.50992   0.87409   0.06840   0.00000  Uiso   1.00
O459   O     0.43208   0.86954   0.06308   0.00000  Uiso   1.00
O460   O     0.41383   0.92606   0.01749   0.00000  Uiso   1.00
O461   O     0.51264   0.74686   0.28213   0.00000  Uiso   1.00
O462   O     0.47965   0.92751   0.27013   0.00000  Uiso   1.00
O463   O     0.40745   0.79958   0.23413   0.00000  Uiso   1.00
O464   O     0.60026   0.85939   0.21360   0.00000  Uiso   1.00
O465   O     0.40405   0.85544   0.28213   0.00000  Uiso   1.00
O466   O     0.58824   0.81892   0.27013   0.00000  Uiso   1.00
O467   O     0.47093   0.73610   0.23413   0.00000  Uiso   1.00
O468   O     0.53678   0.92286   0.21360   0.00000  Uiso   1.00
Zn469  Zn    0.52672   0.80661   0.28734   0.00000  Uiso   1.00
Zn470  Zn    0.46713   0.79124   0.21875   0.00000  Uiso   1.00
Zn471  Zn    0.54389   0.86442   0.20657   0.00000  Uiso   1.00
Zn472  Zn    0.46226   0.87106   0.28733   0.00000  Uiso   1.00
C473   C     0.71969   0.82670   0.25957   0.00000  Uiso   1.00
C474   C     0.84495   0.83231   0.05502   0.00000  Uiso   1.00
C475   C     0.87083   0.76695   0.06004   0.00000  Uiso   1.00
C476   C     0.94736   0.84035   0.24023   0.00000  Uiso   1.00
C477   C     0.80208   0.85625   0.42196   0.00000  Uiso   1.00
C478   C     0.99291   0.84254   0.23688   0.00000  Uiso   1.00
C479   C     0.67423   0.82332   0.26513   0.00000  Uiso   1.00
C480   C     0.84749   0.98933   0.23776   0.00000  Uiso   1.00
C481   C     0.81781   0.67877   0.26429   0.00000  Uiso   1.00
C482   C     0.82288   0.72273   0.26015   0.00000  Uiso   1.00
C483   C     0.84326   0.94462   0.24040   0.00000  Uiso   1.00
C484   C     0.77127   0.89583   0.49289   0.00000  Uiso   1.00
C485   C     0.85157   0.81516   0.12908   0.00000  Uiso   1.00
C486   C     0.81443   0.85104   0.37150   0.00000  Uiso   1.00
C487   C     0.86623   0.75392   0.01669   0.00000  Uiso   1.00
C488   C     0.85908   0.80609   0.07999   0.00000  Uiso   1.00
C489   C     0.78371   0.89232   0.44516   0.00000  Uiso   1.00
C490   C     0.78363   0.86828   0.01706   0.00000  Uiso   1.00
C491   C     0.80987   0.83754   0.49372   0.00000  Uiso   1.00
C492   C     0.81028   0.82637   0.44795   0.00000  Uiso   1.00
C493   C     0.83294   0.81569   0.01494   0.00000  Uiso   1.00
C494   C     0.84667   0.77727   0.49392   0.00000  Uiso   1.00
C495   C     0.83872   0.76212   0.45168   0.00000  Uiso   1.00
C496   C     0.81747   0.78531   0.43066   0.00000  Uiso   1.00
H497   H     0.87620   0.72410   0.00236   0.00000  Uiso   1.00
H498   H     0.68179   0.86015   0.21072   0.00000  Uiso   1.00
H499   H     0.89391   0.75502   0.10910   0.00000  Uiso   1.00
H500   H     0.99796   0.78952   0.31575   0.00000  Uiso   1.00
H501   H     0.76347   0.68273   0.30866   0.00000  Uiso   1.00
H502   H     0.86082   0.88301   0.09026   0.00000  Uiso   1.00
H503   H     0.76383   0.84148   0.07322   0.00000  Uiso   1.00
H504   H     0.72956   0.93434   0.49904   0.00000  Uiso   1.00
I505   I     0.90214   0.68330   0.19033   0.00000  Uiso   1.00
I506   I     0.86178   0.70629   0.41634   0.00000  Uiso   1.00
I507   I     0.77569   0.94379   0.41144   0.00000  Uiso   1.00
I508   I     0.77857   0.75189   0.38880   0.00000  Uiso   1.00
O509   O     0.83333   0.83333   0.25000   0.00000  Uiso   1.00
O510   O     0.82118   0.79304   0.15458   0.00000  Uiso   1.00
O511   O     0.79607   0.87058   0.34968   0.00000  Uiso   1.00
O512   O     0.87491   0.84425   0.14606   0.00000  Uiso   1.00
O513   O     0.84118   0.82546   0.34968   0.00000  Uiso   1.00
O514   O     0.88666   0.74028   0.08167   0.00000  Uiso   1.00
O515   O     0.98044   0.80091   0.29914   0.00000  Uiso   1.00
O516   O     0.78161   0.99407   0.29354   0.00000  Uiso   1.00
O517   O     0.84326   0.87409   0.06840   0.00000  Uiso   1.00
O518   O     0.76542   0.86954   0.06308   0.00000  Uiso   1.00
O519   O     0.74716   0.92606   0.01749   0.00000  Uiso   1.00
O520   O     0.84597   0.74686   0.28213   0.00000  Uiso   1.00
O521   O     0.81298   0.92751   0.27013   0.00000  Uiso   1.00
O522   O     0.74078   0.79958   0.23413   0.00000  Uiso   1.00
O523   O     0.93360   0.85939   0.21360   0.00000  Uiso   1.00
O524   O     0.73738   0.85544   0.28213   0.00000  Uiso   1.00
O525   O     0.92158   0.81892   0.27013   0.00000  Uiso   1.00
O526   O     0.80426   0.73610   0.23413   0.00000  Uiso   1.00
O527   O     0.87012   0.92286   0.21360   0.00000  Uiso   1.00
Zn528  Zn    0.86005   0.80661   0.28734   0.00000  Uiso   1.00
Zn529  Zn    0.80046   0.79124   0.21875   0.00000  Uiso   1.00
Zn530  Zn    0.87723   0.86442   0.20657   0.00000  Uiso   1.00
Zn531  Zn    0.79560   0.87106   0.28733   0.00000  Uiso   1.00
C532   C     0.05303   0.16003   0.75957   0.00000  Uiso   1.00
C533   C     0.17829   0.16564   0.55502   0.00000  Uiso   1.00
C534   C     0.20416   0.10028   0.56004   0.00000  Uiso   1.00
C535   C     0.28070   0.17369   0.74023   0.00000  Uiso   1.00
C536   C     0.13542   0.18959   0.92196   0.00000  Uiso   1.00
C537   C     0.32625   0.17588   0.73688   0.00000  Uiso   1.00
C538   C     0.00757   0.15665   0.76513   0.00000  Uiso   1.00
C539   C     0.18083   0.32267   0.73776   0.00000  Uiso   1.00
C540   C     0.15114   0.01211   0.76429   0.00000  Uiso   1.00
C541   C     0.15621   0.05606   0.76015   0.00000  Uiso   1.00
C542   C     0.17660   0.27795   0.74040   0.00000  Uiso   1.00
C543   C     0.10461   0.22916   0.99289   0.00000  Uiso   1.00
C544   C     0.18490   0.14850   0.62908   0.00000  Uiso   1.00
C545   C     0.14776   0.18437   0.87150   0.00000  Uiso   1.00
C546   C     0.19956   0.08725   0.51669   0.00000  Uiso   1.00
C547   C     0.19241   0.13942   0.57999   0.00000  Uiso   1.00
C548   C     0.11704   0.22565   0.94516   0.00000  Uiso   1.00
C549   C     0.11696   0.20161   0.51706   0.00000  Uiso   1.00
C550   C     0.14321   0.17088   0.99372   0.00000  Uiso   1.00
C551   C     0.14361   0.15970   0.94795   0.00000  Uiso   1.00
C552   C     0.16627   0.14902   0.51494   0.00000  Uiso   1.00
C553   C     0.18001   0.11060   0.99392   0.00000  Uiso   1.00
C554   C     0.17205   0.09546   0.95168   0.00000  Uiso   1.00
C555   C     0.15081   0.11865   0.93066   0.00000  Uiso   1.00
H556   H     0.20954   0.05744   0.50236   0.00000  Uiso   1.00
H557   H     0.01512   0.19349   0.71072   0.00000  Uiso   1.00
H558   H     0.22724   0.08836   0.60910   0.00000  Uiso   1.00
H559   H     0.33129   0.12286   0.81575   0.00000  Uiso   1.00
H560   H     0.09681   0.01606   0.80866   0.00000  Uiso   1.00
H561   H     0.19415   0.21635   0.59026   0.00000  Uiso   1.00
H562   H     0.09717   0.17482   0.57322   0.00000  Uiso   1.00
H563   H     0.06289   0.26767   0.99904   0.00000  Uiso   1.00
I564   I     0.23547   0.01663   0.69033   0.00000  Uiso   1.00
I565   I     0.19511   0.03962   0.91634   0.00000  Uiso   1.00
I566   I     0.10902   0.27712   0.91144   0.00000  Uiso   1.00
I567   I     0.11191   0.08523   0.88880   0.00000  Uiso   1.00
O568   O     0.16667   0.16667   0.75000   0.00000  Uiso   1.00
O569   O     0.15451   0.12637   0.65458   0.00000  Uiso   1.00
O570   O     0.12940   0.20391   0.84968   0.00000  Uiso   1.00
O571   O     0.20824   0.17759   0.64606   0.00000  Uiso   1.00
O572   O     0.17451   0.15880   0.84968   0.00000  Uiso   1.00
O573   O     0.21999   0.07361   0.58167   0.00000  Uiso   1.00
O574   O     0.31377   0.13424   0.79914   0.00000  Uiso   1.00
O575   O     0.11494   0.32740   0.79354   0.00000  Uiso   1.00
O576   O     0.17659   0.20742   0.56840   0.00000  Uiso   1.00
O577   O     0.09875   0.20287   0.56308   0.00000  Uiso   1.00
O578   O     0.08049   0.25939   0.51749   0.00000  Uiso   1.00
O579   O     0.17930   0.08019   0.78213   0.00000  Uiso   1.00
O580   O     0.14632   0.26085   0.77013   0.00000  Uiso   1.00
O581   O     0.07412   0.13291   0.73413   0.00000  Uiso   1.00
O582   O     0.26693   0.19272   0.71360   0.00000  Uiso   1.00
O583   O     0.07071   0.18878   0.78213   0.00000  Uiso   1.00
O584   O     0.25491   0.15226   0.77013   0.00000  Uiso   1.00
O585   O     0.13760   0.06944   0.73413   0.00000  Uiso   1.00
O586   O     0.20345   0.25620   0.71360   0.00000  Uiso   1.00
Zn587  Zn    0.19338   0.13994   0.78734   0.00000  Uiso   1.00
Zn588  Zn    0.13379   0.12458   0.71875   0.00000  Uiso   1.00
Zn589  Zn    0.21056   0.19775   0.70657   0.00000  Uiso   1.00
Zn590  Zn    0.12893   0.20439   0.78733   0.00000  Uiso   1.00
C591   C     0.38636   0.16003   0.75957   0.00000  Uiso   1.00
C592   C     0.51162   0.16564   0.55502   0.00000  Uiso   1.00
C593   C     0.53749   0.10028   0.56004   0.00000  Uiso   1.00
C594   C     0.61403   0.17369   0.74023   0.00000  Uiso   1.00
C595   C     0.46875   0.18959   0.92196   0.00000  Uiso   1.00
C596   C     0.65958   0.17588   0.73688   0.00000  Uiso   1.00
C597   C     0.34090   0.15665   0.76513   0.00000  Uiso   1.00
C598   C     0.51416   0.32267   0.73776   0.00000  Uiso   1.00
C599   C     0.48448   0.01211   0.76429   0.00000  Uiso   1.00
C600   C     0.48955   0.05606   0.76015   0.00000  Uiso   1.00
C601   C     0.50993   0.27795   0.74040   0.00000  Uiso   1.00
C602   C     0.43794   0.22916   0.99289   0.00000  Uiso   1.00
C603   C     0.51824   0.14850   0.62908   0.00000  Uiso   1.00
C604   C     0.48109   0.18437   0.87150   0.00000  Uiso   1.00
C605   C     0.53290   0.08725   0.51669   0.00000  Uiso   1.00
C606   C     0.52575   0.13942   0.57999   0.00000  Uiso   1.00
C607   C     0.45038   0.22565   0.94516   0.00000  Uiso   1.00
C608   C     0.45029   0.20161   0.51706   0.00000  Uiso   1.00
C609   C     0.47654   0.17088   0.99372   0.00000  Uiso   1.00
C610   C     0.47695   0.15970   0.94795   0.00000  Uiso   1.00
C611   C     0.49960   0.14902   0.51494   0.00000  Uiso   1.00
C612   C     0.51334   0.11060   0.99392   0.00000  Uiso   1.00
C613   C     0.50538   0.09546   0.95168   0.00000  Uiso   1.00
C614   C     0.48414   0.11865   0.93066   0.00000  Uiso   1.00
H615   H     0.54287   0.05744   0.50236   0.00000  Uiso   1.00
H616   H     0.34845   0.19349   0.71072   0.00000  Uiso   1.00
H617   H     0.56058   0.08836   0.60910   0.00000  Uiso   1.00
H618   H     0.66462   0.12286   0.81575   0.00000  Uiso   1.00
H619   H     0.43014   0.01606   0.80866   0.00000  Uiso   1.00
H620   H     0.52748   0.21635   0.59026   0.00000  Uiso   1.00
H621   H     0.43050   0.17482   0.57322   0.00000  Uiso   1.00
H622   H     0.39623   0.26767   0.99904   0.00000  Uiso   1.00
I623   I     0.56880   0.01663   0.69033   0.00000  Uiso   1.00
I624   I     0.52844   0.03962   0.91634   0.00000  Uiso   1.00
I625   I     0.44236   0.27712   0.91144   0.00000  Uiso   1.00
I626   I     0.44524   0.08523   0.88880   0.00000  Uiso   1.00
O627   O     0.50000   0.16667   0.75000   0.00000  Uiso   1.00
O628   O     0.48784   0.12637   0.65458   0.00000  Uiso   1.00
O629   O     0.46274   0.20391   0.84968   0.00000  Uiso   1.00
O630   O     0.54157   0.17759   0.64606   0.00000  Uiso   1.00
O631   O     0.50785   0.15880   0.84968   0.00000  Uiso   1.00
O632   O     0.55332   0.07361   0.58167   0.00000  Uiso   1.00
O633   O     0.64711   0.13424   0.79914   0.00000  Uiso   1.00
O634   O     0.44828   0.32740   0.79354   0.00000  Uiso   1.00
O635   O     0.50992   0.20742   0.56840   0.00000  Uiso   1.00
O636   O     0.43208   0.20287   0.56308   0.00000  Uiso   1.00
O637   O     0.41383   0.25939   0.51749   0.00000  Uiso   1.00
O638   O     0.51264   0.08019   0.78213   0.00000  Uiso   1.00
O639   O     0.47965   0.26085   0.77013   0.00000  Uiso   1.00
O640   O     0.40745   0.13291   0.73413   0.00000  Uiso   1.00
O641   O     0.60026   0.19272   0.71360   0.00000  Uiso   1.00
O642   O     0.40405   0.18878   0.78213   0.00000  Uiso   1.00
O643   O     0.58824   0.15226   0.77013   0.00000  Uiso   1.00
O644   O     0.47093   0.06944   0.73413   0.00000  Uiso   1.00
O645   O     0.53678   0.25620   0.71360   0.00000  Uiso   1.00
Zn646  Zn    0.52672   0.13994   0.78734   0.00000  Uiso   1.00
Zn647  Zn    0.46713   0.12458   0.71875   0.00000  Uiso   1.00
Zn648  Zn    0.54389   0.19775   0.70657   0.00000  Uiso   1.00
Zn649  Zn    0.46226   0.20439   0.78733   0.00000  Uiso   1.00
C650   C     0.71969   0.16003   0.75957   0.00000  Uiso   1.00
C651   C     0.84495   0.16564   0.55502   0.00000  Uiso   1.00
C652   C     0.87083   0.10028   0.56004   0.00000  Uiso   1.00
C653   C     0.94736   0.17369   0.74023   0.00000  Uiso   1.00
C654   C     0.80208   0.18959   0.92196   0.00000  Uiso   1.00
C655   C     0.99291   0.17588   0.73688   0.00000  Uiso   1.00
C656   C     0.67423   0.15665   0.76513   0.00000  Uiso   1.00
C657   C     0.84749   0.32267   0.73776   0.00000  Uiso   1.00
C658   C     0.81781   0.01211   0.76429   0.00000  Uiso   1.00
C659   C     0.82288   0.05606   0.76015   0.00000  Uiso   1.00
C660   C     0.84326   0.27795   0.74040   0.00000  Uiso   1.00
C661   C     0.77127   0.22916   0.99289   0.00000  Uiso   1.00
C662   C     0.85157   0.14850   0.62908   0.00000  Uiso   1.00
C663   C     0.81443   0.18437   0.87150   0.00000  Uiso   1.00
C664   C     0.86623   0.08725   0.51669   0.00000  Uiso   1.00
C665   C     0.85908   0.13942   0.57999   0.00000  Uiso   1.00
C666   C     0.78371   0.22565   0.94516   0.00000  Uiso   1.00
C667   C     0.78363   0.20161   0.51706   0.00000  Uiso   1.00
C668   C     0.80987   0.17088   0.99372   0.00000  Uiso   1.00
C669   C     0.81028   0.15970   0.94795   0.00000  Uiso   1.00
C670   C     0.83294   0.14902   0.51494   0.00000  Uiso   1.00
C671   C     0.84667   0.11060   0.99392   0.00000  Uiso   1.00
C672   C     0.83872   0.09546   0.95168   0.00000  Uiso   1.00
C673   C     0.81747   0.11865   0.93066   0.00000  Uiso   1.00
H674   H     0.87620   0.05744   0.50236   0.00000  Uiso   1.00
H675   H     0.68179   0.19349   0.71072   0.00000  Uiso   1.00
H676   H     0.89391   0.08836   0.60910   0.00000  Uiso   1.00
H677   H     0.99796   0.12286   0.81575   0.00000  Uiso   1.00
H678   H     0.76347   0.01606   0.80866   0.00000  Uiso   1.00
H679   H     0.86082   0.21635   0.59026   0.00000  Uiso   1.00
H680   H     0.76383   0.17482   0.57322   0.00000  Uiso   1.00
H681   H     0.72956   0.26767   0.99904   0.00000  Uiso   1.00
I682   I     0.90214   0.01663   0.69033   0.00000  Uiso   1.00
I683   I     0.86178   0.03962   0.91634   0.00000  Uiso   1.00
I684   I     0.77569   0.27712   0.91144   0.00000  Uiso   1.00
I685   I     0.77857   0.08523   0.88880   0.00000  Uiso   1.00
O686   O     0.83333   0.16667   0.75000   0.00000  Uiso   1.00
O687   O     0.82118   0.12637   0.65458   0.00000  Uiso   1.00
O688   O     0.79607   0.20391   0.84968   0.00000  Uiso   1.00
O689   O     0.87491   0.17759   0.64606   0.00000  Uiso   1.00
O690   O     0.84118   0.15880   0.84968   0.00000  Uiso   1.00
O691   O     0.88666   0.07361   0.58167   0.00000  Uiso   1.00
O692   O     0.98044   0.13424   0.79914   0.00000  Uiso   1.00
O693   O     0.78161   0.32740   0.79354   0.00000  Uiso   1.00
O694   O     0.84326   0.20742   0.56840   0.00000  Uiso   1.00
O695   O     0.76542   0.20287   0.56308   0.00000  Uiso   1.00
O696   O     0.74716   0.25939   0.51749   0.00000  Uiso   1.00
O697   O     0.84597   0.08019   0.78213   0.00000  Uiso   1.00
O698   O     0.81298   0.26085   0.77013   0.00000  Uiso   1.00
O699   O     0.74078   0.13291   0.73413   0.00000  Uiso   1.00
O700   O     0.93360   0.19272   0.71360   0.00000  Uiso   1.00
O701   O     0.73738   0.18878   0.78213   0.00000  Uiso   1.00
O702   O     0.92158   0.15226   0.77013   0.00000  Uiso   1.00
O703   O     0.80426   0.06944   0.73413   0.00000  Uiso   1.00
O704   O     0.87012   0.25620   0.71360   0.00000  Uiso   1.00
Zn705  Zn    0.86005   0.13994   0.78734   0.00000  Uiso   1.00
Zn706  Zn    0.80046   0.12458   0.71875   0.00000  Uiso   1.00
Zn707  Zn    0.87723   0.19775   0.70657   0.00000  Uiso   1.00
Zn708  Zn    0.79560   0.20439   0.78733   0.00000  Uiso   1.00
C709   C     0.05303   0.49336   0.75957   0.00000  Uiso   1.00
C710   C     0.17829   0.49898   0.55502   0.00000  Uiso   1.00
C711   C     0.20416   0.43362   0.56004   0.00000  Uiso   1.00
C712   C     0.28070   0.50702   0.74023   0.00000  Uiso   1.00
C713   C     0.13542   0.52292   0.92196   0.00000  Uiso   1.00
C714   C     0.32625   0.50921   0.73688   0.00000  Uiso   1.00
C715   C     0.00757   0.48999   0.76513   0.00000  Uiso   1.00
C716   C     0.18083   0.65600   0.73776   0.00000  Uiso   1.00
C717   C     0.15114   0.34544   0.76429   0.00000  Uiso   1.00
C718   C     0.15621   0.38939   0.76015   0.00000  Uiso   1.00
C719   C     0.17660   0.61129   0.74040   0.00000  Uiso   1.00
C720   C     0.10461   0.56250   0.99289   0.00000  Uiso   1.00
C721   C     0.18490   0.48183   0.62908   0.00000  Uiso   1.00
C722   C     0.14776   0.51770   0.87150   0.00000  Uiso   1.00
C723   C     0.19956   0.42059   0.51669   0.00000  Uiso   1.00
C724   C     0.19241   0.47276   0.57999   0.00000  Uiso   1.00
C725   C     0.11704   0.55899   0.94516   0.00000  Uiso   1.00
C726   C     0.11696   0.53495   0.51706   0.00000  Uiso   1.00
C727   C     0.14321   0.50421   0.99372   0.00000  Uiso   1.00
C728   C     0.14361   0.49304   0.94795   0.00000  Uiso   1.00
C729   C     0.16627   0.48236   0.51494   0.00000  Uiso   1.00
C730   C     0.18001   0.44394   0.99392   0.00000  Uiso   1.00
C731   C     0.17205   0.42879   0.95168   0.00000  Uiso   1.00
C732   C     0.15081   0.45198   0.93066   0.00000  Uiso   1.00
H733   H     0.20954   0.39077   0.50236   0.00000  Uiso   1.00
H734   H     0.01512   0.52682   0.71072   0.00000  Uiso   1.00
H735   H     0.22724   0.42169   0.60910   0.00000  Uiso   1.00
H736   H     0.33129   0.45619   0.81575   0.00000  Uiso   1.00
H737   H     0.09681   0.34940   0.80866   0.00000  Uiso   1.00
H738   H     0.19415   0.54968   0.59026   0.00000  Uiso   1.00
H739   H     0.09717   0.50815   0.57322   0.00000  Uiso   1.00
H740   H     0.06289   0.60101   0.99904   0.00000  Uiso   1.00
I741   I     0.23547   0.34996   0.69033   0.00000  Uiso   1.00
I742   I     0.19511   0.37295   0.91634   0.00000  Uiso   1.00
I743   I     0.10902   0.61046   0.91144   0.00000  Uiso   1.00
I744   I     0.11191   0.41856   0.88880   0.00000  Uiso   1.00
O745   O     0.16667   0.50000   0.75000   0.00000  Uiso   1.00
O746   O     0.15451   0.45970   0.65458   0.00000  Uiso   1.00
O747   O     0.12940   0.53724   0.84968   0.00000  Uiso   1.00
O748   O     0.20824   0.51092   0.64606   0.00000  Uiso   1.00
O749   O     0.17451   0.49213   0.84968   0.00000  Uiso   1.00
O750   O     0.21999   0.40694   0.58167   0.00000  Uiso   1.00
O751   O     0.31377   0.46758   0.79914   0.00000  Uiso   1.00
O752   O     0.11494   0.66074   0.79354   0.00000  Uiso   1.00
O753   O     0.17659   0.54075   0.56840   0.00000  Uiso   1.00
O754   O     0.09875   0.53620   0.56308   0.00000  Uiso   1.00
O755   O     0.08049   0.59273   0.51749   0.00000  Uiso   1.00
O756   O     0.17930   0.41352   0.78213   0.00000  Uiso   1.00
O757   O     0.14632   0.59418   0.77013   0.00000  Uiso   1.00
O758   O     0.07412   0.46625   0.73413   0.00000  Uiso   1.00
O759   O     0.26693   0.52605   0.71360   0.00000  Uiso   1.00
O760   O     0.07071   0.52211   0.78213   0.00000  Uiso   1.00
O761   O     0.25491   0.48559   0.77013   0.00000  Uiso   1.00
O762   O     0.13760   0.40277   0.73413   0.00000  Uiso   1.00
O763   O     0.20345   0.58953   0.71360   0.00000  Uiso   1.00
Zn764  Zn    0.19338   0.47327   0.78734   0.00000  Uiso   1.00
Zn765  Zn    0.13379   0.45791   0.71875   0.00000  Uiso   1.00
Zn766  Zn    0.21056   0.53109   0.70657   0.00000  Uiso   1.00
Zn767  Zn    0.12893   0.53773   0.78733   0.00000  Uiso   1.00
C768   C     0.38636   0.49336   0.75957   0.00000  Uiso   1.00
C769   C     0.51162   0.49898   0.55502   0.00000  Uiso   1.00
C770   C     0.53749   0.43362   0.56004   0.00000  Uiso   1.00
C771   C     0.61403   0.50702   0.74023   0.00000  Uiso   1.00
C772   C     0.46875   0.52292   0.92196   0.00000  Uiso   1.00
C773   C     0.65958   0.50921   0.73688   0.00000  Uiso   1.00
C774   C     0.34090   0.48999   0.76513   0.00000  Uiso   1.00
C775   C     0.51416   0.65600   0.73776   0.00000  Uiso   1.00
C776   C     0.48448   0.34544   0.76429   0.00000  Uiso   1.00
C777   C     0.48955   0.38939   0.76015   0.00000  Uiso   1.00
C778   C     0.50993   0.61129   0.74040   0.00000  Uiso   1.00
C779   C     0.43794   0.56250   0.99289   0.00000  Uiso   1.00
C780   C     0.51824   0.48183   0.62908   0.00000  Uiso   1.00
C781   C     0.48109   0.51770   0.87150   0.00000  Uiso   1.00
C782   C     0.53290   0.42059   0.51669   0.00000  Uiso   1.00
C783   C     0.52575   0.47276   0.57999   0.00000  Uiso   1.00
C784   C     0.45038   0.55899   0.94516   0.00000  Uiso   1.00
C785   C     0.45029   0.53495   0.51706   0.00000  Uiso   1.00
C786   C     0.47654   0.50421   0.99372   0.00000  Uiso   1.00
C787   C     0.47695   0.49304   0.94795   0.00000  Uiso   1.00
C788   C     0.49960   0.48236   0.51494   0.00000  Uiso   1.00
C789   C     0.51334   0.44394   0.99392   0.00000  Uiso   1.00
C790   C     0.50538   0.42879   0.95168   0.00000  Uiso   1.00
C791   C     0.48414   0.45198   0.93066   0.00000  Uiso   1.00
H792   H     0.54287   0.39077   0.50236   0.00000  Uiso   1.00
H793   H     0.34845   0.52682   0.71072   0.00000  Uiso   1.00
H794   H     0.56058   0.42169   0.60910   0.00000  Uiso   1.00
H795   H     0.66462   0.45619   0.81575   0.00000  Uiso   1.00
H796   H     0.43014   0.34940   0.80866   0.00000  Uiso   1.00
H797   H     0.52748   0.54968   0.59026   0.00000  Uiso   1.00
H798   H     0.43050   0.50815   0.57322   0.00000  Uiso   1.00
H799   H     0.39623   0.60101   0.99904   0.00000  Uiso   1.00
I800   I     0.56880   0.34996   0.69033   0.00000  Uiso   1.00
I801   I     0.52844   0.37295   0.91634   0.00000  Uiso   1.00
I802   I     0.44236   0.61046   0.91144   0.00000  Uiso   1.00
I803   I     0.44524   0.41856   0.88880   0.00000  Uiso   1.00
O804   O     0.50000   0.50000   0.75000   0.00000  Uiso   1.00
O805   O     0.48784   0.45970   0.65458   0.00000  Uiso   1.00
O806   O     0.46274   0.53724   0.84968   0.00000  Uiso   1.00
O807   O     0.54157   0.51092   0.64606   0.00000  Uiso   1.00
O808   O     0.50785   0.49213   0.84968   0.00000  Uiso   1.00
O809   O     0.55332   0.40694   0.58167   0.00000  Uiso   1.00
O810   O     0.64711   0.46758   0.79914   0.00000  Uiso   1.00
O811   O     0.44828   0.66074   0.79354   0.00000  Uiso   1.00
O812   O     0.50992   0.54075   0.56840   0.00000  Uiso   1.00
O813   O     0.43208   0.53620   0.56308   0.00000  Uiso   1.00
O814   O     0.41383   0.59273   0.51749   0.00000  Uiso   1.00
O815   O     0.51264   0.41352   0.78213   0.00000  Uiso   1.00
O816   O     0.47965   0.59418   0.77013   0.00000  Uiso   1.00
O817   O     0.40745   0.46625   0.73413   0.00000  Uiso   1.00
O818   O     0.60026   0.52605   0.71360   0.00000  Uiso   1.00
O819   O     0.40405   0.52211   0.78213   0.00000  Uiso   1.00
O820   O     0.58824   0.48559   0.77013   0.00000  Uiso   1.00
O821   O     0.47093   0.40277   0.73413   0.00000  Uiso   1.00
O822   O     0.53678   0.58953   0.71360   0.00000  Uiso   1.00
Zn823  Zn    0.52672   0.47327   0.78734   0.00000  Uiso   1.00
Zn824  Zn    0.46713   0.45791   0.71875   0.00000  Uiso   1.00
Zn825  Zn    0.54389   0.53109   0.70657   0.00000  Uiso   1.00
Zn826  Zn    0.46226   0.53773   0.78733   0.00000  Uiso   1.00
C827   C     0.71969   0.49336   0.75957   0.00000  Uiso   1.00
C828   C     0.84495   0.49898   0.55502   0.00000  Uiso   1.00
C829   C     0.87083   0.43362   0.56004   0.00000  Uiso   1.00
C830   C     0.94736   0.50702   0.74023   0.00000  Uiso   1.00
C831   C     0.80208   0.52292   0.92196   0.00000  Uiso   1.00
C832   C     0.99291   0.50921   0.73688   0.00000  Uiso   1.00
C833   C     0.67423   0.48999   0.76513   0.00000  Uiso   1.00
C834   C     0.84749   0.65600   0.73776   0.00000  Uiso   1.00
C835   C     0.81781   0.34544   0.76429   0.00000  Uiso   1.00
C836   C     0.82288   0.38939   0.76015   0.00000  Uiso   1.00
C837   C     0.84326   0.61129   0.74040   0.00000  Uiso   1.00
C838   C     0.77127   0.56250   0.99289   0.00000  Uiso   1.00
C839   C     0.85157   0.48183   0.62908   0.00000  Uiso   1.00
C840   C     0.81443   0.51770   0.87150   0.00000  Uiso   1.00
C841   C     0.86623   0.42059   0.51669   0.00000  Uiso   1.00
C842   C     0.85908   0.47276   0.57999   0.00000  Uiso   1.00
C843   C     0.78371   0.55899   0.94516   0.00000  Uiso   1.00
C844   C     0.78363   0.53495   0.51706   0.00000  Uiso   1.00
C845   C     0.80987   0.50421   0.99372   0.00000  Uiso   1.00
C846   C     0.81028   0.49304   0.94795   0.00000  Uiso   1.00
C847   C     0.83294   0.48236   0.51494   0.00000  Uiso   1.00
C848   C     0.84667   0.44394   0.99392   0.00000  Uiso   1.00
C849   C     0.83872   0.42879   0.95168   0.00000  Uiso   1.00
C850   C     0.81747   0.45198   0.93066   0.00000  Uiso   1.00
H851   H     0.87620   0.39077   0.50236   0.00000  Uiso   1.00
H852   H     0.68179   0.52682   0.71072   0.00000  Uiso   1.00
H853   H     0.89391   0.42169   0.60910   0.00000  Uiso   1.00
H854   H     0.99796   0.45619   0.81575   0.00000  Uiso   1.00
H855   H     0.76347   0.34940   0.80866   0.00000  Uiso   1.00
H856   H     0.86082   0.54968   0.59026   0.00000  Uiso   1.00
H857   H     0.76383   0.50815   0.57322   0.00000  Uiso   1.00
H858   H     0.72956   0.60101   0.99904   0.00000  Uiso   1.00
I859   I     0.90214   0.34996   0.69033   0.00000  Uiso   1.00
I860   I     0.86178   0.37295   0.91634   0.00000  Uiso   1.00
I861   I     0.77569   0.61046   0.91144   0.00000  Uiso   1.00
I862   I     0.77857   0.41856   0.88880   0.00000  Uiso   1.00
O863   O     0.83333   0.50000   0.75000   0.00000  Uiso   1.00
O864   O     0.82118   0.45970   0.65458   0.00000  Uiso   1.00
O865   O     0.79607   0.53724   0.84968   0.00000  Uiso   1.00
O866   O     0.87491   0.51092   0.64606   0.00000  Uiso   1.00
O867   O     0.84118   0.49213   0.84968   0.00000  Uiso   1.00
O868   O     0.88666   0.40694   0.58167   0.00000  Uiso   1.00
O869   O     0.98044   0.46758   0.79914   0.00000  Uiso   1.00
O870   O     0.78161   0.66074   0.79354   0.00000  Uiso   1.00
O871   O     0.84326   0.54075   0.56840   0.00000  Uiso   1.00
O872   O     0.76542   0.53620   0.56308   0.00000  Uiso   1.00
O873   O     0.74716   0.59273   0.51749   0.00000  Uiso   1.00
O874   O     0.84597   0.41352   0.78213   0.00000  Uiso   1.00
O875   O     0.81298   0.59418   0.77013   0.00000  Uiso   1.00
O876   O     0.74078   0.46625   0.73413   0.00000  Uiso   1.00
O877   O     0.93360   0.52605   0.71360   0.00000  Uiso   1.00
O878   O     0.73738   0.52211   0.78213   0.00000  Uiso   1.00
O879   O     0.92158   0.48559   0.77013   0.00000  Uiso   1.00
O880   O     0.80426   0.40277   0.73413   0.00000  Uiso   1.00
O881   O     0.87012   0.58953   0.71360   0.00000  Uiso   1.00
Zn882  Zn    0.86005   0.47327   0.78734   0.00000  Uiso   1.00
Zn883  Zn    0.80046   0.45791   0.71875   0.00000  Uiso   1.00
Zn884  Zn    0.87723   0.53109   0.70657   0.00000  Uiso   1.00
Zn885  Zn    0.79560   0.53773   0.78733   0.00000  Uiso   1.00
C886   C     0.05303   0.82670   0.75957   0.00000  Uiso   1.00
C887   C     0.17829   0.83231   0.55502   0.00000  Uiso   1.00
C888   C     0.20416   0.76695   0.56004   0.00000  Uiso   1.00
C889   C     0.28070   0.84035   0.74023   0.00000  Uiso   1.00
C890   C     0.13542   0.85625   0.92196   0.00000  Uiso   1.00
C891   C     0.32625   0.84254   0.73688   0.00000  Uiso   1.00
C892   C     0.00757   0.82332   0.76513   0.00000  Uiso   1.00
C893   C     0.18083   0.98933   0.73776   0.00000  Uiso   1.00
C894   C     0.15114   0.67877   0.76429   0.00000  Uiso   1.00
C895   C     0.15621   0.72273   0.76015   0.00000  Uiso   1.00
C896   C     0.17660   0.94462   0.74040   0.00000  Uiso   1.00
C897   C     0.10461   0.89583   0.99289   0.00000  Uiso   1.00
C898   C     0.18490   0.81516   0.62908   0.00000  Uiso   1.00
C899   C     0.14776   0.85104   0.87150   0.00000  Uiso   1.00
C900   C     0.19956   0.75392   0.51669   0.00000  Uiso   1.00
C901   C     0.19241   0.80609   0.57999   0.00000  Uiso   1.00
C902   C     0.11704   0.89232   0.94516   0.00000  Uiso   1.00
C903   C     0.11696   0.86828   0.51706   0.00000  Uiso   1.00
C904   C     0.14321   0.83754   0.99372   0.00000  Uiso   1.00
C905   C     0.14361   0.82637   0.94795   0.00000  Uiso   1.00
C906   C     0.16627   0.81569   0.51494   0.00000  Uiso   1.00
C907   C     0.18001   0.77727   0.99392   0.00000  Uiso   1.00
C908   C     0.17205   0.76212   0.95168   0.00000  Uiso   1.00
C909   C     0.15081   0.78531   0.93066   0.00000  Uiso   1.00
H910   H     0.20954   0.72410   0.50236   0.00000  Uiso   1.00
H911   H     0.01512   0.86015   0.71072   0.00000  Uiso   1.00
H912   H     0.22724   0.75502   0.60910   0.00000  Uiso   1.00
H913   H     0.33129   0.78952   0.81575   0.00000  Uiso   1.00
H914   H     0.09681   0.68273   0.80866   0.00000  Uiso   1.00
H915   H     0.19415   0.88301   0.59026   0.00000  Uiso   1.00
H916   H     0.09717   0.84148   0.57322   0.00000  Uiso   1.00
H917   H     0.06289   0.93434   0.99904   0.00000  Uiso   1.00
I918   I     0.23547   0.68330   0.69033   0.00000  Uiso   1.00
I919   I     0.19511   0.70629   0.91634   0.00000  Uiso   1.00
I920   I     0.10902   0.94379   0.91144   0.00000  Uiso   1.00
I921   I     0.11191   0.75189   0.88880   0.00000  Uiso   1.00
O922   O     0.16667   0.83333   0.75000   0.00000  Uiso   1.00
O923   O     0.15451   0.79304   0.65458   0.00000  Uiso   1.00
O924   O     0.12940   0.87058   0.84968   0.00000  Uiso   1.00
O925   O     0.20824   0.84425   0.64606   0.00000  Uiso   1.00
O926   O     0.17451   0.82546   0.84968   0.00000  Uiso   1.00
O927   O     0.21999   0.74028   0.58167   0.00000  Uiso   1.00
O928   O     0.31377   0.80091   0.79914   0.00000  Uiso   1.00
O929   O     0.11494   0.99407   0.79354   0.00000  Uiso   1.00
O930   O     0.17659   0.87409   0.56840   0.00000  Uiso   1.00
O931   O     0.09875   0.86954   0.56308   0.00000  Uiso   1.00
O932   O     0.08049   0.92606   0.51749   0.00000  Uiso   1.00
O933   O     0.17930   0.74686   0.78213   0.00000  Uiso   1.00
O934   O     0.14632   0.92751   0.77013   0.00000  Uiso   1.00
O935   O     0.07412   0.79958   0.73413   0.00000  Uiso   1.00
O936   O     0.26693   0.85939   0.71360   0.00000  Uiso   1.00
O937   O     0.07071   0.85544   0.78213   0.00000  Uiso   1.00
O938   O     0.25491   0.81892   0.77013   0.00000  Uiso   1.00
O939   O     0.13760   0.73610   0.73413   0.00000  Uiso   1.00
O940   O     0.20345   0.92286   0.71360   0.00000  Uiso   1.00
Zn941  Zn    0.19338   0.80661   0.78734   0.00000  Uiso   1.00
Zn942  Zn    0.13379   0.79124   0.71875   0.00000  Uiso   1.00
Zn943  Zn    0.21056   0.86442   0.70657   0.00000  Uiso   1.00
Zn944  Zn    0.12893   0.87106   0.78733   0.00000  Uiso   1.00
C945   C     0.38636   0.82670   0.75957   0.00000  Uiso   1.00
C946   C     0.51162   0.83231   0.55502   0.00000  Uiso   1.00
C947   C     0.53749   0.76695   0.56004   0.00000  Uiso   1.00
C948   C     0.61403   0.84035   0.74023   0.00000  Uiso   1.00
C949   C     0.46875   0.85625   0.92196   0.00000  Uiso   1.00
C950   C     0.65958   0.84254   0.73688   0.00000  Uiso   1.00
C951   C     0.34090   0.82332   0.76513   0.00000  Uiso   1.00
C952   C     0.51416   0.98933   0.73776   0.00000  Uiso   1.00
C953   C     0.48448   0.67877   0.76429   0.00000  Uiso   1.00
C954   C     0.48955   0.72273   0.76015   0.00000  Uiso   1.00
C955   C     0.50993   0.94462   0.74040   0.00000  Uiso   1.00
C956   C     0.43794   0.89583   0.99289   0.00000  Uiso   1.00
C957   C     0.51824   0.81516   0.62908   0.00000  Uiso   1.00
C958   C     0.48109   0.85104   0.87150   0.00000  Uiso   1.00
C959   C     0.53290   0.75392   0.51669   0.00000  Uiso   1.00
C960   C     0.52575   0.80609   0.57999   0.00000  Uiso   1.00
C961   C     0.45038   0.89232   0.94516   0.00000  Uiso   1.00
C962   C     0.45029   0.86828   0.51706   0.00000  Uiso   1.00
C963   C     0.47654   0.83754   0.99372   0.00000  Uiso   1.00
C964   C     0.47695   0.82637   0.94795   0.00000  Uiso   1.00
C965   C     0.49960   0.81569   0.51494   0.00000  Uiso   1.00
C966   C     0.51334   0.77727   0.99392   0.00000  Uiso   1.00
C967   C     0.50538   0.76212   0.95168   0.00000  Uiso   1.00
C968   C     0.48414   0.78531   0.93066   0.00000  Uiso   1.00
H969   H     0.54287   0.72410   0.50236   0.00000  Uiso   1.00
H970   H     0.34845   0.86015   0.71072   0.00000  Uiso   1.00
H971   H     0.56058   0.75502   0.60910   0.00000  Uiso   1.00
H972   H     0.66462   0.78952   0.81575   0.00000  Uiso   1.00
H973   H     0.43014   0.68273   0.80866   0.00000  Uiso   1.00
H974   H     0.52748   0.88301   0.59026   0.00000  Uiso   1.00
H975   H     0.43050   0.84148   0.57322   0.00000  Uiso   1.00
H976   H     0.39623   0.93434   0.99904   0.00000  Uiso   1.00
I977   I     0.56880   0.68330   0.69033   0.00000  Uiso   1.00
I978   I     0.52844   0.70629   0.91634   0.00000  Uiso   1.00
I979   I     0.44236   0.94379   0.91144   0.00000  Uiso   1.00
I980   I     0.44524   0.75189   0.88880   0.00000  Uiso   1.00
O981   O     0.50000   0.83333   0.75000   0.00000  Uiso   1.00
O982   O     0.48784   0.79304   0.65458   0.00000  Uiso   1.00
O983   O     0.46274   0.87058   0.84968   0.00000  Uiso   1.00
O984   O     0.54157   0.84425   0.64606   0.00000  Uiso   1.00
O985   O     0.50785   0.82546   0.84968   0.00000  Uiso   1.00
O986   O     0.55332   0.74028   0.58167   0.00000  Uiso   1.00
O987   O     0.64711   0.80091   0.79914   0.00000  Uiso   1.00
O988   O     0.44828   0.99407   0.79354   0.00000  Uiso   1.00
O989   O     0.50992   0.87409   0.56840   0.00000  Uiso   1.00
O990   O     0.43208   0.86954   0.56308   0.00000  Uiso   1.00
O991   O     0.41383   0.92606   0.51749   0.00000  Uiso   1.00
O992   O     0.51264   0.74686   0.78213   0.00000  Uiso   1.00
O993   O     0.47965   0.92751   0.77013   0.00000  Uiso   1.00
O994   O     0.40745   0.79958   0.73413   0.00000  Uiso   1.00
O995   O     0.60026   0.85939   0.71360   0.00000  Uiso   1.00
O996   O     0.40405   0.85544   0.78213   0.00000  Uiso   1.00
O997   O     0.58824   0.81892   0.77013   0.00000  Uiso   1.00
O998   O     0.47093   0.73610   0.73413   0.00000  Uiso   1.00
O999   O     0.53678   0.92286   0.71360   0.00000  Uiso   1.00
Zn1000 Zn    0.52672   0.80661   0.78734   0.00000  Uiso   1.00
Zn1001 Zn    0.46713   0.79124   0.71875   0.00000  Uiso   1.00
Zn1002 Zn    0.54389   0.86442   0.70657   0.00000  Uiso   1.00
Zn1003 Zn    0.46226   0.87106   0.78733   0.00000  Uiso   1.00
C1004  C     0.71969   0.82670   0.75957   0.00000  Uiso   1.00
C1005  C     0.84495   0.83231   0.55502   0.00000  Uiso   1.00
C1006  C     0.87083   0.76695   0.56004   0.00000  Uiso   1.00
C1007  C     0.94736   0.84035   0.74023   0.00000  Uiso   1.00
C1008  C     0.80208   0.85625   0.92196   0.00000  Uiso   1.00
C1009  C     0.99291   0.84254   0.73688   0.00000  Uiso   1.00
C1010  C     0.67423   0.82332   0.76513   0.00000  Uiso   1.00
C1011  C     0.84749   0.98933   0.73776   0.00000  Uiso   1.00
C1012  C     0.81781   0.67877   0.76429   0.00000  Uiso   1.00
C1013  C     0.82288   0.72273   0.76015   0.00000  Uiso   1.00
C1014  C     0.84326   0.94462   0.74040   0.00000  Uiso   1.00
C1015  C     0.77127   0.89583   0.99289   0.00000  Uiso   1.00
C1016  C     0.85157   0.81516   0.62908   0.00000  Uiso   1.00
C1017  C     0.81443   0.85104   0.87150   0.00000  Uiso   1.00
C1018  C     0.86623   0.75392   0.51669   0.00000  Uiso   1.00
C1019  C     0.85908   0.80609   0.57999   0.00000  Uiso   1.00
C1020  C     0.78371   0.89232   0.94516   0.00000  Uiso   1.00
C1021  C     0.78363   0.86828   0.51706   0.00000  Uiso   1.00
C1022  C     0.80987   0.83754   0.99372   0.00000  Uiso   1.00
C1023  C     0.81028   0.82637   0.94795   0.00000  Uiso   1.00
C1024  C     0.83294   0.81569   0.51494   0.00000  Uiso   1.00
C1025  C     0.84667   0.77727   0.99392   0.00000  Uiso   1.00
C1026  C     0.83872   0.76212   0.95168   0.00000  Uiso   1.00
C1027  C     0.81747   0.78531   0.93066   0.00000  Uiso   1.00
H1028  H     0.87620   0.72410   0.50236   0.00000  Uiso   1.00
H1029  H     0.68179   0.86015   0.71072   0.00000  Uiso   1.00
H1030  H     0.89391   0.75502   0.60910   0.00000  Uiso   1.00
H1031  H     0.99796   0.78952   0.81575   0.00000  Uiso   1.00
H1032  H     0.76347   0.68273   0.80866   0.00000  Uiso   1.00
H1033  H     0.86082   0.88301   0.59026   0.00000  Uiso   1.00
H1034  H     0.76383   0.84148   0.57322   0.00000  Uiso   1.00
H1035  H     0.72956   0.93434   0.99904   0.00000  Uiso   1.00
I1036  I     0.90214   0.68330   0.69033   0.00000  Uiso   1.00
I1037  I     0.86178   0.70629   0.91634   0.00000  Uiso   1.00
I1038  I     0.77569   0.94379   0.91144   0.00000  Uiso   1.00
I1039  I     0.77857   0.75189   0.88880   0.00000  Uiso   1.00
O1040  O     0.83333   0.83333   0.75000   0.00000  Uiso   1.00
O1041  O     0.82118   0.79304   0.65458   0.00000  Uiso   1.00
O1042  O     0.79607   0.87058   0.84968   0.00000  Uiso   1.00
O1043  O     0.87491   0.84425   0.64606   0.00000  Uiso   1.00
O1044  O     0.84118   0.82546   0.84968   0.00000  Uiso   1.00
O1045  O     0.88666   0.74028   0.58167   0.00000  Uiso   1.00
O1046  O     0.98044   0.80091   0.79914   0.00000  Uiso   1.00
O1047  O     0.78161   0.99407   0.79354   0.00000  Uiso   1.00
O1048  O     0.84326   0.87409   0.56840   0.00000  Uiso   1.00
O1049  O     0.76542   0.86954   0.56308   0.00000  Uiso   1.00
O1050  O     0.74716   0.92606   0.51749   0.00000  Uiso   1.00
O1051  O     0.84597   0.74686   0.78213   0.00000  Uiso   1.00
O1052  O     0.81298   0.92751   0.77013   0.00000  Uiso   1.00
O1053  O     0.74078   0.79958   0.73413   0.00000  Uiso   1.00
O1054  O     0.93360   0.85939   0.71360   0.00000  Uiso   1.00
O1055  O     0.73738   0.85544   0.78213   0.00000  Uiso   1.00
O1056  O     0.92158   0.81892   0.77013   0.00000  Uiso   1.00
O1057  O     0.80426   0.73610   0.73413   0.00000  Uiso   1.00
O1058  O     0.87012   0.92286   0.71360   0.00000  Uiso   1.00
Zn1059 Zn    0.86005   0.80661   0.78734   0.00000  Uiso   1.00
Zn1060 Zn    0.80046   0.79124   0.71875   0.00000  Uiso   1.00
Zn1061 Zn    0.87723   0.86442   0.70657   0.00000  Uiso   1.00
Zn1062 Zn    0.79560   0.87106   0.78733   0.00000  Uiso   1.00
loop_
_geom_bond_atom_site_label_1
_geom_bond_atom_site_label_2
_geom_bond_distance
_geom_bond_site_symmetry_2
_ccdc_geom_bond_type
C1     O50     1.267   .     A
C1     O52     1.266   .     A
C1     C7      1.439   .     S
C2     C16     1.409   .     A
C2     C21     1.417   .     A
C2     O45     1.384   .     S
C3     O42     1.382   .     S
C3     C15     1.392   .     A
C3     C16     1.413   .     A
C4     O53     1.271   .     A
C4     O51     1.284   .     A
C4     C6      1.457   .     S
C5     C17     1.429   .     A
C5     C14     1.493   .     S
C5     C20     1.424   .     A
C6     C66     1.345   .     S
C6     H85     1.088   .     S
C7     C124    1.345   1_455 S
C7     O161    1.384   1_455 S
C8     C11     1.457   .     S
C8     C186    1.346   .     S
C8     I210    2.141   .     S
C9     C10     1.438   .     S
C9     C362    1.346   1_545 S
C9     O398    1.385   1_545 S
C10    O48     1.274   .     A
C10    O54     1.270   .     A
C11    O49     1.269   .     A
C11    O55     1.272   .     A
C12    C17     1.412   .     A
C12    C549    1.393   .     S
C12    O578    1.381   .     S
C13    O38     1.280   .     A
C13    C16     1.466   .     S
C13    O40     1.283   .     A
C14    O41     1.298   .     A
C14    O39     1.279   .     A
C15    H25     1.080   .     S
C15    C553    1.406   1_554 S
C17    I35     2.154   .     S
C18    O46     1.382   .     S
C18    C543    1.393   1_554 S
C18    C550    1.420   1_554 S
C19    C20     1.410   .     A
C19    C549    1.420   .     S
C19    C552    1.422   .     S
C20    C24     1.413   .     A
C21    C550    1.422   1_554 S
C21    C553    1.420   1_554 S
C22    C23     1.412   .     A
C22    C546    1.406   .     S
C22    C552    1.420   .     S
C23    C24     1.404   .     A
C23    I34     2.141   .     S
C24    I36     2.146   .     S
H26    C124    1.088   1_455 S
H27    O42     0.990   .     S
H28    O43     0.992   .     S
H29    O398    0.992   1_545 S
H30    O45     0.988   .     S
H31    O46     0.991   .     S
H32    O578    0.988   .     S
I33    C362    2.141   1_545 S
O37    Zn58    1.938   .     S
O37    Zn59    1.930   .     S
O37    Zn56    1.954   .     S
O37    Zn57    1.945   .     S
O38    Zn57    1.915   .     S
O39    Zn59    1.923   .     S
O40    Zn58    1.919   .     S
O41    Zn56    1.911   .     S
O43    C66     1.384   .     S
O44    C186    1.385   .     S
O44    H206    0.992   .     S
O47    H563    0.988   1_554 S
O47    C543    1.381   1_554 S
O48    Zn56    1.938   .     S
O49    Zn59    1.941   .     S
O50    Zn57    1.933   .     S
O51    Zn58    1.942   .     S
O52    Zn59    1.941   .     S
O53    Zn56    1.934   .     S
O54    Zn57    1.942   .     S
O55    Zn58    1.937   .     S
C60    O109    1.267   .     A
C60    O111    1.266   .     A
C60    C66     1.439   .     S
C61    C75     1.409   .     A
C61    C80     1.417   .     A
C61    O104    1.384   .     S
C62    O101    1.382   .     S
C62    C74     1.392   .     A
C62    C75     1.413   .     A
C63    O112    1.271   .     A
C63    O110    1.284   .     A
C63    C65     1.457   .     S
C64    C76     1.429   .     A
C64    C73     1.493   .     S
C64    C79     1.424   .     A
C65    C125    1.345   .     S
C65    H144    1.088   .     S
C67    C70     1.457   .     S
C67    C245    1.346   .     S
C67    I269    2.141   .     S
C68    C69     1.438   .     S
C68    C421    1.346   1_545 S
C68    O457    1.385   1_545 S
C69    O107    1.274   .     A
C69    O113    1.270   .     A
C70    O108    1.269   .     A
C70    O114    1.272   .     A
C71    C76     1.412   .     A
C71    C608    1.393   .     S
C71    O637    1.381   .     S
C72    O97     1.280   .     A
C72    C75     1.466   .     S
C72    O99     1.283   .     A
C73    O100    1.298   .     A
C73    O98     1.279   .     A
C74    H84     1.080   .     S
C74    C612    1.406   1_554 S
C76    I94     2.154   .     S
C77    O105    1.382   .     S
C77    C602    1.393   1_554 S
C77    C609    1.420   1_554 S
C78    C79     1.410   .     A
C78    C608    1.420   .     S
C78    C611    1.422   .     S
C79    C83     1.413   .     A
C80    C609    1.422   1_554 S
C80    C612    1.420   1_554 S
C81    C82     1.412   .     A
C81    C605    1.406   .     S
C81    C611    1.420   .     S
C82    C83     1.404   .     A
C82    I93     2.141   .     S
C83    I95     2.146   .     S
H86    O101    0.990   .     S
H87    O102    0.992   .     S
H88    O457    0.992   1_545 S
H89    O104    0.988   .     S
H90    O105    0.991   .     S
H91    O637    0.988   .     S
I92    C421    2.141   1_545 S
O96    Zn117   1.938   .     S
O96    Zn118   1.930   .     S
O96    Zn115   1.954   .     S
O96    Zn116   1.945   .     S
O97    Zn116   1.915   .     S
O98    Zn118   1.923   .     S
O99    Zn117   1.919   .     S
O100   Zn115   1.911   .     S
O102   C125    1.384   .     S
O103   C245    1.385   .     S
O103   H265    0.992   .     S
O106   H622    0.988   1_554 S
O106   C602    1.381   1_554 S
O107   Zn115   1.938   .     S
O108   Zn118   1.941   .     S
O109   Zn116   1.933   .     S
O110   Zn117   1.942   .     S
O111   Zn118   1.941   .     S
O112   Zn115   1.934   .     S
O113   Zn116   1.942   .     S
O114   Zn117   1.937   .     S
C119   O168    1.267   .     A
C119   O170    1.266   .     A
C119   C125    1.439   .     S
C120   C134    1.409   .     A
C120   C139    1.417   .     A
C120   O163    1.384   .     S
C121   O160    1.382   .     S
C121   C133    1.392   .     A
C121   C134    1.413   .     A
C122   O171    1.271   .     A
C122   O169    1.284   .     A
C122   C124    1.457   .     S
C123   C135    1.429   .     A
C123   C132    1.493   .     S
C123   C138    1.424   .     A
C124   C7      1.345   1_655 S
C124   H26     1.088   1_655 S
C126   C129    1.457   .     S
C126   C304    1.346   .     S
C126   I328    2.141   .     S
C127   C128    1.438   .     S
C127   C480    1.346   1_545 S
C127   O516    1.385   1_545 S
C128   O166    1.274   .     A
C128   O172    1.270   .     A
C129   O167    1.269   .     A
C129   O173    1.272   .     A
C130   C135    1.412   .     A
C130   C667    1.393   .     S
C130   O696    1.381   .     S
C131   O156    1.280   .     A
C131   C134    1.466   .     S
C131   O158    1.283   .     A
C132   O159    1.298   .     A
C132   O157    1.279   .     A
C133   H143    1.080   .     S
C133   C671    1.406   1_554 S
C135   I153    2.154   .     S
C136   O164    1.382   .     S
C136   C661    1.393   1_554 S
C136   C668    1.420   1_554 S
C137   C138    1.410   .     A
C137   C667    1.420   .     S
C137   C670    1.422   .     S
C138   C142    1.413   .     A
C139   C668    1.422   1_554 S
C139   C671    1.420   1_554 S
C140   C141    1.412   .     A
C140   C664    1.406   .     S
C140   C670    1.420   .     S
C141   C142    1.404   .     A
C141   I152    2.141   .     S
C142   I154    2.146   .     S
H145   O160    0.990   .     S
H146   O161    0.992   .     S
H147   O516    0.992   1_545 S
H148   O163    0.988   .     S
H149   O164    0.991   .     S
H150   O696    0.988   .     S
I151   C480    2.141   1_545 S
O155   Zn176   1.938   .     S
O155   Zn177   1.930   .     S
O155   Zn174   1.954   .     S
O155   Zn175   1.945   .     S
O156   Zn175   1.915   .     S
O157   Zn177   1.923   .     S
O158   Zn176   1.919   .     S
O159   Zn174   1.911   .     S
O161   C7      1.384   1_655 S
O162   C304    1.385   .     S
O162   H324    0.992   .     S
O165   H681    0.988   1_554 S
O165   C661    1.381   1_554 S
O166   Zn174   1.938   .     S
O167   Zn177   1.941   .     S
O168   Zn175   1.933   .     S
O169   Zn176   1.942   .     S
O170   Zn177   1.941   .     S
O171   Zn174   1.934   .     S
O172   Zn175   1.942   .     S
O173   Zn176   1.937   .     S
C178   O227    1.267   .     A
C178   O229    1.266   .     A
C178   C184    1.439   .     S
C179   C193    1.409   .     A
C179   C198    1.417   .     A
C179   O222    1.384   .     S
C180   O219    1.382   .     S
C180   C192    1.392   .     A
C180   C193    1.413   .     A
C181   O230    1.271   .     A
C181   O228    1.284   .     A
C181   C183    1.457   .     S
C182   C194    1.429   .     A
C182   C191    1.493   .     S
C182   C197    1.424   .     A
C183   C243    1.345   .     S
C183   H262    1.088   .     S
C184   C301    1.345   1_455 S
C184   O338    1.384   1_455 S
C185   C188    1.457   .     S
C185   C363    1.346   .     S
C185   I387    2.141   .     S
C186   C187    1.438   .     S
C187   O225    1.274   .     A
C187   O231    1.270   .     A
C188   O226    1.269   .     A
C188   O232    1.272   .     A
C189   C194    1.412   .     A
C189   C726    1.393   .     S
C189   O755    1.381   .     S
C190   O215    1.280   .     A
C190   C193    1.466   .     S
C190   O217    1.283   .     A
C191   O218    1.298   .     A
C191   O216    1.279   .     A
C192   H202    1.080   .     S
C192   C730    1.406   1_554 S
C194   I212    2.154   .     S
C195   O223    1.382   .     S
C195   C720    1.393   1_554 S
C195   C727    1.420   1_554 S
C196   C197    1.410   .     A
C196   C726    1.420   .     S
C196   C729    1.422   .     S
C197   C201    1.413   .     A
C198   C727    1.422   1_554 S
C198   C730    1.420   1_554 S
C199   C200    1.412   .     A
C199   C723    1.406   .     S
C199   C729    1.420   .     S
C200   C201    1.404   .     A
C200   I211    2.141   .     S
C201   I213    2.146   .     S
H203   C301    1.088   1_455 S
H204   O219    0.990   .     S
H205   O220    0.992   .     S
H207   O222    0.988   .     S
H208   O223    0.991   .     S
H209   O755    0.988   .     S
O214   Zn235   1.938   .     S
O214   Zn236   1.930   .     S
O214   Zn233   1.954   .     S
O214   Zn234   1.945   .     S
O215   Zn234   1.915   .     S
O216   Zn236   1.923   .     S
O217   Zn235   1.919   .     S
O218   Zn233   1.911   .     S
O220   C243    1.384   .     S
O221   C363    1.385   .     S
O221   H383    0.992   .     S
O224   H740    0.988   1_554 S
O224   C720    1.381   1_554 S
O225   Zn233   1.938   .     S
O226   Zn236   1.941   .     S
O227   Zn234   1.933   .     S
O228   Zn235   1.942   .     S
O229   Zn236   1.941   .     S
O230   Zn233   1.934   .     S
O231   Zn234   1.942   .     S
O232   Zn235   1.937   .     S
C237   O286    1.267   .     A
C237   O288    1.266   .     A
C237   C243    1.439   .     S
C238   C252    1.409   .     A
C238   C257    1.417   .     A
C238   O281    1.384   .     S
C239   O278    1.382   .     S
C239   C251    1.392   .     A
C239   C252    1.413   .     A
C240   O289    1.271   .     A
C240   O287    1.284   .     A
C240   C242    1.457   .     S
C241   C253    1.429   .     A
C241   C250    1.493   .     S
C241   C256    1.424   .     A
C242   C302    1.345   .     S
C242   H321    1.088   .     S
C244   C247    1.457   .     S
C244   C422    1.346   .     S
C244   I446    2.141   .     S
C245   C246    1.438   .     S
C246   O284    1.274   .     A
C246   O290    1.270   .     A
C247   O285    1.269   .     A
C247   O291    1.272   .     A
C248   C253    1.412   .     A
C248   C785    1.393   .     S
C248   O814    1.381   .     S
C249   O274    1.280   .     A
C249   C252    1.466   .     S
C249   O276    1.283   .     A
C250   O277    1.298   .     A
C250   O275    1.279   .     A
C251   H261    1.080   .     S
C251   C789    1.406   1_554 S
C253   I271    2.154   .     S
C254   O282    1.382   .     S
C254   C779    1.393   1_554 S
C254   C786    1.420   1_554 S
C255   C256    1.410   .     A
C255   C785    1.420   .     S
C255   C788    1.422   .     S
C256   C260    1.413   .     A
C257   C786    1.422   1_554 S
C257   C789    1.420   1_554 S
C258   C259    1.412   .     A
C258   C782    1.406   .     S
C258   C788    1.420   .     S
C259   C260    1.404   .     A
C259   I270    2.141   .     S
C260   I272    2.146   .     S
H263   O278    0.990   .     S
H264   O279    0.992   .     S
H266   O281    0.988   .     S
H267   O282    0.991   .     S
H268   O814    0.988   .     S
O273   Zn294   1.938   .     S
O273   Zn295   1.930   .     S
O273   Zn292   1.954   .     S
O273   Zn293   1.945   .     S
O274   Zn293   1.915   .     S
O275   Zn295   1.923   .     S
O276   Zn294   1.919   .     S
O277   Zn292   1.911   .     S
O279   C302    1.384   .     S
O280   C422    1.385   .     S
O280   H442    0.992   .     S
O283   H799    0.988   1_554 S
O283   C779    1.381   1_554 S
O284   Zn292   1.938   .     S
O285   Zn295   1.941   .     S
O286   Zn293   1.933   .     S
O287   Zn294   1.942   .     S
O288   Zn295   1.941   .     S
O289   Zn292   1.934   .     S
O290   Zn293   1.942   .     S
O291   Zn294   1.937   .     S
C296   O345    1.267   .     A
C296   O347    1.266   .     A
C296   C302    1.439   .     S
C297   C311    1.409   .     A
C297   C316    1.417   .     A
C297   O340    1.384   .     S
C298   O337    1.382   .     S
C298   C310    1.392   .     A
C298   C311    1.413   .     A
C299   O348    1.271   .     A
C299   O346    1.284   .     A
C299   C301    1.457   .     S
C300   C312    1.429   .     A
C300   C309    1.493   .     S
C300   C315    1.424   .     A
C301   C184    1.345   1_655 S
C301   H203    1.088   1_655 S
C303   C306    1.457   .     S
C303   C481    1.346   .     S
C303   I505    2.141   .     S
C304   C305    1.438   .     S
C305   O343    1.274   .     A
C305   O349    1.270   .     A
C306   O344    1.269   .     A
C306   O350    1.272   .     A
C307   C312    1.412   .     A
C307   C844    1.393   .     S
C307   O873    1.381   .     S
C308   O333    1.280   .     A
C308   C311    1.466   .     S
C308   O335    1.283   .     A
C309   O336    1.298   .     A
C309   O334    1.279   .     A
C310   H320    1.080   .     S
C310   C848    1.406   1_554 S
C312   I330    2.154   .     S
C313   O341    1.382   .     S
C313   C838    1.393   1_554 S
C313   C845    1.420   1_554 S
C314   C315    1.410   .     A
C314   C844    1.420   .     S
C314   C847    1.422   .     S
C315   C319    1.413   .     A
C316   C845    1.422   1_554 S
C316   C848    1.420   1_554 S
C317   C318    1.412   .     A
C317   C841    1.406   .     S
C317   C847    1.420   .     S
C318   C319    1.404   .     A
C318   I329    2.141   .     S
C319   I331    2.146   .     S
H322   O337    0.990   .     S
H323   O338    0.992   .     S
H325   O340    0.988   .     S
H326   O341    0.991   .     S
H327   O873    0.988   .     S
O332   Zn353   1.938   .     S
O332   Zn354   1.930   .     S
O332   Zn351   1.954   .     S
O332   Zn352   1.945   .     S
O333   Zn352   1.915   .     S
O334   Zn354   1.923   .     S
O335   Zn353   1.919   .     S
O336   Zn351   1.911   .     S
O338   C184    1.384   1_655 S
O339   C481    1.385   .     S
O339   H501    0.992   .     S
O342   H858    0.988   1_554 S
O342   C838    1.381   1_554 S
O343   Zn351   1.938   .     S
O344   Zn354   1.941   .     S
O345   Zn352   1.933   .     S
O346   Zn353   1.942   .     S
O347   Zn354   1.941   .     S
O348   Zn351   1.934   .     S
O349   Zn352   1.942   .     S
O350   Zn353   1.937   .     S
C355   O404    1.267   .     A
C355   O406    1.266   .     A
C355   C361    1.439   .     S
C356   C370    1.409   .     A
C356   C375    1.417   .     A
C356   O399    1.384   .     S
C357   O396    1.382   .     S
C357   C369    1.392   .     A
C357   C370    1.413   .     A
C358   O407    1.271   .     A
C358   O405    1.284   .     A
C358   C360    1.457   .     S
C359   C371    1.429   .     A
C359   C368    1.493   .     S
C359   C374    1.424   .     A
C360   C420    1.345   .     S
C360   H439    1.088   .     S
C361   C478    1.345   1_455 S
C361   O515    1.384   1_455 S
C362   C365    1.457   .     S
C362   C9      1.346   1_565 S
C362   I33     2.141   1_565 S
C363   C364    1.438   .     S
C364   O402    1.274   .     A
C364   O408    1.270   .     A
C365   O403    1.269   .     A
C365   O409    1.272   .     A
C366   C371    1.412   .     A
C366   C903    1.393   .     S
C366   O932    1.381   .     S
C367   O392    1.280   .     A
C367   C370    1.466   .     S
C367   O394    1.283   .     A
C368   O395    1.298   .     A
C368   O393    1.279   .     A
C369   H379    1.080   .     S
C369   C907    1.406   1_554 S
C371   I389    2.154   .     S
C372   O400    1.382   .     S
C372   C897    1.393   1_554 S
C372   C904    1.420   1_554 S
C373   C374    1.410   .     A
C373   C903    1.420   .     S
C373   C906    1.422   .     S
C374   C378    1.413   .     A
C375   C904    1.422   1_554 S
C375   C907    1.420   1_554 S
C376   C377    1.412   .     A
C376   C900    1.406   .     S
C376   C906    1.420   .     S
C377   C378    1.404   .     A
C377   I388    2.141   .     S
C378   I390    2.146   .     S
H380   C478    1.088   1_455 S
H381   O396    0.990   .     S
H382   O397    0.992   .     S
H384   O399    0.988   .     S
H385   O400    0.991   .     S
H386   O932    0.988   .     S
O391   Zn412   1.938   .     S
O391   Zn413   1.930   .     S
O391   Zn410   1.954   .     S
O391   Zn411   1.945   .     S
O392   Zn411   1.915   .     S
O393   Zn413   1.923   .     S
O394   Zn412   1.919   .     S
O395   Zn410   1.911   .     S
O397   C420    1.384   .     S
O398   C9      1.385   1_565 S
O398   H29     0.992   1_565 S
O401   H917    0.988   1_554 S
O401   C897    1.381   1_554 S
O402   Zn410   1.938   .     S
O403   Zn413   1.941   .     S
O404   Zn411   1.933   .     S
O405   Zn412   1.942   .     S
O406   Zn413   1.941   .     S
O407   Zn410   1.934   .     S
O408   Zn411   1.942   .     S
O409   Zn412   1.937   .     S
C414   O463    1.267   .     A
C414   O465    1.266   .     A
C414   C420    1.439   .     S
C415   C429    1.409   .     A
C415   C434    1.417   .     A
C415   O458    1.384   .     S
C416   O455    1.382   .     S
C416   C428    1.392   .     A
C416   C429    1.413   .     A
C417   O466    1.271   .     A
C417   O464    1.284   .     A
C417   C419    1.457   .     S
C418   C430    1.429   .     A
C418   C427    1.493   .     S
C418   C433    1.424   .     A
C419   C479    1.345   .     S
C419   H498    1.088   .     S
C421   C424    1.457   .     S
C421   C68     1.346   1_565 S
C421   I92     2.141   1_565 S
C422   C423    1.438   .     S
C423   O461    1.274   .     A
C423   O467    1.270   .     A
C424   O462    1.269   .     A
C424   O468    1.272   .     A
C425   C430    1.412   .     A
C425   C962    1.393   .     S
C425   O991    1.381   .     S
C426   O451    1.280   .     A
C426   C429    1.466   .     S
C426   O453    1.283   .     A
C427   O454    1.298   .     A
C427   O452    1.279   .     A
C428   H438    1.080   .     S
C428   C966    1.406   1_554 S
C430   I448    2.154   .     S
C431   O459    1.382   .     S
C431   C956    1.393   1_554 S
C431   C963    1.420   1_554 S
C432   C433    1.410   .     A
C432   C962    1.420   .     S
C432   C965    1.422   .     S
C433   C437    1.413   .     A
C434   C963    1.422   1_554 S
C434   C966    1.420   1_554 S
C435   C436    1.412   .     A
C435   C959    1.406   .     S
C435   C965    1.420   .     S
C436   C437    1.404   .     A
C436   I447    2.141   .     S
C437   I449    2.146   .     S
H440   O455    0.990   .     S
H441   O456    0.992   .     S
H443   O458    0.988   .     S
H444   O459    0.991   .     S
H445   O991    0.988   .     S
O450   Zn471   1.938   .     S
O450   Zn472   1.930   .     S
O450   Zn469   1.954   .     S
O450   Zn470   1.945   .     S
O451   Zn470   1.915   .     S
O452   Zn472   1.923   .     S
O453   Zn471   1.919   .     S
O454   Zn469   1.911   .     S
O456   C479    1.384   .     S
O457   C68     1.385   1_565 S
O457   H88     0.992   1_565 S
O460   H976    0.988   1_554 S
O460   C956    1.381   1_554 S
O461   Zn469   1.938   .     S
O462   Zn472   1.941   .     S
O463   Zn470   1.933   .     S
O464   Zn471   1.942   .     S
O465   Zn472   1.941   .     S
O466   Zn469   1.934   .     S
O467   Zn470   1.942   .     S
O468   Zn471   1.937   .     S
C473   O522    1.267   .     A
C473   O524    1.266   .     A
C473   C479    1.439   .     S
C474   C488    1.409   .     A
C474   C493    1.417   .     A
C474   O517    1.384   .     S
C475   O514    1.382   .     S
C475   C487    1.392   .     A
C475   C488    1.413   .     A
C476   O525    1.271   .     A
C476   O523    1.284   .     A
C476   C478    1.457   .     S
C477   C489    1.429   .     A
C477   C486    1.493   .     S
C477   C492    1.424   .     A
C478   C361    1.345   1_655 S
C478   H380    1.088   1_655 S
C480   C483    1.457   .     S
C480   C127    1.346   1_565 S
C480   I151    2.141   1_565 S
C481   C482    1.438   .     S
C482   O520    1.274   .     A
C482   O526    1.270   .     A
C483   O521    1.269   .     A
C483   O527    1.272   .     A
C484   C489    1.412   .     A
C484   C1021   1.393   .     S
C484   O1050   1.381   .     S
C485   O510    1.280   .     A
C485   C488    1.466   .     S
C485   O512    1.283   .     A
C486   O513    1.298   .     A
C486   O511    1.279   .     A
C487   H497    1.080   .     S
C487   C1025   1.406   1_554 S
C489   I507    2.154   .     S
C490   O518    1.382   .     S
C490   C1015   1.393   1_554 S
C490   C1022   1.420   1_554 S
C491   C492    1.410   .     A
C491   C1021   1.420   .     S
C491   C1024   1.422   .     S
C492   C496    1.413   .     A
C493   C1022   1.422   1_554 S
C493   C1025   1.420   1_554 S
C494   C495    1.412   .     A
C494   C1018   1.406   .     S
C494   C1024   1.420   .     S
C495   C496    1.404   .     A
C495   I506    2.141   .     S
C496   I508    2.146   .     S
H499   O514    0.990   .     S
H500   O515    0.992   .     S
H502   O517    0.988   .     S
H503   O518    0.991   .     S
H504   O1050   0.988   .     S
O509   Zn530   1.938   .     S
O509   Zn531   1.930   .     S
O509   Zn528   1.954   .     S
O509   Zn529   1.945   .     S
O510   Zn529   1.915   .     S
O511   Zn531   1.923   .     S
O512   Zn530   1.919   .     S
O513   Zn528   1.911   .     S
O515   C361    1.384   1_655 S
O516   C127    1.385   1_565 S
O516   H147    0.992   1_565 S
O519   H1035   0.988   1_554 S
O519   C1015   1.381   1_554 S
O520   Zn528   1.938   .     S
O521   Zn531   1.941   .     S
O522   Zn529   1.933   .     S
O523   Zn530   1.942   .     S
O524   Zn531   1.941   .     S
O525   Zn528   1.934   .     S
O526   Zn529   1.942   .     S
O527   Zn530   1.937   .     S
C532   O581    1.267   .     A
C532   O583    1.266   .     A
C532   C538    1.439   .     S
C533   C547    1.409   .     A
C533   C552    1.417   .     A
C533   O576    1.384   .     S
C534   O573    1.382   .     S
C534   C546    1.392   .     A
C534   C547    1.413   .     A
C535   O584    1.271   .     A
C535   O582    1.284   .     A
C535   C537    1.457   .     S
C536   C548    1.429   .     A
C536   C545    1.493   .     S
C536   C551    1.424   .     A
C537   C597    1.345   .     S
C537   H616    1.088   .     S
C538   C655    1.345   1_455 S
C538   O692    1.384   1_455 S
C539   C542    1.457   .     S
C539   C717    1.346   .     S
C539   I741    2.141   .     S
C540   C541    1.438   .     S
C540   C893    1.346   1_545 S
C540   O929    1.385   1_545 S
C541   O579    1.274   .     A
C541   O585    1.270   .     A
C542   O580    1.269   .     A
C542   O586    1.272   .     A
C543   C548    1.412   .     A
C543   C18     1.393   1_556 S
C543   O47     1.381   1_556 S
C544   O569    1.280   .     A
C544   C547    1.466   .     S
C544   O571    1.283   .     A
C545   O572    1.298   .     A
C545   O570    1.279   .     A
C546   H556    1.080   .     S
C548   I566    2.154   .     S
C549   O577    1.382   .     S
C550   C551    1.410   .     A
C550   C18     1.420   1_556 S
C550   C21     1.422   1_556 S
C551   C555    1.413   .     A
C553   C554    1.412   .     A
C553   C15     1.406   1_556 S
C553   C21     1.420   1_556 S
C554   C555    1.404   .     A
C554   I565    2.141   .     S
C555   I567    2.146   .     S
H557   C655    1.088   1_455 S
H558   O573    0.990   .     S
H559   O574    0.992   .     S
H560   O929    0.992   1_545 S
H561   O576    0.988   .     S
H562   O577    0.991   .     S
H563   O47     0.988   1_556 S
I564   C893    2.141   1_545 S
O568   Zn589   1.938   .     S
O568   Zn590   1.930   .     S
O568   Zn587   1.954   .     S
O568   Zn588   1.945   .     S
O569   Zn588   1.915   .     S
O570   Zn590   1.923   .     S
O571   Zn589   1.919   .     S
O572   Zn587   1.911   .     S
O574   C597    1.384   .     S
O575   C717    1.385   .     S
O575   H737    0.992   .     S
O579   Zn587   1.938   .     S
O580   Zn590   1.941   .     S
O581   Zn588   1.933   .     S
O582   Zn589   1.942   .     S
O583   Zn590   1.941   .     S
O584   Zn587   1.934   .     S
O585   Zn588   1.942   .     S
O586   Zn589   1.937   .     S
C591   O640    1.267   .     A
C591   O642    1.266   .     A
C591   C597    1.439   .     S
C592   C606    1.409   .     A
C592   C611    1.417   .     A
C592   O635    1.384   .     S
C593   O632    1.382   .     S
C593   C605    1.392   .     A
C593   C606    1.413   .     A
C594   O643    1.271   .     A
C594   O641    1.284   .     A
C594   C596    1.457   .     S
C595   C607    1.429   .     A
C595   C604    1.493   .     S
C595   C610    1.424   .     A
C596   C656    1.345   .     S
C596   H675    1.088   .     S
C598   C601    1.457   .     S
C598   C776    1.346   .     S
C598   I800    2.141   .     S
C599   C600    1.438   .     S
C599   C952    1.346   1_545 S
C599   O988    1.385   1_545 S
C600   O638    1.274   .     A
C600   O644    1.270   .     A
C601   O639    1.269   .     A
C601   O645    1.272   .     A
C602   C607    1.412   .     A
C602   C77     1.393   1_556 S
C602   O106    1.381   1_556 S
C603   O628    1.280   .     A
C603   C606    1.466   .     S
C603   O630    1.283   .     A
C604   O631    1.298   .     A
C604   O629    1.279   .     A
C605   H615    1.080   .     S
C607   I625    2.154   .     S
C608   O636    1.382   .     S
C609   C610    1.410   .     A
C609   C77     1.420   1_556 S
C609   C80     1.422   1_556 S
C610   C614    1.413   .     A
C612   C613    1.412   .     A
C612   C74     1.406   1_556 S
C612   C80     1.420   1_556 S
C613   C614    1.404   .     A
C613   I624    2.141   .     S
C614   I626    2.146   .     S
H617   O632    0.990   .     S
H618   O633    0.992   .     S
H619   O988    0.992   1_545 S
H620   O635    0.988   .     S
H621   O636    0.991   .     S
H622   O106    0.988   1_556 S
I623   C952    2.141   1_545 S
O627   Zn648   1.938   .     S
O627   Zn649   1.930   .     S
O627   Zn646   1.954   .     S
O627   Zn647   1.945   .     S
O628   Zn647   1.915   .     S
O629   Zn649   1.923   .     S
O630   Zn648   1.919   .     S
O631   Zn646   1.911   .     S
O633   C656    1.384   .     S
O634   C776    1.385   .     S
O634   H796    0.992   .     S
O638   Zn646   1.938   .     S
O639   Zn649   1.941   .     S
O640   Zn647   1.933   .     S
O641   Zn648   1.942   .     S
O642   Zn649   1.941   .     S
O643   Zn646   1.934   .     S
O644   Zn647   1.942   .     S
O645   Zn648   1.937   .     S
C650   O699    1.267   .     A
C650   O701    1.266   .     A
C650   C656    1.439   .     S
C651   C665    1.409   .     A
C651   C670    1.417   .     A
C651   O694    1.384   .     S
C652   O691    1.382   .     S
C652   C664    1.392   .     A
C652   C665    1.413   .     A
C653   O702    1.271   .     A
C653   O700    1.284   .     A
C653   C655    1.457   .     S
C654   C666    1.429   .     A
C654   C663    1.493   .     S
C654   C669    1.424   .     A
C655   C538    1.345   1_655 S
C655   H557    1.088   1_655 S
C657   C660    1.457   .     S
C657   C835    1.346   .     S
C657   I859    2.141   .     S
C658   C659    1.438   .     S
C658   C1011   1.346   1_545 S
C658   O1047   1.385   1_545 S
C659   O697    1.274   .     A
C659   O703    1.270   .     A
C660   O698    1.269   .     A
C660   O704    1.272   .     A
C661   C666    1.412   .     A
C661   C136    1.393   1_556 S
C661   O165    1.381   1_556 S
C662   O687    1.280   .     A
C662   C665    1.466   .     S
C662   O689    1.283   .     A
C663   O690    1.298   .     A
C663   O688    1.279   .     A
C664   H674    1.080   .     S
C666   I684    2.154   .     S
C667   O695    1.382   .     S
C668   C669    1.410   .     A
C668   C136    1.420   1_556 S
C668   C139    1.422   1_556 S
C669   C673    1.413   .     A
C671   C672    1.412   .     A
C671   C133    1.406   1_556 S
C671   C139    1.420   1_556 S
C672   C673    1.404   .     A
C672   I683    2.141   .     S
C673   I685    2.146   .     S
H676   O691    0.990   .     S
H677   O692    0.992   .     S
H678   O1047   0.992   1_545 S
H679   O694    0.988   .     S
H680   O695    0.991   .     S
H681   O165    0.988   1_556 S
I682   C1011   2.141   1_545 S
O686   Zn707   1.938   .     S
O686   Zn708   1.930   .     S
O686   Zn705   1.954   .     S
O686   Zn706   1.945   .     S
O687   Zn706   1.915   .     S
O688   Zn708   1.923   .     S
O689   Zn707   1.919   .     S
O690   Zn705   1.911   .     S
O692   C538    1.384   1_655 S
O693   C835    1.385   .     S
O693   H855    0.992   .     S
O697   Zn705   1.938   .     S
O698   Zn708   1.941   .     S
O699   Zn706   1.933   .     S
O700   Zn707   1.942   .     S
O701   Zn708   1.941   .     S
O702   Zn705   1.934   .     S
O703   Zn706   1.942   .     S
O704   Zn707   1.937   .     S
C709   O758    1.267   .     A
C709   O760    1.266   .     A
C709   C715    1.439   .     S
C710   C724    1.409   .     A
C710   C729    1.417   .     A
C710   O753    1.384   .     S
C711   O750    1.382   .     S
C711   C723    1.392   .     A
C711   C724    1.413   .     A
C712   O761    1.271   .     A
C712   O759    1.284   .     A
C712   C714    1.457   .     S
C713   C725    1.429   .     A
C713   C722    1.493   .     S
C713   C728    1.424   .     A
C714   C774    1.345   .     S
C714   H793    1.088   .     S
C715   C832    1.345   1_455 S
C715   O869    1.384   1_455 S
C716   C719    1.457   .     S
C716   C894    1.346   .     S
C716   I918    2.141   .     S
C717   C718    1.438   .     S
C718   O756    1.274   .     A
C718   O762    1.270   .     A
C719   O757    1.269   .     A
C719   O763    1.272   .     A
C720   C725    1.412   .     A
C720   C195    1.393   1_556 S
C720   O224    1.381   1_556 S
C721   O746    1.280   .     A
C721   C724    1.466   .     S
C721   O748    1.283   .     A
C722   O749    1.298   .     A
C722   O747    1.279   .     A
C723   H733    1.080   .     S
C725   I743    2.154   .     S
C726   O754    1.382   .     S
C727   C728    1.410   .     A
C727   C195    1.420   1_556 S
C727   C198    1.422   1_556 S
C728   C732    1.413   .     A
C730   C731    1.412   .     A
C730   C192    1.406   1_556 S
C730   C198    1.420   1_556 S
C731   C732    1.404   .     A
C731   I742    2.141   .     S
C732   I744    2.146   .     S
H734   C832    1.088   1_455 S
H735   O750    0.990   .     S
H736   O751    0.992   .     S
H738   O753    0.988   .     S
H739   O754    0.991   .     S
H740   O224    0.988   1_556 S
O745   Zn766   1.938   .     S
O745   Zn767   1.930   .     S
O745   Zn764   1.954   .     S
O745   Zn765   1.945   .     S
O746   Zn765   1.915   .     S
O747   Zn767   1.923   .     S
O748   Zn766   1.919   .     S
O749   Zn764   1.911   .     S
O751   C774    1.384   .     S
O752   C894    1.385   .     S
O752   H914    0.992   .     S
O756   Zn764   1.938   .     S
O757   Zn767   1.941   .     S
O758   Zn765   1.933   .     S
O759   Zn766   1.942   .     S
O760   Zn767   1.941   .     S
O761   Zn764   1.934   .     S
O762   Zn765   1.942   .     S
O763   Zn766   1.937   .     S
C768   O817    1.267   .     A
C768   O819    1.266   .     A
C768   C774    1.439   .     S
C769   C783    1.409   .     A
C769   C788    1.417   .     A
C769   O812    1.384   .     S
C770   O809    1.382   .     S
C770   C782    1.392   .     A
C770   C783    1.413   .     A
C771   O820    1.271   .     A
C771   O818    1.284   .     A
C771   C773    1.457   .     S
C772   C784    1.429   .     A
C772   C781    1.493   .     S
C772   C787    1.424   .     A
C773   C833    1.345   .     S
C773   H852    1.088   .     S
C775   C778    1.457   .     S
C775   C953    1.346   .     S
C775   I977    2.141   .     S
C776   C777    1.438   .     S
C777   O815    1.274   .     A
C777   O821    1.270   .     A
C778   O816    1.269   .     A
C778   O822    1.272   .     A
C779   C784    1.412   .     A
C779   C254    1.393   1_556 S
C779   O283    1.381   1_556 S
C780   O805    1.280   .     A
C780   C783    1.466   .     S
C780   O807    1.283   .     A
C781   O808    1.298   .     A
C781   O806    1.279   .     A
C782   H792    1.080   .     S
C784   I802    2.154   .     S
C785   O813    1.382   .     S
C786   C787    1.410   .     A
C786   C254    1.420   1_556 S
C786   C257    1.422   1_556 S
C787   C791    1.413   .     A
C789   C790    1.412   .     A
C789   C251    1.406   1_556 S
C789   C257    1.420   1_556 S
C790   C791    1.404   .     A
C790   I801    2.141   .     S
C791   I803    2.146   .     S
H794   O809    0.990   .     S
H795   O810    0.992   .     S
H797   O812    0.988   .     S
H798   O813    0.991   .     S
H799   O283    0.988   1_556 S
O804   Zn825   1.938   .     S
O804   Zn826   1.930   .     S
O804   Zn823   1.954   .     S
O804   Zn824   1.945   .     S
O805   Zn824   1.915   .     S
O806   Zn826   1.923   .     S
O807   Zn825   1.919   .     S
O808   Zn823   1.911   .     S
O810   C833    1.384   .     S
O811   C953    1.385   .     S
O811   H973    0.992   .     S
O815   Zn823   1.938   .     S
O816   Zn826   1.941   .     S
O817   Zn824   1.933   .     S
O818   Zn825   1.942   .     S
O819   Zn826   1.941   .     S
O820   Zn823   1.934   .     S
O821   Zn824   1.942   .     S
O822   Zn825   1.937   .     S
C827   O876    1.267   .     A
C827   O878    1.266   .     A
C827   C833    1.439   .     S
C828   C842    1.409   .     A
C828   C847    1.417   .     A
C828   O871    1.384   .     S
C829   O868    1.382   .     S
C829   C841    1.392   .     A
C829   C842    1.413   .     A
C830   O879    1.271   .     A
C830   O877    1.284   .     A
C830   C832    1.457   .     S
C831   C843    1.429   .     A
C831   C840    1.493   .     S
C831   C846    1.424   .     A
C832   C715    1.345   1_655 S
C832   H734    1.088   1_655 S
C834   C837    1.457   .     S
C834   C1012   1.346   .     S
C834   I1036   2.141   .     S
C835   C836    1.438   .     S
C836   O874    1.274   .     A
C836   O880    1.270   .     A
C837   O875    1.269   .     A
C837   O881    1.272   .     A
C838   C843    1.412   .     A
C838   C313    1.393   1_556 S
C838   O342    1.381   1_556 S
C839   O864    1.280   .     A
C839   C842    1.466   .     S
C839   O866    1.283   .     A
C840   O867    1.298   .     A
C840   O865    1.279   .     A
C841   H851    1.080   .     S
C843   I861    2.154   .     S
C844   O872    1.382   .     S
C845   C846    1.410   .     A
C845   C313    1.420   1_556 S
C845   C316    1.422   1_556 S
C846   C850    1.413   .     A
C848   C849    1.412   .     A
C848   C310    1.406   1_556 S
C848   C316    1.420   1_556 S
C849   C850    1.404   .     A
C849   I860    2.141   .     S
C850   I862    2.146   .     S
H853   O868    0.990   .     S
H854   O869    0.992   .     S
H856   O871    0.988   .     S
H857   O872    0.991   .     S
H858   O342    0.988   1_556 S
O863   Zn884   1.938   .     S
O863   Zn885   1.930   .     S
O863   Zn882   1.954   .     S
O863   Zn883   1.945   .     S
O864   Zn883   1.915   .     S
O865   Zn885   1.923   .     S
O866   Zn884   1.919   .     S
O867   Zn882   1.911   .     S
O869   C715    1.384   1_655 S
O870   C1012   1.385   .     S
O870   H1032   0.992   .     S
O874   Zn882   1.938   .     S
O875   Zn885   1.941   .     S
O876   Zn883   1.933   .     S
O877   Zn884   1.942   .     S
O878   Zn885   1.941   .     S
O879   Zn882   1.934   .     S
O880   Zn883   1.942   .     S
O881   Zn884   1.937   .     S
C886   O935    1.267   .     A
C886   O937    1.266   .     A
C886   C892    1.439   .     S
C887   C901    1.409   .     A
C887   C906    1.417   .     A
C887   O930    1.384   .     S
C888   O927    1.382   .     S
C888   C900    1.392   .     A
C888   C901    1.413   .     A
C889   O938    1.271   .     A
C889   O936    1.284   .     A
C889   C891    1.457   .     S
C890   C902    1.429   .     A
C890   C899    1.493   .     S
C890   C905    1.424   .     A
C891   C951    1.345   .     S
C891   H970    1.088   .     S
C892   C1009   1.345   1_455 S
C892   O1046   1.384   1_455 S
C893   C896    1.457   .     S
C893   C540    1.346   1_565 S
C893   I564    2.141   1_565 S
C894   C895    1.438   .     S
C895   O933    1.274   .     A
C895   O939    1.270   .     A
C896   O934    1.269   .     A
C896   O940    1.272   .     A
C897   C902    1.412   .     A
C897   C372    1.393   1_556 S
C897   O401    1.381   1_556 S
C898   O923    1.280   .     A
C898   C901    1.466   .     S
C898   O925    1.283   .     A
C899   O926    1.298   .     A
C899   O924    1.279   .     A
C900   H910    1.080   .     S
C902   I920    2.154   .     S
C903   O931    1.382   .     S
C904   C905    1.410   .     A
C904   C372    1.420   1_556 S
C904   C375    1.422   1_556 S
C905   C909    1.413   .     A
C907   C908    1.412   .     A
C907   C369    1.406   1_556 S
C907   C375    1.420   1_556 S
C908   C909    1.404   .     A
C908   I919    2.141   .     S
C909   I921    2.146   .     S
H911   C1009   1.088   1_455 S
H912   O927    0.990   .     S
H913   O928    0.992   .     S
H915   O930    0.988   .     S
H916   O931    0.991   .     S
H917   O401    0.988   1_556 S
O922   Zn943   1.938   .     S
O922   Zn944   1.930   .     S
O922   Zn941   1.954   .     S
O922   Zn942   1.945   .     S
O923   Zn942   1.915   .     S
O924   Zn944   1.923   .     S
O925   Zn943   1.919   .     S
O926   Zn941   1.911   .     S
O928   C951    1.384   .     S
O929   C540    1.385   1_565 S
O929   H560    0.992   1_565 S
O933   Zn941   1.938   .     S
O934   Zn944   1.941   .     S
O935   Zn942   1.933   .     S
O936   Zn943   1.942   .     S
O937   Zn944   1.941   .     S
O938   Zn941   1.934   .     S
O939   Zn942   1.942   .     S
O940   Zn943   1.937   .     S
C945   O994    1.267   .     A
C945   O996    1.266   .     A
C945   C951    1.439   .     S
C946   C960    1.409   .     A
C946   C965    1.417   .     A
C946   O989    1.384   .     S
C947   O986    1.382   .     S
C947   C959    1.392   .     A
C947   C960    1.413   .     A
C948   O997    1.271   .     A
C948   O995    1.284   .     A
C948   C950    1.457   .     S
C949   C961    1.429   .     A
C949   C958    1.493   .     S
C949   C964    1.424   .     A
C950   C1010   1.345   .     S
C950   H1029   1.088   .     S
C952   C955    1.457   .     S
C952   C599    1.346   1_565 S
C952   I623    2.141   1_565 S
C953   C954    1.438   .     S
C954   O992    1.274   .     A
C954   O998    1.270   .     A
C955   O993    1.269   .     A
C955   O999    1.272   .     A
C956   C961    1.412   .     A
C956   C431    1.393   1_556 S
C956   O460    1.381   1_556 S
C957   O982    1.280   .     A
C957   C960    1.466   .     S
C957   O984    1.283   .     A
C958   O985    1.298   .     A
C958   O983    1.279   .     A
C959   H969    1.080   .     S
C961   I979    2.154   .     S
C962   O990    1.382   .     S
C963   C964    1.410   .     A
C963   C431    1.420   1_556 S
C963   C434    1.422   1_556 S
C964   C968    1.413   .     A
C966   C967    1.412   .     A
C966   C428    1.406   1_556 S
C966   C434    1.420   1_556 S
C967   C968    1.404   .     A
C967   I978    2.141   .     S
C968   I980    2.146   .     S
H971   O986    0.990   .     S
H972   O987    0.992   .     S
H974   O989    0.988   .     S
H975   O990    0.991   .     S
H976   O460    0.988   1_556 S
O981   Zn1002  1.938   .     S
O981   Zn1003  1.930   .     S
O981   Zn1000  1.954   .     S
O981   Zn1001  1.945   .     S
O982   Zn1001  1.915   .     S
O983   Zn1003  1.923   .     S
O984   Zn1002  1.919   .     S
O985   Zn1000  1.911   .     S
O987   C1010   1.384   .     S
O988   C599    1.385   1_565 S
O988   H619    0.992   1_565 S
O992   Zn1000  1.938   .     S
O993   Zn1003  1.941   .     S
O994   Zn1001  1.933   .     S
O995   Zn1002  1.942   .     S
O996   Zn1003  1.941   .     S
O997   Zn1000  1.934   .     S
O998   Zn1001  1.942   .     S
O999   Zn1002  1.937   .     S
C1004  O1053   1.267   .     A
C1004  O1055   1.266   .     A
C1004  C1010   1.439   .     S
C1005  C1019   1.409   .     A
C1005  C1024   1.417   .     A
C1005  O1048   1.384   .     S
C1006  O1045   1.382   .     S
C1006  C1018   1.392   .     A
C1006  C1019   1.413   .     A
C1007  O1056   1.271   .     A
C1007  O1054   1.284   .     A
C1007  C1009   1.457   .     S
C1008  C1020   1.429   .     A
C1008  C1017   1.493   .     S
C1008  C1023   1.424   .     A
C1009  C892    1.345   1_655 S
C1009  H911    1.088   1_655 S
C1011  C1014   1.457   .     S
C1011  C658    1.346   1_565 S
C1011  I682    2.141   1_565 S
C1012  C1013   1.438   .     S
C1013  O1051   1.274   .     A
C1013  O1057   1.270   .     A
C1014  O1052   1.269   .     A
C1014  O1058   1.272   .     A
C1015  C1020   1.412   .     A
C1015  C490    1.393   1_556 S
C1015  O519    1.381   1_556 S
C1016  O1041   1.280   .     A
C1016  C1019   1.466   .     S
C1016  O1043   1.283   .     A
C1017  O1044   1.298   .     A
C1017  O1042   1.279   .     A
C1018  H1028   1.080   .     S
C1020  I1038   2.154   .     S
C1021  O1049   1.382   .     S
C1022  C1023   1.410   .     A
C1022  C490    1.420   1_556 S
C1022  C493    1.422   1_556 S
C1023  C1027   1.413   .     A
C1025  C1026   1.412   .     A
C1025  C487    1.406   1_556 S
C1025  C493    1.420   1_556 S
C1026  C1027   1.404   .     A
C1026  I1037   2.141   .     S
C1027  I1039   2.146   .     S
H1030  O1045   0.990   .     S
H1031  O1046   0.992   .     S
H1033  O1048   0.988   .     S
H1034  O1049   0.991   .     S
H1035  O519    0.988   1_556 S
O1040  Zn1061  1.938   .     S
O1040  Zn1062  1.930   .     S
O1040  Zn1059  1.954   .     S
O1040  Zn1060  1.945   .     S
O1041  Zn1060  1.915   .     S
O1042  Zn1062  1.923   .     S
O1043  Zn1061  1.919   .     S
O1044  Zn1059  1.911   .     S
O1046  C892    1.384   1_655 S
O1047  C658    1.385   1_565 S
O1047  H678    0.992   1_565 S
O1051  Zn1059  1.938   .     S
O1052  Zn1062  1.941   .     S
O1053  Zn1060  1.933   .     S
O1054  Zn1061  1.942   .     S
O1055  Zn1062  1.941   .     S
O1056  Zn1059  1.934   .     S
O1057  Zn1060  1.942   .     S
O1058  Zn1061  1.937   .     S
