data_str_m1_o10_o16_pcu_sym.170
_audit_creation_date              2020-01-03
_audit_creation_method            'Materials Studio'
_symmetry_space_group_name_H-M    'P1'
_symmetry_Int_Tables_number       1
_symmetry_cell_setting            triclinic
loop_
_symmetry_equiv_pos_as_xyz
  x,y,z
_cell_length_a                    32.5354
_cell_length_b                    32.5073
_cell_length_c                    31.0755
_cell_angle_alpha                 96.0424
_cell_angle_beta                  74.4055
_cell_angle_gamma                 98.4371
loop_
_atom_site_label
_atom_site_type_symbol
_atom_site_fract_x
_atom_site_fract_y
_atom_site_fract_z
_atom_site_U_iso_or_equiv
_atom_site_adp_type
_atom_site_occupancy
C1     C     0.05278   0.15979   0.26001   0.00000  Uiso   1.00
C2     C     0.16524   0.15170   0.05940   0.00000  Uiso   1.00
C3     C     0.23779   0.14000   0.05659   0.00000  Uiso   1.00
C4     C     0.28087   0.17386   0.23993   0.00000  Uiso   1.00
C5     C     0.13523   0.18645   0.42047   0.00000  Uiso   1.00
C6     C     0.32682   0.17646   0.23560   0.00000  Uiso   1.00
C7     C     0.00745   0.15761   0.26416   0.00000  Uiso   1.00
C8     C     0.18059   0.32256   0.23619   0.00000  Uiso   1.00
C9     C     0.15222   0.01178   0.26403   0.00000  Uiso   1.00
C10    C     0.15631   0.05590   0.26016   0.00000  Uiso   1.00
C11    C     0.17667   0.27797   0.24008   0.00000  Uiso   1.00
C12    C     0.07701   0.18248   0.48836   0.00000  Uiso   1.00
C13    C     0.18570   0.14842   0.12931   0.00000  Uiso   1.00
C14    C     0.14828   0.18439   0.37098   0.00000  Uiso   1.00
C15    C     0.25080   0.14695   0.01139   0.00000  Uiso   1.00
C16    C     0.19533   0.14326   0.08077   0.00000  Uiso   1.00
C17    C     0.09154   0.18907   0.44263   0.00000  Uiso   1.00
C18    C     0.03597   0.22306   0.43595   0.00000  Uiso   1.00
C19    C     0.01890   0.23647   0.39899   0.00000  Uiso   1.00
C20    C     0.32047   0.26820   0.41728   0.00000  Uiso   1.00
C21    C     0.10482   0.17319   0.01191   0.00000  Uiso   1.00
C22    C     0.14882   0.17106   0.49088   0.00000  Uiso   1.00
C23    C     0.16439   0.17980   0.44503   0.00000  Uiso   1.00
C24    C     0.17781   0.15994   0.01366   0.00000  Uiso   1.00
C25    C     0.22164   0.15815   0.49012   0.00000  Uiso   1.00
C26    C     0.23662   0.16937   0.44615   0.00000  Uiso   1.00
C27    C     0.20881   0.18126   0.42441   0.00000  Uiso   1.00
H28    H     0.26142   0.13426   0.07335   0.00000  Uiso   1.00
H29    H     0.22283   0.19183   0.39117   0.00000  Uiso   1.00
H30    H     0.01603   0.19368   0.20907   0.00000  Uiso   1.00
H31    H     0.05383   0.25106   0.44977   0.00000  Uiso   1.00
H32    H     0.00821   0.21053   0.46280   0.00000  Uiso   1.00
H33    H     0.04626   0.25044   0.37266   0.00000  Uiso   1.00
H34    H     0.00262   0.20875   0.38333   0.00000  Uiso   1.00
H35    H     0.29253   0.25467   0.44324   0.00000  Uiso   1.00
H36    H     0.30859   0.27707   0.38965   0.00000  Uiso   1.00
H37    H     0.00307   0.29666   0.43208   0.00000  Uiso   1.00
H38    H     0.31887   0.14066   0.29125   0.00000  Uiso   1.00
H39    H     0.20678   0.00382   0.21050   0.00000  Uiso   1.00
H40    H     0.12579   0.33131   0.28996   0.00000  Uiso   1.00
H41    H     0.27028   0.16961   0.42863   0.00000  Uiso   1.00
H42    H     0.28420   0.14550   0.49356   0.00000  Uiso   1.00
H43    H     0.13339   0.15482   0.08023   0.00000  Uiso   1.00
H44    H     0.09040   0.16705   0.04643   0.00000  Uiso   1.00
H45    H     0.04331   0.18223   0.00555   0.00000  Uiso   1.00
O46    O     0.16667   0.16667   0.25000   0.00000  Uiso   1.00
O47    O     0.15451   0.12637   0.15458   0.00000  Uiso   1.00
O48    O     0.12940   0.20391   0.34968   0.00000  Uiso   1.00
O49    O     0.20824   0.17759   0.14606   0.00000  Uiso   1.00
O50    O     0.17451   0.15880   0.34968   0.00000  Uiso   1.00
O51    O     0.06257   0.19152   0.41755   0.00000  Uiso   1.00
O52    O     0.17930   0.08019   0.28213   0.00000  Uiso   1.00
O53    O     0.14632   0.26085   0.27013   0.00000  Uiso   1.00
O54    O     0.07412   0.13291   0.23413   0.00000  Uiso   1.00
O55    O     0.26693   0.19272   0.21360   0.00000  Uiso   1.00
O56    O     0.07071   0.18878   0.28213   0.00000  Uiso   1.00
O57    O     0.25491   0.15226   0.27013   0.00000  Uiso   1.00
O58    O     0.13760   0.06944   0.23413   0.00000  Uiso   1.00
O59    O     0.20345   0.25620   0.21360   0.00000  Uiso   1.00
Zn60   Zn    0.19338   0.13994   0.28734   0.00000  Uiso   1.00
Zn61   Zn    0.13379   0.12458   0.21875   0.00000  Uiso   1.00
Zn62   Zn    0.21056   0.19775   0.20657   0.00000  Uiso   1.00
Zn63   Zn    0.12893   0.20439   0.28733   0.00000  Uiso   1.00
C64    C     0.38611   0.15979   0.26001   0.00000  Uiso   1.00
C65    C     0.49858   0.15170   0.05940   0.00000  Uiso   1.00
C66    C     0.57112   0.14000   0.05659   0.00000  Uiso   1.00
C67    C     0.61420   0.17386   0.23993   0.00000  Uiso   1.00
C68    C     0.46857   0.18645   0.42047   0.00000  Uiso   1.00
C69    C     0.66015   0.17646   0.23560   0.00000  Uiso   1.00
C70    C     0.34078   0.15761   0.26416   0.00000  Uiso   1.00
C71    C     0.51393   0.32256   0.23619   0.00000  Uiso   1.00
C72    C     0.48555   0.01178   0.26403   0.00000  Uiso   1.00
C73    C     0.48965   0.05590   0.26016   0.00000  Uiso   1.00
C74    C     0.51000   0.27797   0.24008   0.00000  Uiso   1.00
C75    C     0.41034   0.18248   0.48836   0.00000  Uiso   1.00
C76    C     0.51903   0.14842   0.12931   0.00000  Uiso   1.00
C77    C     0.48161   0.18439   0.37098   0.00000  Uiso   1.00
C78    C     0.58414   0.14695   0.01139   0.00000  Uiso   1.00
C79    C     0.52866   0.14326   0.08077   0.00000  Uiso   1.00
C80    C     0.42488   0.18907   0.44263   0.00000  Uiso   1.00
C81    C     0.36931   0.22306   0.43595   0.00000  Uiso   1.00
C82    C     0.35223   0.23647   0.39899   0.00000  Uiso   1.00
C83    C     0.65380   0.26820   0.41728   0.00000  Uiso   1.00
C84    C     0.43815   0.17319   0.01191   0.00000  Uiso   1.00
C85    C     0.48215   0.17106   0.49088   0.00000  Uiso   1.00
C86    C     0.49773   0.17980   0.44503   0.00000  Uiso   1.00
C87    C     0.51115   0.15994   0.01366   0.00000  Uiso   1.00
C88    C     0.55498   0.15815   0.49012   0.00000  Uiso   1.00
C89    C     0.56995   0.16937   0.44615   0.00000  Uiso   1.00
C90    C     0.54214   0.18126   0.42441   0.00000  Uiso   1.00
H91    H     0.59475   0.13426   0.07335   0.00000  Uiso   1.00
H92    H     0.55616   0.19183   0.39117   0.00000  Uiso   1.00
H93    H     0.34936   0.19368   0.20907   0.00000  Uiso   1.00
H94    H     0.38716   0.25106   0.44977   0.00000  Uiso   1.00
H95    H     0.34154   0.21053   0.46280   0.00000  Uiso   1.00
H96    H     0.37960   0.25044   0.37266   0.00000  Uiso   1.00
H97    H     0.33596   0.20875   0.38333   0.00000  Uiso   1.00
H98    H     0.62586   0.25467   0.44324   0.00000  Uiso   1.00
H99    H     0.64193   0.27707   0.38965   0.00000  Uiso   1.00
H100   H     0.33640   0.29666   0.43208   0.00000  Uiso   1.00
H101   H     0.65220   0.14066   0.29125   0.00000  Uiso   1.00
H102   H     0.54011   0.00382   0.21050   0.00000  Uiso   1.00
H103   H     0.45912   0.33131   0.28996   0.00000  Uiso   1.00
H104   H     0.60361   0.16961   0.42863   0.00000  Uiso   1.00
H105   H     0.61753   0.14550   0.49356   0.00000  Uiso   1.00
H106   H     0.46672   0.15482   0.08023   0.00000  Uiso   1.00
H107   H     0.42373   0.16705   0.04643   0.00000  Uiso   1.00
H108   H     0.37665   0.18223   0.00555   0.00000  Uiso   1.00
O109   O     0.50000   0.16667   0.25000   0.00000  Uiso   1.00
O110   O     0.48784   0.12637   0.15458   0.00000  Uiso   1.00
O111   O     0.46274   0.20391   0.34968   0.00000  Uiso   1.00
O112   O     0.54157   0.17759   0.14606   0.00000  Uiso   1.00
O113   O     0.50785   0.15880   0.34968   0.00000  Uiso   1.00
O114   O     0.39591   0.19152   0.41755   0.00000  Uiso   1.00
O115   O     0.51264   0.08019   0.28213   0.00000  Uiso   1.00
O116   O     0.47965   0.26085   0.27013   0.00000  Uiso   1.00
O117   O     0.40745   0.13291   0.23413   0.00000  Uiso   1.00
O118   O     0.60026   0.19272   0.21360   0.00000  Uiso   1.00
O119   O     0.40405   0.18878   0.28213   0.00000  Uiso   1.00
O120   O     0.58824   0.15226   0.27013   0.00000  Uiso   1.00
O121   O     0.47093   0.06944   0.23413   0.00000  Uiso   1.00
O122   O     0.53678   0.25620   0.21360   0.00000  Uiso   1.00
Zn123  Zn    0.52672   0.13994   0.28734   0.00000  Uiso   1.00
Zn124  Zn    0.46713   0.12458   0.21875   0.00000  Uiso   1.00
Zn125  Zn    0.54389   0.19775   0.20657   0.00000  Uiso   1.00
Zn126  Zn    0.46226   0.20439   0.28733   0.00000  Uiso   1.00
C127   C     0.71945   0.15979   0.26001   0.00000  Uiso   1.00
C128   C     0.83191   0.15170   0.05940   0.00000  Uiso   1.00
C129   C     0.90446   0.14000   0.05659   0.00000  Uiso   1.00
C130   C     0.94754   0.17386   0.23993   0.00000  Uiso   1.00
C131   C     0.80190   0.18645   0.42047   0.00000  Uiso   1.00
C132   C     0.99348   0.17646   0.23560   0.00000  Uiso   1.00
C133   C     0.67411   0.15761   0.26416   0.00000  Uiso   1.00
C134   C     0.84726   0.32256   0.23619   0.00000  Uiso   1.00
C135   C     0.81889   0.01178   0.26403   0.00000  Uiso   1.00
C136   C     0.82298   0.05590   0.26016   0.00000  Uiso   1.00
C137   C     0.84334   0.27797   0.24008   0.00000  Uiso   1.00
C138   C     0.74368   0.18248   0.48836   0.00000  Uiso   1.00
C139   C     0.85237   0.14842   0.12931   0.00000  Uiso   1.00
C140   C     0.81495   0.18439   0.37098   0.00000  Uiso   1.00
C141   C     0.91747   0.14695   0.01139   0.00000  Uiso   1.00
C142   C     0.86199   0.14326   0.08077   0.00000  Uiso   1.00
C143   C     0.75821   0.18907   0.44263   0.00000  Uiso   1.00
C144   C     0.70264   0.22306   0.43595   0.00000  Uiso   1.00
C145   C     0.68557   0.23647   0.39899   0.00000  Uiso   1.00
C146   C     0.98714   0.26820   0.41728   0.00000  Uiso   1.00
C147   C     0.77149   0.17319   0.01191   0.00000  Uiso   1.00
C148   C     0.81549   0.17106   0.49088   0.00000  Uiso   1.00
C149   C     0.83106   0.17980   0.44503   0.00000  Uiso   1.00
C150   C     0.84448   0.15994   0.01366   0.00000  Uiso   1.00
C151   C     0.88831   0.15815   0.49012   0.00000  Uiso   1.00
C152   C     0.90328   0.16937   0.44615   0.00000  Uiso   1.00
C153   C     0.87548   0.18126   0.42441   0.00000  Uiso   1.00
H154   H     0.92808   0.13426   0.07335   0.00000  Uiso   1.00
H155   H     0.88950   0.19183   0.39117   0.00000  Uiso   1.00
H156   H     0.68270   0.19368   0.20907   0.00000  Uiso   1.00
H157   H     0.72049   0.25106   0.44977   0.00000  Uiso   1.00
H158   H     0.67488   0.21053   0.46280   0.00000  Uiso   1.00
H159   H     0.71293   0.25044   0.37266   0.00000  Uiso   1.00
H160   H     0.66929   0.20875   0.38333   0.00000  Uiso   1.00
H161   H     0.95919   0.25467   0.44324   0.00000  Uiso   1.00
H162   H     0.97526   0.27707   0.38965   0.00000  Uiso   1.00
H163   H     0.66973   0.29666   0.43208   0.00000  Uiso   1.00
H164   H     0.98554   0.14066   0.29125   0.00000  Uiso   1.00
H165   H     0.87344   0.00382   0.21050   0.00000  Uiso   1.00
H166   H     0.79245   0.33131   0.28996   0.00000  Uiso   1.00
H167   H     0.93695   0.16961   0.42863   0.00000  Uiso   1.00
H168   H     0.95087   0.14550   0.49356   0.00000  Uiso   1.00
H169   H     0.80005   0.15482   0.08023   0.00000  Uiso   1.00
H170   H     0.75707   0.16705   0.04643   0.00000  Uiso   1.00
H171   H     0.70998   0.18223   0.00555   0.00000  Uiso   1.00
O172   O     0.83333   0.16667   0.25000   0.00000  Uiso   1.00
O173   O     0.82118   0.12637   0.15458   0.00000  Uiso   1.00
O174   O     0.79607   0.20391   0.34968   0.00000  Uiso   1.00
O175   O     0.87491   0.17759   0.14606   0.00000  Uiso   1.00
O176   O     0.84118   0.15880   0.34968   0.00000  Uiso   1.00
O177   O     0.72924   0.19152   0.41755   0.00000  Uiso   1.00
O178   O     0.84597   0.08019   0.28213   0.00000  Uiso   1.00
O179   O     0.81298   0.26085   0.27013   0.00000  Uiso   1.00
O180   O     0.74078   0.13291   0.23413   0.00000  Uiso   1.00
O181   O     0.93360   0.19272   0.21360   0.00000  Uiso   1.00
O182   O     0.73738   0.18878   0.28213   0.00000  Uiso   1.00
O183   O     0.92158   0.15226   0.27013   0.00000  Uiso   1.00
O184   O     0.80426   0.06944   0.23413   0.00000  Uiso   1.00
O185   O     0.87012   0.25620   0.21360   0.00000  Uiso   1.00
Zn186  Zn    0.86005   0.13994   0.28734   0.00000  Uiso   1.00
Zn187  Zn    0.80046   0.12458   0.21875   0.00000  Uiso   1.00
Zn188  Zn    0.87723   0.19775   0.20657   0.00000  Uiso   1.00
Zn189  Zn    0.79560   0.20439   0.28733   0.00000  Uiso   1.00
C190   C     0.05278   0.49312   0.26001   0.00000  Uiso   1.00
C191   C     0.16524   0.48503   0.05940   0.00000  Uiso   1.00
C192   C     0.23779   0.47333   0.05659   0.00000  Uiso   1.00
C193   C     0.28087   0.50720   0.23993   0.00000  Uiso   1.00
C194   C     0.13523   0.51979   0.42047   0.00000  Uiso   1.00
C195   C     0.32682   0.50980   0.23560   0.00000  Uiso   1.00
C196   C     0.00745   0.49095   0.26416   0.00000  Uiso   1.00
C197   C     0.18059   0.65590   0.23619   0.00000  Uiso   1.00
C198   C     0.15222   0.34512   0.26403   0.00000  Uiso   1.00
C199   C     0.15631   0.38923   0.26016   0.00000  Uiso   1.00
C200   C     0.17667   0.61130   0.24008   0.00000  Uiso   1.00
C201   C     0.07701   0.51582   0.48836   0.00000  Uiso   1.00
C202   C     0.18570   0.48176   0.12931   0.00000  Uiso   1.00
C203   C     0.14828   0.51772   0.37098   0.00000  Uiso   1.00
C204   C     0.25080   0.48028   0.01139   0.00000  Uiso   1.00
C205   C     0.19533   0.47659   0.08077   0.00000  Uiso   1.00
C206   C     0.09154   0.52240   0.44263   0.00000  Uiso   1.00
C207   C     0.03597   0.55639   0.43595   0.00000  Uiso   1.00
C208   C     0.01890   0.56980   0.39899   0.00000  Uiso   1.00
C209   C     0.32047   0.60154   0.41728   0.00000  Uiso   1.00
C210   C     0.10482   0.50652   0.01191   0.00000  Uiso   1.00
C211   C     0.14882   0.50439   0.49088   0.00000  Uiso   1.00
C212   C     0.16439   0.51313   0.44503   0.00000  Uiso   1.00
C213   C     0.17781   0.49327   0.01366   0.00000  Uiso   1.00
C214   C     0.22164   0.49148   0.49012   0.00000  Uiso   1.00
C215   C     0.23662   0.50271   0.44615   0.00000  Uiso   1.00
C216   C     0.20881   0.51460   0.42441   0.00000  Uiso   1.00
H217   H     0.26142   0.46760   0.07335   0.00000  Uiso   1.00
H218   H     0.22283   0.52517   0.39117   0.00000  Uiso   1.00
H219   H     0.01603   0.52702   0.20907   0.00000  Uiso   1.00
H220   H     0.05383   0.58439   0.44977   0.00000  Uiso   1.00
H221   H     0.00821   0.54387   0.46280   0.00000  Uiso   1.00
H222   H     0.04626   0.58377   0.37266   0.00000  Uiso   1.00
H223   H     0.00262   0.54208   0.38333   0.00000  Uiso   1.00
H224   H     0.29253   0.58800   0.44324   0.00000  Uiso   1.00
H225   H     0.30859   0.61040   0.38965   0.00000  Uiso   1.00
H226   H     0.00307   0.62999   0.43208   0.00000  Uiso   1.00
H227   H     0.31887   0.47400   0.29125   0.00000  Uiso   1.00
H228   H     0.20678   0.33715   0.21050   0.00000  Uiso   1.00
H229   H     0.12579   0.66464   0.28996   0.00000  Uiso   1.00
H230   H     0.27028   0.50295   0.42863   0.00000  Uiso   1.00
H231   H     0.28420   0.47884   0.49356   0.00000  Uiso   1.00
H232   H     0.13339   0.48816   0.08023   0.00000  Uiso   1.00
H233   H     0.09040   0.50038   0.04643   0.00000  Uiso   1.00
H234   H     0.04331   0.51556   0.00555   0.00000  Uiso   1.00
O235   O     0.16667   0.50000   0.25000   0.00000  Uiso   1.00
O236   O     0.15451   0.45970   0.15458   0.00000  Uiso   1.00
O237   O     0.12940   0.53724   0.34968   0.00000  Uiso   1.00
O238   O     0.20824   0.51092   0.14606   0.00000  Uiso   1.00
O239   O     0.17451   0.49213   0.34968   0.00000  Uiso   1.00
O240   O     0.06257   0.52486   0.41755   0.00000  Uiso   1.00
O241   O     0.17930   0.41352   0.28213   0.00000  Uiso   1.00
O242   O     0.14632   0.59418   0.27013   0.00000  Uiso   1.00
O243   O     0.07412   0.46625   0.23413   0.00000  Uiso   1.00
O244   O     0.26693   0.52605   0.21360   0.00000  Uiso   1.00
O245   O     0.07071   0.52211   0.28213   0.00000  Uiso   1.00
O246   O     0.25491   0.48559   0.27013   0.00000  Uiso   1.00
O247   O     0.13760   0.40277   0.23413   0.00000  Uiso   1.00
O248   O     0.20345   0.58953   0.21360   0.00000  Uiso   1.00
Zn249  Zn    0.19338   0.47327   0.28734   0.00000  Uiso   1.00
Zn250  Zn    0.13379   0.45791   0.21875   0.00000  Uiso   1.00
Zn251  Zn    0.21056   0.53109   0.20657   0.00000  Uiso   1.00
Zn252  Zn    0.12893   0.53773   0.28733   0.00000  Uiso   1.00
C253   C     0.38611   0.49312   0.26001   0.00000  Uiso   1.00
C254   C     0.49858   0.48503   0.05940   0.00000  Uiso   1.00
C255   C     0.57112   0.47333   0.05659   0.00000  Uiso   1.00
C256   C     0.61420   0.50720   0.23993   0.00000  Uiso   1.00
C257   C     0.46857   0.51979   0.42047   0.00000  Uiso   1.00
C258   C     0.66015   0.50980   0.23560   0.00000  Uiso   1.00
C259   C     0.34078   0.49095   0.26416   0.00000  Uiso   1.00
C260   C     0.51393   0.65590   0.23619   0.00000  Uiso   1.00
C261   C     0.48555   0.34512   0.26403   0.00000  Uiso   1.00
C262   C     0.48965   0.38923   0.26016   0.00000  Uiso   1.00
C263   C     0.51000   0.61130   0.24008   0.00000  Uiso   1.00
C264   C     0.41034   0.51582   0.48836   0.00000  Uiso   1.00
C265   C     0.51903   0.48176   0.12931   0.00000  Uiso   1.00
C266   C     0.48161   0.51772   0.37098   0.00000  Uiso   1.00
C267   C     0.58414   0.48028   0.01139   0.00000  Uiso   1.00
C268   C     0.52866   0.47659   0.08077   0.00000  Uiso   1.00
C269   C     0.42488   0.52240   0.44263   0.00000  Uiso   1.00
C270   C     0.36931   0.55639   0.43595   0.00000  Uiso   1.00
C271   C     0.35223   0.56980   0.39899   0.00000  Uiso   1.00
C272   C     0.65380   0.60154   0.41728   0.00000  Uiso   1.00
C273   C     0.43815   0.50652   0.01191   0.00000  Uiso   1.00
C274   C     0.48215   0.50439   0.49088   0.00000  Uiso   1.00
C275   C     0.49773   0.51313   0.44503   0.00000  Uiso   1.00
C276   C     0.51115   0.49327   0.01366   0.00000  Uiso   1.00
C277   C     0.55498   0.49148   0.49012   0.00000  Uiso   1.00
C278   C     0.56995   0.50271   0.44615   0.00000  Uiso   1.00
C279   C     0.54214   0.51460   0.42441   0.00000  Uiso   1.00
H280   H     0.59475   0.46760   0.07335   0.00000  Uiso   1.00
H281   H     0.55616   0.52517   0.39117   0.00000  Uiso   1.00
H282   H     0.34936   0.52702   0.20907   0.00000  Uiso   1.00
H283   H     0.38716   0.58439   0.44977   0.00000  Uiso   1.00
H284   H     0.34154   0.54387   0.46280   0.00000  Uiso   1.00
H285   H     0.37960   0.58377   0.37266   0.00000  Uiso   1.00
H286   H     0.33596   0.54208   0.38333   0.00000  Uiso   1.00
H287   H     0.62586   0.58800   0.44324   0.00000  Uiso   1.00
H288   H     0.64193   0.61040   0.38965   0.00000  Uiso   1.00
H289   H     0.33640   0.62999   0.43208   0.00000  Uiso   1.00
H290   H     0.65220   0.47400   0.29125   0.00000  Uiso   1.00
H291   H     0.54011   0.33715   0.21050   0.00000  Uiso   1.00
H292   H     0.45912   0.66464   0.28996   0.00000  Uiso   1.00
H293   H     0.60361   0.50295   0.42863   0.00000  Uiso   1.00
H294   H     0.61753   0.47884   0.49356   0.00000  Uiso   1.00
H295   H     0.46672   0.48816   0.08023   0.00000  Uiso   1.00
H296   H     0.42373   0.50038   0.04643   0.00000  Uiso   1.00
H297   H     0.37665   0.51556   0.00555   0.00000  Uiso   1.00
O298   O     0.50000   0.50000   0.25000   0.00000  Uiso   1.00
O299   O     0.48784   0.45970   0.15458   0.00000  Uiso   1.00
O300   O     0.46274   0.53724   0.34968   0.00000  Uiso   1.00
O301   O     0.54157   0.51092   0.14606   0.00000  Uiso   1.00
O302   O     0.50785   0.49213   0.34968   0.00000  Uiso   1.00
O303   O     0.39591   0.52486   0.41755   0.00000  Uiso   1.00
O304   O     0.51264   0.41352   0.28213   0.00000  Uiso   1.00
O305   O     0.47965   0.59418   0.27013   0.00000  Uiso   1.00
O306   O     0.40745   0.46625   0.23413   0.00000  Uiso   1.00
O307   O     0.60026   0.52605   0.21360   0.00000  Uiso   1.00
O308   O     0.40405   0.52211   0.28213   0.00000  Uiso   1.00
O309   O     0.58824   0.48559   0.27013   0.00000  Uiso   1.00
O310   O     0.47093   0.40277   0.23413   0.00000  Uiso   1.00
O311   O     0.53678   0.58953   0.21360   0.00000  Uiso   1.00
Zn312  Zn    0.52672   0.47327   0.28734   0.00000  Uiso   1.00
Zn313  Zn    0.46713   0.45791   0.21875   0.00000  Uiso   1.00
Zn314  Zn    0.54389   0.53109   0.20657   0.00000  Uiso   1.00
Zn315  Zn    0.46226   0.53773   0.28733   0.00000  Uiso   1.00
C316   C     0.71945   0.49312   0.26001   0.00000  Uiso   1.00
C317   C     0.83191   0.48503   0.05940   0.00000  Uiso   1.00
C318   C     0.90446   0.47333   0.05659   0.00000  Uiso   1.00
C319   C     0.94754   0.50720   0.23993   0.00000  Uiso   1.00
C320   C     0.80190   0.51979   0.42047   0.00000  Uiso   1.00
C321   C     0.99348   0.50980   0.23560   0.00000  Uiso   1.00
C322   C     0.67411   0.49095   0.26416   0.00000  Uiso   1.00
C323   C     0.84726   0.65590   0.23619   0.00000  Uiso   1.00
C324   C     0.81889   0.34512   0.26403   0.00000  Uiso   1.00
C325   C     0.82298   0.38923   0.26016   0.00000  Uiso   1.00
C326   C     0.84334   0.61130   0.24008   0.00000  Uiso   1.00
C327   C     0.74368   0.51582   0.48836   0.00000  Uiso   1.00
C328   C     0.85237   0.48176   0.12931   0.00000  Uiso   1.00
C329   C     0.81495   0.51772   0.37098   0.00000  Uiso   1.00
C330   C     0.91747   0.48028   0.01139   0.00000  Uiso   1.00
C331   C     0.86199   0.47659   0.08077   0.00000  Uiso   1.00
C332   C     0.75821   0.52240   0.44263   0.00000  Uiso   1.00
C333   C     0.70264   0.55639   0.43595   0.00000  Uiso   1.00
C334   C     0.68557   0.56980   0.39899   0.00000  Uiso   1.00
C335   C     0.98714   0.60154   0.41728   0.00000  Uiso   1.00
C336   C     0.77149   0.50652   0.01191   0.00000  Uiso   1.00
C337   C     0.81549   0.50439   0.49088   0.00000  Uiso   1.00
C338   C     0.83106   0.51313   0.44503   0.00000  Uiso   1.00
C339   C     0.84448   0.49327   0.01366   0.00000  Uiso   1.00
C340   C     0.88831   0.49148   0.49012   0.00000  Uiso   1.00
C341   C     0.90328   0.50271   0.44615   0.00000  Uiso   1.00
C342   C     0.87548   0.51460   0.42441   0.00000  Uiso   1.00
H343   H     0.92808   0.46760   0.07335   0.00000  Uiso   1.00
H344   H     0.88950   0.52517   0.39117   0.00000  Uiso   1.00
H345   H     0.68270   0.52702   0.20907   0.00000  Uiso   1.00
H346   H     0.72049   0.58439   0.44977   0.00000  Uiso   1.00
H347   H     0.67488   0.54387   0.46280   0.00000  Uiso   1.00
H348   H     0.71293   0.58377   0.37266   0.00000  Uiso   1.00
H349   H     0.66929   0.54208   0.38333   0.00000  Uiso   1.00
H350   H     0.95919   0.58800   0.44324   0.00000  Uiso   1.00
H351   H     0.97526   0.61040   0.38965   0.00000  Uiso   1.00
H352   H     0.66973   0.62999   0.43208   0.00000  Uiso   1.00
H353   H     0.98554   0.47400   0.29125   0.00000  Uiso   1.00
H354   H     0.87344   0.33715   0.21050   0.00000  Uiso   1.00
H355   H     0.79245   0.66464   0.28996   0.00000  Uiso   1.00
H356   H     0.93695   0.50295   0.42863   0.00000  Uiso   1.00
H357   H     0.95087   0.47884   0.49356   0.00000  Uiso   1.00
H358   H     0.80005   0.48816   0.08023   0.00000  Uiso   1.00
H359   H     0.75707   0.50038   0.04643   0.00000  Uiso   1.00
H360   H     0.70998   0.51556   0.00555   0.00000  Uiso   1.00
O361   O     0.83333   0.50000   0.25000   0.00000  Uiso   1.00
O362   O     0.82118   0.45970   0.15458   0.00000  Uiso   1.00
O363   O     0.79607   0.53724   0.34968   0.00000  Uiso   1.00
O364   O     0.87491   0.51092   0.14606   0.00000  Uiso   1.00
O365   O     0.84118   0.49213   0.34968   0.00000  Uiso   1.00
O366   O     0.72924   0.52486   0.41755   0.00000  Uiso   1.00
O367   O     0.84597   0.41352   0.28213   0.00000  Uiso   1.00
O368   O     0.81298   0.59418   0.27013   0.00000  Uiso   1.00
O369   O     0.74078   0.46625   0.23413   0.00000  Uiso   1.00
O370   O     0.93360   0.52605   0.21360   0.00000  Uiso   1.00
O371   O     0.73738   0.52211   0.28213   0.00000  Uiso   1.00
O372   O     0.92158   0.48559   0.27013   0.00000  Uiso   1.00
O373   O     0.80426   0.40277   0.23413   0.00000  Uiso   1.00
O374   O     0.87012   0.58953   0.21360   0.00000  Uiso   1.00
Zn375  Zn    0.86005   0.47327   0.28734   0.00000  Uiso   1.00
Zn376  Zn    0.80046   0.45791   0.21875   0.00000  Uiso   1.00
Zn377  Zn    0.87723   0.53109   0.20657   0.00000  Uiso   1.00
Zn378  Zn    0.79560   0.53773   0.28733   0.00000  Uiso   1.00
C379   C     0.05278   0.82646   0.26001   0.00000  Uiso   1.00
C380   C     0.16524   0.81837   0.05940   0.00000  Uiso   1.00
C381   C     0.23779   0.80667   0.05659   0.00000  Uiso   1.00
C382   C     0.28087   0.84053   0.23993   0.00000  Uiso   1.00
C383   C     0.13523   0.85312   0.42047   0.00000  Uiso   1.00
C384   C     0.32682   0.84313   0.23560   0.00000  Uiso   1.00
C385   C     0.00745   0.82428   0.26416   0.00000  Uiso   1.00
C386   C     0.18059   0.98923   0.23619   0.00000  Uiso   1.00
C387   C     0.15222   0.67845   0.26403   0.00000  Uiso   1.00
C388   C     0.15631   0.72256   0.26016   0.00000  Uiso   1.00
C389   C     0.17667   0.94464   0.24008   0.00000  Uiso   1.00
C390   C     0.07701   0.84915   0.48836   0.00000  Uiso   1.00
C391   C     0.18570   0.81509   0.12931   0.00000  Uiso   1.00
C392   C     0.14828   0.85105   0.37098   0.00000  Uiso   1.00
C393   C     0.25080   0.81362   0.01139   0.00000  Uiso   1.00
C394   C     0.19533   0.80992   0.08077   0.00000  Uiso   1.00
C395   C     0.09154   0.85574   0.44263   0.00000  Uiso   1.00
C396   C     0.03597   0.88973   0.43595   0.00000  Uiso   1.00
C397   C     0.01890   0.90314   0.39899   0.00000  Uiso   1.00
C398   C     0.32047   0.93487   0.41728   0.00000  Uiso   1.00
C399   C     0.10482   0.83986   0.01191   0.00000  Uiso   1.00
C400   C     0.14882   0.83773   0.49088   0.00000  Uiso   1.00
C401   C     0.16439   0.84647   0.44503   0.00000  Uiso   1.00
C402   C     0.17781   0.82660   0.01366   0.00000  Uiso   1.00
C403   C     0.22164   0.82482   0.49012   0.00000  Uiso   1.00
C404   C     0.23662   0.83604   0.44615   0.00000  Uiso   1.00
C405   C     0.20881   0.84793   0.42441   0.00000  Uiso   1.00
H406   H     0.26142   0.80093   0.07335   0.00000  Uiso   1.00
H407   H     0.22283   0.85850   0.39117   0.00000  Uiso   1.00
H408   H     0.01603   0.86035   0.20907   0.00000  Uiso   1.00
H409   H     0.05383   0.91772   0.44977   0.00000  Uiso   1.00
H410   H     0.00821   0.87720   0.46280   0.00000  Uiso   1.00
H411   H     0.04626   0.91711   0.37266   0.00000  Uiso   1.00
H412   H     0.00262   0.87541   0.38333   0.00000  Uiso   1.00
H413   H     0.29253   0.92133   0.44324   0.00000  Uiso   1.00
H414   H     0.30859   0.94374   0.38965   0.00000  Uiso   1.00
H415   H     0.00307   0.96333   0.43208   0.00000  Uiso   1.00
H416   H     0.31887   0.80733   0.29125   0.00000  Uiso   1.00
H417   H     0.20678   0.67048   0.21050   0.00000  Uiso   1.00
H418   H     0.12579   0.99797   0.28996   0.00000  Uiso   1.00
H419   H     0.27028   0.83628   0.42863   0.00000  Uiso   1.00
H420   H     0.28420   0.81217   0.49356   0.00000  Uiso   1.00
H421   H     0.13339   0.82149   0.08023   0.00000  Uiso   1.00
H422   H     0.09040   0.83371   0.04643   0.00000  Uiso   1.00
H423   H     0.04331   0.84890   0.00555   0.00000  Uiso   1.00
O424   O     0.16667   0.83333   0.25000   0.00000  Uiso   1.00
O425   O     0.15451   0.79304   0.15458   0.00000  Uiso   1.00
O426   O     0.12940   0.87058   0.34968   0.00000  Uiso   1.00
O427   O     0.20824   0.84425   0.14606   0.00000  Uiso   1.00
O428   O     0.17451   0.82546   0.34968   0.00000  Uiso   1.00
O429   O     0.06257   0.85819   0.41755   0.00000  Uiso   1.00
O430   O     0.17930   0.74686   0.28213   0.00000  Uiso   1.00
O431   O     0.14632   0.92751   0.27013   0.00000  Uiso   1.00
O432   O     0.07412   0.79958   0.23413   0.00000  Uiso   1.00
O433   O     0.26693   0.85939   0.21360   0.00000  Uiso   1.00
O434   O     0.07071   0.85544   0.28213   0.00000  Uiso   1.00
O435   O     0.25491   0.81892   0.27013   0.00000  Uiso   1.00
O436   O     0.13760   0.73610   0.23413   0.00000  Uiso   1.00
O437   O     0.20345   0.92286   0.21360   0.00000  Uiso   1.00
Zn438  Zn    0.19338   0.80661   0.28734   0.00000  Uiso   1.00
Zn439  Zn    0.13379   0.79124   0.21875   0.00000  Uiso   1.00
Zn440  Zn    0.21056   0.86442   0.20657   0.00000  Uiso   1.00
Zn441  Zn    0.12893   0.87106   0.28733   0.00000  Uiso   1.00
C442   C     0.38611   0.82646   0.26001   0.00000  Uiso   1.00
C443   C     0.49858   0.81837   0.05940   0.00000  Uiso   1.00
C444   C     0.57112   0.80667   0.05659   0.00000  Uiso   1.00
C445   C     0.61420   0.84053   0.23993   0.00000  Uiso   1.00
C446   C     0.46857   0.85312   0.42047   0.00000  Uiso   1.00
C447   C     0.66015   0.84313   0.23560   0.00000  Uiso   1.00
C448   C     0.34078   0.82428   0.26416   0.00000  Uiso   1.00
C449   C     0.51393   0.98923   0.23619   0.00000  Uiso   1.00
C450   C     0.48555   0.67845   0.26403   0.00000  Uiso   1.00
C451   C     0.48965   0.72256   0.26016   0.00000  Uiso   1.00
C452   C     0.51000   0.94464   0.24008   0.00000  Uiso   1.00
C453   C     0.41034   0.84915   0.48836   0.00000  Uiso   1.00
C454   C     0.51903   0.81509   0.12931   0.00000  Uiso   1.00
C455   C     0.48161   0.85105   0.37098   0.00000  Uiso   1.00
C456   C     0.58414   0.81362   0.01139   0.00000  Uiso   1.00
C457   C     0.52866   0.80992   0.08077   0.00000  Uiso   1.00
C458   C     0.42488   0.85574   0.44263   0.00000  Uiso   1.00
C459   C     0.36931   0.88973   0.43595   0.00000  Uiso   1.00
C460   C     0.35223   0.90314   0.39899   0.00000  Uiso   1.00
C461   C     0.65380   0.93487   0.41728   0.00000  Uiso   1.00
C462   C     0.43815   0.83986   0.01191   0.00000  Uiso   1.00
C463   C     0.48215   0.83773   0.49088   0.00000  Uiso   1.00
C464   C     0.49773   0.84647   0.44503   0.00000  Uiso   1.00
C465   C     0.51115   0.82660   0.01366   0.00000  Uiso   1.00
C466   C     0.55498   0.82482   0.49012   0.00000  Uiso   1.00
C467   C     0.56995   0.83604   0.44615   0.00000  Uiso   1.00
C468   C     0.54214   0.84793   0.42441   0.00000  Uiso   1.00
H469   H     0.59475   0.80093   0.07335   0.00000  Uiso   1.00
H470   H     0.55616   0.85850   0.39117   0.00000  Uiso   1.00
H471   H     0.34936   0.86035   0.20907   0.00000  Uiso   1.00
H472   H     0.38716   0.91772   0.44977   0.00000  Uiso   1.00
H473   H     0.34154   0.87720   0.46280   0.00000  Uiso   1.00
H474   H     0.37960   0.91711   0.37266   0.00000  Uiso   1.00
H475   H     0.33596   0.87541   0.38333   0.00000  Uiso   1.00
H476   H     0.62586   0.92133   0.44324   0.00000  Uiso   1.00
H477   H     0.64193   0.94374   0.38965   0.00000  Uiso   1.00
H478   H     0.33640   0.96333   0.43208   0.00000  Uiso   1.00
H479   H     0.65220   0.80733   0.29125   0.00000  Uiso   1.00
H480   H     0.54011   0.67048   0.21050   0.00000  Uiso   1.00
H481   H     0.45912   0.99797   0.28996   0.00000  Uiso   1.00
H482   H     0.60361   0.83628   0.42863   0.00000  Uiso   1.00
H483   H     0.61753   0.81217   0.49356   0.00000  Uiso   1.00
H484   H     0.46672   0.82149   0.08023   0.00000  Uiso   1.00
H485   H     0.42373   0.83371   0.04643   0.00000  Uiso   1.00
H486   H     0.37665   0.84890   0.00555   0.00000  Uiso   1.00
O487   O     0.50000   0.83333   0.25000   0.00000  Uiso   1.00
O488   O     0.48784   0.79304   0.15458   0.00000  Uiso   1.00
O489   O     0.46274   0.87058   0.34968   0.00000  Uiso   1.00
O490   O     0.54157   0.84425   0.14606   0.00000  Uiso   1.00
O491   O     0.50785   0.82546   0.34968   0.00000  Uiso   1.00
O492   O     0.39591   0.85819   0.41755   0.00000  Uiso   1.00
O493   O     0.51264   0.74686   0.28213   0.00000  Uiso   1.00
O494   O     0.47965   0.92751   0.27013   0.00000  Uiso   1.00
O495   O     0.40745   0.79958   0.23413   0.00000  Uiso   1.00
O496   O     0.60026   0.85939   0.21360   0.00000  Uiso   1.00
O497   O     0.40405   0.85544   0.28213   0.00000  Uiso   1.00
O498   O     0.58824   0.81892   0.27013   0.00000  Uiso   1.00
O499   O     0.47093   0.73610   0.23413   0.00000  Uiso   1.00
O500   O     0.53678   0.92286   0.21360   0.00000  Uiso   1.00
Zn501  Zn    0.52672   0.80661   0.28734   0.00000  Uiso   1.00
Zn502  Zn    0.46713   0.79124   0.21875   0.00000  Uiso   1.00
Zn503  Zn    0.54389   0.86442   0.20657   0.00000  Uiso   1.00
Zn504  Zn    0.46226   0.87106   0.28733   0.00000  Uiso   1.00
C505   C     0.71945   0.82646   0.26001   0.00000  Uiso   1.00
C506   C     0.83191   0.81837   0.05940   0.00000  Uiso   1.00
C507   C     0.90446   0.80667   0.05659   0.00000  Uiso   1.00
C508   C     0.94754   0.84053   0.23993   0.00000  Uiso   1.00
C509   C     0.80190   0.85312   0.42047   0.00000  Uiso   1.00
C510   C     0.99348   0.84313   0.23560   0.00000  Uiso   1.00
C511   C     0.67411   0.82428   0.26416   0.00000  Uiso   1.00
C512   C     0.84726   0.98923   0.23619   0.00000  Uiso   1.00
C513   C     0.81889   0.67845   0.26403   0.00000  Uiso   1.00
C514   C     0.82298   0.72256   0.26016   0.00000  Uiso   1.00
C515   C     0.84334   0.94464   0.24008   0.00000  Uiso   1.00
C516   C     0.74368   0.84915   0.48836   0.00000  Uiso   1.00
C517   C     0.85237   0.81509   0.12931   0.00000  Uiso   1.00
C518   C     0.81495   0.85105   0.37098   0.00000  Uiso   1.00
C519   C     0.91747   0.81362   0.01139   0.00000  Uiso   1.00
C520   C     0.86199   0.80992   0.08077   0.00000  Uiso   1.00
C521   C     0.75821   0.85574   0.44263   0.00000  Uiso   1.00
C522   C     0.70264   0.88973   0.43595   0.00000  Uiso   1.00
C523   C     0.68557   0.90314   0.39899   0.00000  Uiso   1.00
C524   C     0.98714   0.93487   0.41728   0.00000  Uiso   1.00
C525   C     0.77149   0.83986   0.01191   0.00000  Uiso   1.00
C526   C     0.81549   0.83773   0.49088   0.00000  Uiso   1.00
C527   C     0.83106   0.84647   0.44503   0.00000  Uiso   1.00
C528   C     0.84448   0.82660   0.01366   0.00000  Uiso   1.00
C529   C     0.88831   0.82482   0.49012   0.00000  Uiso   1.00
C530   C     0.90328   0.83604   0.44615   0.00000  Uiso   1.00
C531   C     0.87548   0.84793   0.42441   0.00000  Uiso   1.00
H532   H     0.92808   0.80093   0.07335   0.00000  Uiso   1.00
H533   H     0.88950   0.85850   0.39117   0.00000  Uiso   1.00
H534   H     0.68270   0.86035   0.20907   0.00000  Uiso   1.00
H535   H     0.72049   0.91772   0.44977   0.00000  Uiso   1.00
H536   H     0.67488   0.87720   0.46280   0.00000  Uiso   1.00
H537   H     0.71293   0.91711   0.37266   0.00000  Uiso   1.00
H538   H     0.66929   0.87541   0.38333   0.00000  Uiso   1.00
H539   H     0.95919   0.92133   0.44324   0.00000  Uiso   1.00
H540   H     0.97526   0.94374   0.38965   0.00000  Uiso   1.00
H541   H     0.66973   0.96333   0.43208   0.00000  Uiso   1.00
H542   H     0.98554   0.80733   0.29125   0.00000  Uiso   1.00
H543   H     0.87344   0.67048   0.21050   0.00000  Uiso   1.00
H544   H     0.79245   0.99797   0.28996   0.00000  Uiso   1.00
H545   H     0.93695   0.83628   0.42863   0.00000  Uiso   1.00
H546   H     0.95087   0.81217   0.49356   0.00000  Uiso   1.00
H547   H     0.80005   0.82149   0.08023   0.00000  Uiso   1.00
H548   H     0.75707   0.83371   0.04643   0.00000  Uiso   1.00
H549   H     0.70998   0.84890   0.00555   0.00000  Uiso   1.00
O550   O     0.83333   0.83333   0.25000   0.00000  Uiso   1.00
O551   O     0.82118   0.79304   0.15458   0.00000  Uiso   1.00
O552   O     0.79607   0.87058   0.34968   0.00000  Uiso   1.00
O553   O     0.87491   0.84425   0.14606   0.00000  Uiso   1.00
O554   O     0.84118   0.82546   0.34968   0.00000  Uiso   1.00
O555   O     0.72924   0.85819   0.41755   0.00000  Uiso   1.00
O556   O     0.84597   0.74686   0.28213   0.00000  Uiso   1.00
O557   O     0.81298   0.92751   0.27013   0.00000  Uiso   1.00
O558   O     0.74078   0.79958   0.23413   0.00000  Uiso   1.00
O559   O     0.93360   0.85939   0.21360   0.00000  Uiso   1.00
O560   O     0.73738   0.85544   0.28213   0.00000  Uiso   1.00
O561   O     0.92158   0.81892   0.27013   0.00000  Uiso   1.00
O562   O     0.80426   0.73610   0.23413   0.00000  Uiso   1.00
O563   O     0.87012   0.92286   0.21360   0.00000  Uiso   1.00
Zn564  Zn    0.86005   0.80661   0.28734   0.00000  Uiso   1.00
Zn565  Zn    0.80046   0.79124   0.21875   0.00000  Uiso   1.00
Zn566  Zn    0.87723   0.86442   0.20657   0.00000  Uiso   1.00
Zn567  Zn    0.79560   0.87106   0.28733   0.00000  Uiso   1.00
C568   C     0.05278   0.15979   0.76001   0.00000  Uiso   1.00
C569   C     0.16524   0.15170   0.55940   0.00000  Uiso   1.00
C570   C     0.23779   0.14000   0.55659   0.00000  Uiso   1.00
C571   C     0.28087   0.17386   0.73993   0.00000  Uiso   1.00
C572   C     0.13523   0.18645   0.92047   0.00000  Uiso   1.00
C573   C     0.32682   0.17646   0.73560   0.00000  Uiso   1.00
C574   C     0.00745   0.15761   0.76416   0.00000  Uiso   1.00
C575   C     0.18059   0.32256   0.73619   0.00000  Uiso   1.00
C576   C     0.15222   0.01178   0.76403   0.00000  Uiso   1.00
C577   C     0.15631   0.05590   0.76016   0.00000  Uiso   1.00
C578   C     0.17667   0.27797   0.74008   0.00000  Uiso   1.00
C579   C     0.07701   0.18248   0.98836   0.00000  Uiso   1.00
C580   C     0.18570   0.14842   0.62931   0.00000  Uiso   1.00
C581   C     0.14828   0.18439   0.87098   0.00000  Uiso   1.00
C582   C     0.25080   0.14695   0.51139   0.00000  Uiso   1.00
C583   C     0.19533   0.14326   0.58077   0.00000  Uiso   1.00
C584   C     0.09154   0.18907   0.94263   0.00000  Uiso   1.00
C585   C     0.03597   0.22306   0.93595   0.00000  Uiso   1.00
C586   C     0.01890   0.23647   0.89899   0.00000  Uiso   1.00
C587   C     0.32047   0.26820   0.91728   0.00000  Uiso   1.00
C588   C     0.10482   0.17319   0.51191   0.00000  Uiso   1.00
C589   C     0.14882   0.17106   0.99088   0.00000  Uiso   1.00
C590   C     0.16439   0.17980   0.94503   0.00000  Uiso   1.00
C591   C     0.17781   0.15994   0.51366   0.00000  Uiso   1.00
C592   C     0.22164   0.15815   0.99012   0.00000  Uiso   1.00
C593   C     0.23662   0.16937   0.94615   0.00000  Uiso   1.00
C594   C     0.20881   0.18126   0.92441   0.00000  Uiso   1.00
H595   H     0.26142   0.13426   0.57335   0.00000  Uiso   1.00
H596   H     0.22283   0.19183   0.89117   0.00000  Uiso   1.00
H597   H     0.01603   0.19368   0.70907   0.00000  Uiso   1.00
H598   H     0.05383   0.25106   0.94977   0.00000  Uiso   1.00
H599   H     0.00821   0.21053   0.96280   0.00000  Uiso   1.00
H600   H     0.04626   0.25044   0.87266   0.00000  Uiso   1.00
H601   H     0.00262   0.20875   0.88333   0.00000  Uiso   1.00
H602   H     0.29253   0.25467   0.94324   0.00000  Uiso   1.00
H603   H     0.30859   0.27707   0.88965   0.00000  Uiso   1.00
H604   H     0.00307   0.29666   0.93208   0.00000  Uiso   1.00
H605   H     0.31887   0.14066   0.79125   0.00000  Uiso   1.00
H606   H     0.20678   0.00382   0.71050   0.00000  Uiso   1.00
H607   H     0.12579   0.33131   0.78996   0.00000  Uiso   1.00
H608   H     0.27028   0.16961   0.92863   0.00000  Uiso   1.00
H609   H     0.28420   0.14550   0.99356   0.00000  Uiso   1.00
H610   H     0.13339   0.15482   0.58023   0.00000  Uiso   1.00
H611   H     0.09040   0.16705   0.54643   0.00000  Uiso   1.00
H612   H     0.04331   0.18223   0.50555   0.00000  Uiso   1.00
O613   O     0.16667   0.16667   0.75000   0.00000  Uiso   1.00
O614   O     0.15451   0.12637   0.65458   0.00000  Uiso   1.00
O615   O     0.12940   0.20391   0.84968   0.00000  Uiso   1.00
O616   O     0.20824   0.17759   0.64606   0.00000  Uiso   1.00
O617   O     0.17451   0.15880   0.84968   0.00000  Uiso   1.00
O618   O     0.06257   0.19152   0.91755   0.00000  Uiso   1.00
O619   O     0.17930   0.08019   0.78213   0.00000  Uiso   1.00
O620   O     0.14632   0.26085   0.77013   0.00000  Uiso   1.00
O621   O     0.07412   0.13291   0.73413   0.00000  Uiso   1.00
O622   O     0.26693   0.19272   0.71360   0.00000  Uiso   1.00
O623   O     0.07071   0.18878   0.78213   0.00000  Uiso   1.00
O624   O     0.25491   0.15226   0.77013   0.00000  Uiso   1.00
O625   O     0.13760   0.06944   0.73413   0.00000  Uiso   1.00
O626   O     0.20345   0.25620   0.71360   0.00000  Uiso   1.00
Zn627  Zn    0.19338   0.13994   0.78734   0.00000  Uiso   1.00
Zn628  Zn    0.13379   0.12458   0.71875   0.00000  Uiso   1.00
Zn629  Zn    0.21056   0.19775   0.70657   0.00000  Uiso   1.00
Zn630  Zn    0.12893   0.20439   0.78733   0.00000  Uiso   1.00
C631   C     0.38611   0.15979   0.76001   0.00000  Uiso   1.00
C632   C     0.49858   0.15170   0.55940   0.00000  Uiso   1.00
C633   C     0.57112   0.14000   0.55659   0.00000  Uiso   1.00
C634   C     0.61420   0.17386   0.73993   0.00000  Uiso   1.00
C635   C     0.46857   0.18645   0.92047   0.00000  Uiso   1.00
C636   C     0.66015   0.17646   0.73560   0.00000  Uiso   1.00
C637   C     0.34078   0.15761   0.76416   0.00000  Uiso   1.00
C638   C     0.51393   0.32256   0.73619   0.00000  Uiso   1.00
C639   C     0.48555   0.01178   0.76403   0.00000  Uiso   1.00
C640   C     0.48965   0.05590   0.76016   0.00000  Uiso   1.00
C641   C     0.51000   0.27797   0.74008   0.00000  Uiso   1.00
C642   C     0.41034   0.18248   0.98836   0.00000  Uiso   1.00
C643   C     0.51903   0.14842   0.62931   0.00000  Uiso   1.00
C644   C     0.48161   0.18439   0.87098   0.00000  Uiso   1.00
C645   C     0.58414   0.14695   0.51139   0.00000  Uiso   1.00
C646   C     0.52866   0.14326   0.58077   0.00000  Uiso   1.00
C647   C     0.42488   0.18907   0.94263   0.00000  Uiso   1.00
C648   C     0.36931   0.22306   0.93595   0.00000  Uiso   1.00
C649   C     0.35223   0.23647   0.89899   0.00000  Uiso   1.00
C650   C     0.65380   0.26820   0.91728   0.00000  Uiso   1.00
C651   C     0.43815   0.17319   0.51191   0.00000  Uiso   1.00
C652   C     0.48215   0.17106   0.99088   0.00000  Uiso   1.00
C653   C     0.49773   0.17980   0.94503   0.00000  Uiso   1.00
C654   C     0.51115   0.15994   0.51366   0.00000  Uiso   1.00
C655   C     0.55498   0.15815   0.99012   0.00000  Uiso   1.00
C656   C     0.56995   0.16937   0.94615   0.00000  Uiso   1.00
C657   C     0.54214   0.18126   0.92441   0.00000  Uiso   1.00
H658   H     0.59475   0.13426   0.57335   0.00000  Uiso   1.00
H659   H     0.55616   0.19183   0.89117   0.00000  Uiso   1.00
H660   H     0.34936   0.19368   0.70907   0.00000  Uiso   1.00
H661   H     0.38716   0.25106   0.94977   0.00000  Uiso   1.00
H662   H     0.34154   0.21053   0.96280   0.00000  Uiso   1.00
H663   H     0.37960   0.25044   0.87266   0.00000  Uiso   1.00
H664   H     0.33596   0.20875   0.88333   0.00000  Uiso   1.00
H665   H     0.62586   0.25467   0.94324   0.00000  Uiso   1.00
H666   H     0.64193   0.27707   0.88965   0.00000  Uiso   1.00
H667   H     0.33640   0.29666   0.93208   0.00000  Uiso   1.00
H668   H     0.65220   0.14066   0.79125   0.00000  Uiso   1.00
H669   H     0.54011   0.00382   0.71050   0.00000  Uiso   1.00
H670   H     0.45912   0.33131   0.78996   0.00000  Uiso   1.00
H671   H     0.60361   0.16961   0.92863   0.00000  Uiso   1.00
H672   H     0.61753   0.14550   0.99356   0.00000  Uiso   1.00
H673   H     0.46672   0.15482   0.58023   0.00000  Uiso   1.00
H674   H     0.42373   0.16705   0.54643   0.00000  Uiso   1.00
H675   H     0.37665   0.18223   0.50555   0.00000  Uiso   1.00
O676   O     0.50000   0.16667   0.75000   0.00000  Uiso   1.00
O677   O     0.48784   0.12637   0.65458   0.00000  Uiso   1.00
O678   O     0.46274   0.20391   0.84968   0.00000  Uiso   1.00
O679   O     0.54157   0.17759   0.64606   0.00000  Uiso   1.00
O680   O     0.50785   0.15880   0.84968   0.00000  Uiso   1.00
O681   O     0.39591   0.19152   0.91755   0.00000  Uiso   1.00
O682   O     0.51264   0.08019   0.78213   0.00000  Uiso   1.00
O683   O     0.47965   0.26085   0.77013   0.00000  Uiso   1.00
O684   O     0.40745   0.13291   0.73413   0.00000  Uiso   1.00
O685   O     0.60026   0.19272   0.71360   0.00000  Uiso   1.00
O686   O     0.40405   0.18878   0.78213   0.00000  Uiso   1.00
O687   O     0.58824   0.15226   0.77013   0.00000  Uiso   1.00
O688   O     0.47093   0.06944   0.73413   0.00000  Uiso   1.00
O689   O     0.53678   0.25620   0.71360   0.00000  Uiso   1.00
Zn690  Zn    0.52672   0.13994   0.78734   0.00000  Uiso   1.00
Zn691  Zn    0.46713   0.12458   0.71875   0.00000  Uiso   1.00
Zn692  Zn    0.54389   0.19775   0.70657   0.00000  Uiso   1.00
Zn693  Zn    0.46226   0.20439   0.78733   0.00000  Uiso   1.00
C694   C     0.71945   0.15979   0.76001   0.00000  Uiso   1.00
C695   C     0.83191   0.15170   0.55940   0.00000  Uiso   1.00
C696   C     0.90446   0.14000   0.55659   0.00000  Uiso   1.00
C697   C     0.94754   0.17386   0.73993   0.00000  Uiso   1.00
C698   C     0.80190   0.18645   0.92047   0.00000  Uiso   1.00
C699   C     0.99348   0.17646   0.73560   0.00000  Uiso   1.00
C700   C     0.67411   0.15761   0.76416   0.00000  Uiso   1.00
C701   C     0.84726   0.32256   0.73619   0.00000  Uiso   1.00
C702   C     0.81889   0.01178   0.76403   0.00000  Uiso   1.00
C703   C     0.82298   0.05590   0.76016   0.00000  Uiso   1.00
C704   C     0.84334   0.27797   0.74008   0.00000  Uiso   1.00
C705   C     0.74368   0.18248   0.98836   0.00000  Uiso   1.00
C706   C     0.85237   0.14842   0.62931   0.00000  Uiso   1.00
C707   C     0.81495   0.18439   0.87098   0.00000  Uiso   1.00
C708   C     0.91747   0.14695   0.51139   0.00000  Uiso   1.00
C709   C     0.86199   0.14326   0.58077   0.00000  Uiso   1.00
C710   C     0.75821   0.18907   0.94263   0.00000  Uiso   1.00
C711   C     0.70264   0.22306   0.93595   0.00000  Uiso   1.00
C712   C     0.68557   0.23647   0.89899   0.00000  Uiso   1.00
C713   C     0.98714   0.26820   0.91728   0.00000  Uiso   1.00
C714   C     0.77149   0.17319   0.51191   0.00000  Uiso   1.00
C715   C     0.81549   0.17106   0.99088   0.00000  Uiso   1.00
C716   C     0.83106   0.17980   0.94503   0.00000  Uiso   1.00
C717   C     0.84448   0.15994   0.51366   0.00000  Uiso   1.00
C718   C     0.88831   0.15815   0.99012   0.00000  Uiso   1.00
C719   C     0.90328   0.16937   0.94615   0.00000  Uiso   1.00
C720   C     0.87548   0.18126   0.92441   0.00000  Uiso   1.00
H721   H     0.92808   0.13426   0.57335   0.00000  Uiso   1.00
H722   H     0.88950   0.19183   0.89117   0.00000  Uiso   1.00
H723   H     0.68270   0.19368   0.70907   0.00000  Uiso   1.00
H724   H     0.72049   0.25106   0.94977   0.00000  Uiso   1.00
H725   H     0.67488   0.21053   0.96280   0.00000  Uiso   1.00
H726   H     0.71293   0.25044   0.87266   0.00000  Uiso   1.00
H727   H     0.66929   0.20875   0.88333   0.00000  Uiso   1.00
H728   H     0.95919   0.25467   0.94324   0.00000  Uiso   1.00
H729   H     0.97526   0.27707   0.88965   0.00000  Uiso   1.00
H730   H     0.66973   0.29666   0.93208   0.00000  Uiso   1.00
H731   H     0.98554   0.14066   0.79125   0.00000  Uiso   1.00
H732   H     0.87344   0.00382   0.71050   0.00000  Uiso   1.00
H733   H     0.79245   0.33131   0.78996   0.00000  Uiso   1.00
H734   H     0.93695   0.16961   0.92863   0.00000  Uiso   1.00
H735   H     0.95087   0.14550   0.99356   0.00000  Uiso   1.00
H736   H     0.80005   0.15482   0.58023   0.00000  Uiso   1.00
H737   H     0.75707   0.16705   0.54643   0.00000  Uiso   1.00
H738   H     0.70998   0.18223   0.50555   0.00000  Uiso   1.00
O739   O     0.83333   0.16667   0.75000   0.00000  Uiso   1.00
O740   O     0.82118   0.12637   0.65458   0.00000  Uiso   1.00
O741   O     0.79607   0.20391   0.84968   0.00000  Uiso   1.00
O742   O     0.87491   0.17759   0.64606   0.00000  Uiso   1.00
O743   O     0.84118   0.15880   0.84968   0.00000  Uiso   1.00
O744   O     0.72924   0.19152   0.91755   0.00000  Uiso   1.00
O745   O     0.84597   0.08019   0.78213   0.00000  Uiso   1.00
O746   O     0.81298   0.26085   0.77013   0.00000  Uiso   1.00
O747   O     0.74078   0.13291   0.73413   0.00000  Uiso   1.00
O748   O     0.93360   0.19272   0.71360   0.00000  Uiso   1.00
O749   O     0.73738   0.18878   0.78213   0.00000  Uiso   1.00
O750   O     0.92158   0.15226   0.77013   0.00000  Uiso   1.00
O751   O     0.80426   0.06944   0.73413   0.00000  Uiso   1.00
O752   O     0.87012   0.25620   0.71360   0.00000  Uiso   1.00
Zn753  Zn    0.86005   0.13994   0.78734   0.00000  Uiso   1.00
Zn754  Zn    0.80046   0.12458   0.71875   0.00000  Uiso   1.00
Zn755  Zn    0.87723   0.19775   0.70657   0.00000  Uiso   1.00
Zn756  Zn    0.79560   0.20439   0.78733   0.00000  Uiso   1.00
C757   C     0.05278   0.49312   0.76001   0.00000  Uiso   1.00
C758   C     0.16524   0.48503   0.55940   0.00000  Uiso   1.00
C759   C     0.23779   0.47333   0.55659   0.00000  Uiso   1.00
C760   C     0.28087   0.50720   0.73993   0.00000  Uiso   1.00
C761   C     0.13523   0.51979   0.92047   0.00000  Uiso   1.00
C762   C     0.32682   0.50980   0.73560   0.00000  Uiso   1.00
C763   C     0.00745   0.49095   0.76416   0.00000  Uiso   1.00
C764   C     0.18059   0.65590   0.73619   0.00000  Uiso   1.00
C765   C     0.15222   0.34512   0.76403   0.00000  Uiso   1.00
C766   C     0.15631   0.38923   0.76016   0.00000  Uiso   1.00
C767   C     0.17667   0.61130   0.74008   0.00000  Uiso   1.00
C768   C     0.07701   0.51582   0.98836   0.00000  Uiso   1.00
C769   C     0.18570   0.48176   0.62931   0.00000  Uiso   1.00
C770   C     0.14828   0.51772   0.87098   0.00000  Uiso   1.00
C771   C     0.25080   0.48028   0.51139   0.00000  Uiso   1.00
C772   C     0.19533   0.47659   0.58077   0.00000  Uiso   1.00
C773   C     0.09154   0.52240   0.94263   0.00000  Uiso   1.00
C774   C     0.03597   0.55639   0.93595   0.00000  Uiso   1.00
C775   C     0.01890   0.56980   0.89899   0.00000  Uiso   1.00
C776   C     0.32047   0.60154   0.91728   0.00000  Uiso   1.00
C777   C     0.10482   0.50652   0.51191   0.00000  Uiso   1.00
C778   C     0.14882   0.50439   0.99088   0.00000  Uiso   1.00
C779   C     0.16439   0.51313   0.94503   0.00000  Uiso   1.00
C780   C     0.17781   0.49327   0.51366   0.00000  Uiso   1.00
C781   C     0.22164   0.49148   0.99012   0.00000  Uiso   1.00
C782   C     0.23662   0.50271   0.94615   0.00000  Uiso   1.00
C783   C     0.20881   0.51460   0.92441   0.00000  Uiso   1.00
H784   H     0.26142   0.46760   0.57335   0.00000  Uiso   1.00
H785   H     0.22283   0.52517   0.89117   0.00000  Uiso   1.00
H786   H     0.01603   0.52702   0.70907   0.00000  Uiso   1.00
H787   H     0.05383   0.58439   0.94977   0.00000  Uiso   1.00
H788   H     0.00821   0.54387   0.96280   0.00000  Uiso   1.00
H789   H     0.04626   0.58377   0.87266   0.00000  Uiso   1.00
H790   H     0.00262   0.54208   0.88333   0.00000  Uiso   1.00
H791   H     0.29253   0.58800   0.94324   0.00000  Uiso   1.00
H792   H     0.30859   0.61040   0.88965   0.00000  Uiso   1.00
H793   H     0.00307   0.62999   0.93208   0.00000  Uiso   1.00
H794   H     0.31887   0.47400   0.79125   0.00000  Uiso   1.00
H795   H     0.20678   0.33715   0.71050   0.00000  Uiso   1.00
H796   H     0.12579   0.66464   0.78996   0.00000  Uiso   1.00
H797   H     0.27028   0.50295   0.92863   0.00000  Uiso   1.00
H798   H     0.28420   0.47884   0.99356   0.00000  Uiso   1.00
H799   H     0.13339   0.48816   0.58023   0.00000  Uiso   1.00
H800   H     0.09040   0.50038   0.54643   0.00000  Uiso   1.00
H801   H     0.04331   0.51556   0.50555   0.00000  Uiso   1.00
O802   O     0.16667   0.50000   0.75000   0.00000  Uiso   1.00
O803   O     0.15451   0.45970   0.65458   0.00000  Uiso   1.00
O804   O     0.12940   0.53724   0.84968   0.00000  Uiso   1.00
O805   O     0.20824   0.51092   0.64606   0.00000  Uiso   1.00
O806   O     0.17451   0.49213   0.84968   0.00000  Uiso   1.00
O807   O     0.06257   0.52486   0.91755   0.00000  Uiso   1.00
O808   O     0.17930   0.41352   0.78213   0.00000  Uiso   1.00
O809   O     0.14632   0.59418   0.77013   0.00000  Uiso   1.00
O810   O     0.07412   0.46625   0.73413   0.00000  Uiso   1.00
O811   O     0.26693   0.52605   0.71360   0.00000  Uiso   1.00
O812   O     0.07071   0.52211   0.78213   0.00000  Uiso   1.00
O813   O     0.25491   0.48559   0.77013   0.00000  Uiso   1.00
O814   O     0.13760   0.40277   0.73413   0.00000  Uiso   1.00
O815   O     0.20345   0.58953   0.71360   0.00000  Uiso   1.00
Zn816  Zn    0.19338   0.47327   0.78734   0.00000  Uiso   1.00
Zn817  Zn    0.13379   0.45791   0.71875   0.00000  Uiso   1.00
Zn818  Zn    0.21056   0.53109   0.70657   0.00000  Uiso   1.00
Zn819  Zn    0.12893   0.53773   0.78733   0.00000  Uiso   1.00
C820   C     0.38611   0.49312   0.76001   0.00000  Uiso   1.00
C821   C     0.49858   0.48503   0.55940   0.00000  Uiso   1.00
C822   C     0.57112   0.47333   0.55659   0.00000  Uiso   1.00
C823   C     0.61420   0.50720   0.73993   0.00000  Uiso   1.00
C824   C     0.46857   0.51979   0.92047   0.00000  Uiso   1.00
C825   C     0.66015   0.50980   0.73560   0.00000  Uiso   1.00
C826   C     0.34078   0.49095   0.76416   0.00000  Uiso   1.00
C827   C     0.51393   0.65590   0.73619   0.00000  Uiso   1.00
C828   C     0.48555   0.34512   0.76403   0.00000  Uiso   1.00
C829   C     0.48965   0.38923   0.76016   0.00000  Uiso   1.00
C830   C     0.51000   0.61130   0.74008   0.00000  Uiso   1.00
C831   C     0.41034   0.51582   0.98836   0.00000  Uiso   1.00
C832   C     0.51903   0.48176   0.62931   0.00000  Uiso   1.00
C833   C     0.48161   0.51772   0.87098   0.00000  Uiso   1.00
C834   C     0.58414   0.48028   0.51139   0.00000  Uiso   1.00
C835   C     0.52866   0.47659   0.58077   0.00000  Uiso   1.00
C836   C     0.42488   0.52240   0.94263   0.00000  Uiso   1.00
C837   C     0.36931   0.55639   0.93595   0.00000  Uiso   1.00
C838   C     0.35223   0.56980   0.89899   0.00000  Uiso   1.00
C839   C     0.65380   0.60154   0.91728   0.00000  Uiso   1.00
C840   C     0.43815   0.50652   0.51191   0.00000  Uiso   1.00
C841   C     0.48215   0.50439   0.99088   0.00000  Uiso   1.00
C842   C     0.49773   0.51313   0.94503   0.00000  Uiso   1.00
C843   C     0.51115   0.49327   0.51366   0.00000  Uiso   1.00
C844   C     0.55498   0.49148   0.99012   0.00000  Uiso   1.00
C845   C     0.56995   0.50271   0.94615   0.00000  Uiso   1.00
C846   C     0.54214   0.51460   0.92441   0.00000  Uiso   1.00
H847   H     0.59475   0.46760   0.57335   0.00000  Uiso   1.00
H848   H     0.55616   0.52517   0.89117   0.00000  Uiso   1.00
H849   H     0.34936   0.52702   0.70907   0.00000  Uiso   1.00
H850   H     0.38716   0.58439   0.94977   0.00000  Uiso   1.00
H851   H     0.34154   0.54387   0.96280   0.00000  Uiso   1.00
H852   H     0.37960   0.58377   0.87266   0.00000  Uiso   1.00
H853   H     0.33596   0.54208   0.88333   0.00000  Uiso   1.00
H854   H     0.62586   0.58800   0.94324   0.00000  Uiso   1.00
H855   H     0.64193   0.61040   0.88965   0.00000  Uiso   1.00
H856   H     0.33640   0.62999   0.93208   0.00000  Uiso   1.00
H857   H     0.65220   0.47400   0.79125   0.00000  Uiso   1.00
H858   H     0.54011   0.33715   0.71050   0.00000  Uiso   1.00
H859   H     0.45912   0.66464   0.78996   0.00000  Uiso   1.00
H860   H     0.60361   0.50295   0.92863   0.00000  Uiso   1.00
H861   H     0.61753   0.47884   0.99356   0.00000  Uiso   1.00
H862   H     0.46672   0.48816   0.58023   0.00000  Uiso   1.00
H863   H     0.42373   0.50038   0.54643   0.00000  Uiso   1.00
H864   H     0.37665   0.51556   0.50555   0.00000  Uiso   1.00
O865   O     0.50000   0.50000   0.75000   0.00000  Uiso   1.00
O866   O     0.48784   0.45970   0.65458   0.00000  Uiso   1.00
O867   O     0.46274   0.53724   0.84968   0.00000  Uiso   1.00
O868   O     0.54157   0.51092   0.64606   0.00000  Uiso   1.00
O869   O     0.50785   0.49213   0.84968   0.00000  Uiso   1.00
O870   O     0.39591   0.52486   0.91755   0.00000  Uiso   1.00
O871   O     0.51264   0.41352   0.78213   0.00000  Uiso   1.00
O872   O     0.47965   0.59418   0.77013   0.00000  Uiso   1.00
O873   O     0.40745   0.46625   0.73413   0.00000  Uiso   1.00
O874   O     0.60026   0.52605   0.71360   0.00000  Uiso   1.00
O875   O     0.40405   0.52211   0.78213   0.00000  Uiso   1.00
O876   O     0.58824   0.48559   0.77013   0.00000  Uiso   1.00
O877   O     0.47093   0.40277   0.73413   0.00000  Uiso   1.00
O878   O     0.53678   0.58953   0.71360   0.00000  Uiso   1.00
Zn879  Zn    0.52672   0.47327   0.78734   0.00000  Uiso   1.00
Zn880  Zn    0.46713   0.45791   0.71875   0.00000  Uiso   1.00
Zn881  Zn    0.54389   0.53109   0.70657   0.00000  Uiso   1.00
Zn882  Zn    0.46226   0.53773   0.78733   0.00000  Uiso   1.00
C883   C     0.71945   0.49312   0.76001   0.00000  Uiso   1.00
C884   C     0.83191   0.48503   0.55940   0.00000  Uiso   1.00
C885   C     0.90446   0.47333   0.55659   0.00000  Uiso   1.00
C886   C     0.94754   0.50720   0.73993   0.00000  Uiso   1.00
C887   C     0.80190   0.51979   0.92047   0.00000  Uiso   1.00
C888   C     0.99348   0.50980   0.73560   0.00000  Uiso   1.00
C889   C     0.67411   0.49095   0.76416   0.00000  Uiso   1.00
C890   C     0.84726   0.65590   0.73619   0.00000  Uiso   1.00
C891   C     0.81889   0.34512   0.76403   0.00000  Uiso   1.00
C892   C     0.82298   0.38923   0.76016   0.00000  Uiso   1.00
C893   C     0.84334   0.61130   0.74008   0.00000  Uiso   1.00
C894   C     0.74368   0.51582   0.98836   0.00000  Uiso   1.00
C895   C     0.85237   0.48176   0.62931   0.00000  Uiso   1.00
C896   C     0.81495   0.51772   0.87098   0.00000  Uiso   1.00
C897   C     0.91747   0.48028   0.51139   0.00000  Uiso   1.00
C898   C     0.86199   0.47659   0.58077   0.00000  Uiso   1.00
C899   C     0.75821   0.52240   0.94263   0.00000  Uiso   1.00
C900   C     0.70264   0.55639   0.93595   0.00000  Uiso   1.00
C901   C     0.68557   0.56980   0.89899   0.00000  Uiso   1.00
C902   C     0.98714   0.60154   0.91728   0.00000  Uiso   1.00
C903   C     0.77149   0.50652   0.51191   0.00000  Uiso   1.00
C904   C     0.81549   0.50439   0.99088   0.00000  Uiso   1.00
C905   C     0.83106   0.51313   0.94503   0.00000  Uiso   1.00
C906   C     0.84448   0.49327   0.51366   0.00000  Uiso   1.00
C907   C     0.88831   0.49148   0.99012   0.00000  Uiso   1.00
C908   C     0.90328   0.50271   0.94615   0.00000  Uiso   1.00
C909   C     0.87548   0.51460   0.92441   0.00000  Uiso   1.00
H910   H     0.92808   0.46760   0.57335   0.00000  Uiso   1.00
H911   H     0.88950   0.52517   0.89117   0.00000  Uiso   1.00
H912   H     0.68270   0.52702   0.70907   0.00000  Uiso   1.00
H913   H     0.72049   0.58439   0.94977   0.00000  Uiso   1.00
H914   H     0.67488   0.54387   0.96280   0.00000  Uiso   1.00
H915   H     0.71293   0.58377   0.87266   0.00000  Uiso   1.00
H916   H     0.66929   0.54208   0.88333   0.00000  Uiso   1.00
H917   H     0.95919   0.58800   0.94324   0.00000  Uiso   1.00
H918   H     0.97526   0.61040   0.88965   0.00000  Uiso   1.00
H919   H     0.66973   0.62999   0.93208   0.00000  Uiso   1.00
H920   H     0.98554   0.47400   0.79125   0.00000  Uiso   1.00
H921   H     0.87344   0.33715   0.71050   0.00000  Uiso   1.00
H922   H     0.79245   0.66464   0.78996   0.00000  Uiso   1.00
H923   H     0.93695   0.50295   0.92863   0.00000  Uiso   1.00
H924   H     0.95087   0.47884   0.99356   0.00000  Uiso   1.00
H925   H     0.80005   0.48816   0.58023   0.00000  Uiso   1.00
H926   H     0.75707   0.50038   0.54643   0.00000  Uiso   1.00
H927   H     0.70998   0.51556   0.50555   0.00000  Uiso   1.00
O928   O     0.83333   0.50000   0.75000   0.00000  Uiso   1.00
O929   O     0.82118   0.45970   0.65458   0.00000  Uiso   1.00
O930   O     0.79607   0.53724   0.84968   0.00000  Uiso   1.00
O931   O     0.87491   0.51092   0.64606   0.00000  Uiso   1.00
O932   O     0.84118   0.49213   0.84968   0.00000  Uiso   1.00
O933   O     0.72924   0.52486   0.91755   0.00000  Uiso   1.00
O934   O     0.84597   0.41352   0.78213   0.00000  Uiso   1.00
O935   O     0.81298   0.59418   0.77013   0.00000  Uiso   1.00
O936   O     0.74078   0.46625   0.73413   0.00000  Uiso   1.00
O937   O     0.93360   0.52605   0.71360   0.00000  Uiso   1.00
O938   O     0.73738   0.52211   0.78213   0.00000  Uiso   1.00
O939   O     0.92158   0.48559   0.77013   0.00000  Uiso   1.00
O940   O     0.80426   0.40277   0.73413   0.00000  Uiso   1.00
O941   O     0.87012   0.58953   0.71360   0.00000  Uiso   1.00
Zn942  Zn    0.86005   0.47327   0.78734   0.00000  Uiso   1.00
Zn943  Zn    0.80046   0.45791   0.71875   0.00000  Uiso   1.00
Zn944  Zn    0.87723   0.53109   0.70657   0.00000  Uiso   1.00
Zn945  Zn    0.79560   0.53773   0.78733   0.00000  Uiso   1.00
C946   C     0.05278   0.82646   0.76001   0.00000  Uiso   1.00
C947   C     0.16524   0.81837   0.55940   0.00000  Uiso   1.00
C948   C     0.23779   0.80667   0.55659   0.00000  Uiso   1.00
C949   C     0.28087   0.84053   0.73993   0.00000  Uiso   1.00
C950   C     0.13523   0.85312   0.92047   0.00000  Uiso   1.00
C951   C     0.32682   0.84313   0.73560   0.00000  Uiso   1.00
C952   C     0.00745   0.82428   0.76416   0.00000  Uiso   1.00
C953   C     0.18059   0.98923   0.73619   0.00000  Uiso   1.00
C954   C     0.15222   0.67845   0.76403   0.00000  Uiso   1.00
C955   C     0.15631   0.72256   0.76016   0.00000  Uiso   1.00
C956   C     0.17667   0.94464   0.74008   0.00000  Uiso   1.00
C957   C     0.07701   0.84915   0.98836   0.00000  Uiso   1.00
C958   C     0.18570   0.81509   0.62931   0.00000  Uiso   1.00
C959   C     0.14828   0.85105   0.87098   0.00000  Uiso   1.00
C960   C     0.25080   0.81362   0.51139   0.00000  Uiso   1.00
C961   C     0.19533   0.80992   0.58077   0.00000  Uiso   1.00
C962   C     0.09154   0.85574   0.94263   0.00000  Uiso   1.00
C963   C     0.03597   0.88973   0.93595   0.00000  Uiso   1.00
C964   C     0.01890   0.90314   0.89899   0.00000  Uiso   1.00
C965   C     0.32047   0.93487   0.91728   0.00000  Uiso   1.00
C966   C     0.10482   0.83986   0.51191   0.00000  Uiso   1.00
C967   C     0.14882   0.83773   0.99088   0.00000  Uiso   1.00
C968   C     0.16439   0.84647   0.94503   0.00000  Uiso   1.00
C969   C     0.17781   0.82660   0.51366   0.00000  Uiso   1.00
C970   C     0.22164   0.82482   0.99012   0.00000  Uiso   1.00
C971   C     0.23662   0.83604   0.94615   0.00000  Uiso   1.00
C972   C     0.20881   0.84793   0.92441   0.00000  Uiso   1.00
H973   H     0.26142   0.80093   0.57335   0.00000  Uiso   1.00
H974   H     0.22283   0.85850   0.89117   0.00000  Uiso   1.00
H975   H     0.01603   0.86035   0.70907   0.00000  Uiso   1.00
H976   H     0.05383   0.91772   0.94977   0.00000  Uiso   1.00
H977   H     0.00821   0.87720   0.96280   0.00000  Uiso   1.00
H978   H     0.04626   0.91711   0.87266   0.00000  Uiso   1.00
H979   H     0.00262   0.87541   0.88333   0.00000  Uiso   1.00
H980   H     0.29253   0.92133   0.94324   0.00000  Uiso   1.00
H981   H     0.30859   0.94374   0.88965   0.00000  Uiso   1.00
H982   H     0.00307   0.96333   0.93208   0.00000  Uiso   1.00
H983   H     0.31887   0.80733   0.79125   0.00000  Uiso   1.00
H984   H     0.20678   0.67048   0.71050   0.00000  Uiso   1.00
H985   H     0.12579   0.99797   0.78996   0.00000  Uiso   1.00
H986   H     0.27028   0.83628   0.92863   0.00000  Uiso   1.00
H987   H     0.28420   0.81217   0.99356   0.00000  Uiso   1.00
H988   H     0.13339   0.82149   0.58023   0.00000  Uiso   1.00
H989   H     0.09040   0.83371   0.54643   0.00000  Uiso   1.00
H990   H     0.04331   0.84890   0.50555   0.00000  Uiso   1.00
O991   O     0.16667   0.83333   0.75000   0.00000  Uiso   1.00
O992   O     0.15451   0.79304   0.65458   0.00000  Uiso   1.00
O993   O     0.12940   0.87058   0.84968   0.00000  Uiso   1.00
O994   O     0.20824   0.84425   0.64606   0.00000  Uiso   1.00
O995   O     0.17451   0.82546   0.84968   0.00000  Uiso   1.00
O996   O     0.06257   0.85819   0.91755   0.00000  Uiso   1.00
O997   O     0.17930   0.74686   0.78213   0.00000  Uiso   1.00
O998   O     0.14632   0.92751   0.77013   0.00000  Uiso   1.00
O999   O     0.07412   0.79958   0.73413   0.00000  Uiso   1.00
O1000  O     0.26693   0.85939   0.71360   0.00000  Uiso   1.00
O1001  O     0.07071   0.85544   0.78213   0.00000  Uiso   1.00
O1002  O     0.25491   0.81892   0.77013   0.00000  Uiso   1.00
O1003  O     0.13760   0.73610   0.73413   0.00000  Uiso   1.00
O1004  O     0.20345   0.92286   0.71360   0.00000  Uiso   1.00
Zn1005 Zn    0.19338   0.80661   0.78734   0.00000  Uiso   1.00
Zn1006 Zn    0.13379   0.79124   0.71875   0.00000  Uiso   1.00
Zn1007 Zn    0.21056   0.86442   0.70657   0.00000  Uiso   1.00
Zn1008 Zn    0.12893   0.87106   0.78733   0.00000  Uiso   1.00
C1009  C     0.38611   0.82646   0.76001   0.00000  Uiso   1.00
C1010  C     0.49858   0.81837   0.55940   0.00000  Uiso   1.00
C1011  C     0.57112   0.80667   0.55659   0.00000  Uiso   1.00
C1012  C     0.61420   0.84053   0.73993   0.00000  Uiso   1.00
C1013  C     0.46857   0.85312   0.92047   0.00000  Uiso   1.00
C1014  C     0.66015   0.84313   0.73560   0.00000  Uiso   1.00
C1015  C     0.34078   0.82428   0.76416   0.00000  Uiso   1.00
C1016  C     0.51393   0.98923   0.73619   0.00000  Uiso   1.00
C1017  C     0.48555   0.67845   0.76403   0.00000  Uiso   1.00
C1018  C     0.48965   0.72256   0.76016   0.00000  Uiso   1.00
C1019  C     0.51000   0.94464   0.74008   0.00000  Uiso   1.00
C1020  C     0.41034   0.84915   0.98836   0.00000  Uiso   1.00
C1021  C     0.51903   0.81509   0.62931   0.00000  Uiso   1.00
C1022  C     0.48161   0.85105   0.87098   0.00000  Uiso   1.00
C1023  C     0.58414   0.81362   0.51139   0.00000  Uiso   1.00
C1024  C     0.52866   0.80992   0.58077   0.00000  Uiso   1.00
C1025  C     0.42488   0.85574   0.94263   0.00000  Uiso   1.00
C1026  C     0.36931   0.88973   0.93595   0.00000  Uiso   1.00
C1027  C     0.35223   0.90314   0.89899   0.00000  Uiso   1.00
C1028  C     0.65380   0.93487   0.91728   0.00000  Uiso   1.00
C1029  C     0.43815   0.83986   0.51191   0.00000  Uiso   1.00
C1030  C     0.48215   0.83773   0.99088   0.00000  Uiso   1.00
C1031  C     0.49773   0.84647   0.94503   0.00000  Uiso   1.00
C1032  C     0.51115   0.82660   0.51366   0.00000  Uiso   1.00
C1033  C     0.55498   0.82482   0.99012   0.00000  Uiso   1.00
C1034  C     0.56995   0.83604   0.94615   0.00000  Uiso   1.00
C1035  C     0.54214   0.84793   0.92441   0.00000  Uiso   1.00
H1036  H     0.59475   0.80093   0.57335   0.00000  Uiso   1.00
H1037  H     0.55616   0.85850   0.89117   0.00000  Uiso   1.00
H1038  H     0.34936   0.86035   0.70907   0.00000  Uiso   1.00
H1039  H     0.38716   0.91772   0.94977   0.00000  Uiso   1.00
H1040  H     0.34154   0.87720   0.96280   0.00000  Uiso   1.00
H1041  H     0.37960   0.91711   0.87266   0.00000  Uiso   1.00
H1042  H     0.33596   0.87541   0.88333   0.00000  Uiso   1.00
H1043  H     0.62586   0.92133   0.94324   0.00000  Uiso   1.00
H1044  H     0.64193   0.94374   0.88965   0.00000  Uiso   1.00
H1045  H     0.33640   0.96333   0.93208   0.00000  Uiso   1.00
H1046  H     0.65220   0.80733   0.79125   0.00000  Uiso   1.00
H1047  H     0.54011   0.67048   0.71050   0.00000  Uiso   1.00
H1048  H     0.45912   0.99797   0.78996   0.00000  Uiso   1.00
H1049  H     0.60361   0.83628   0.92863   0.00000  Uiso   1.00
H1050  H     0.61753   0.81217   0.99356   0.00000  Uiso   1.00
H1051  H     0.46672   0.82149   0.58023   0.00000  Uiso   1.00
H1052  H     0.42373   0.83371   0.54643   0.00000  Uiso   1.00
H1053  H     0.37665   0.84890   0.50555   0.00000  Uiso   1.00
O1054  O     0.50000   0.83333   0.75000   0.00000  Uiso   1.00
O1055  O     0.48784   0.79304   0.65458   0.00000  Uiso   1.00
O1056  O     0.46274   0.87058   0.84968   0.00000  Uiso   1.00
O1057  O     0.54157   0.84425   0.64606   0.00000  Uiso   1.00
O1058  O     0.50785   0.82546   0.84968   0.00000  Uiso   1.00
O1059  O     0.39591   0.85819   0.91755   0.00000  Uiso   1.00
O1060  O     0.51264   0.74686   0.78213   0.00000  Uiso   1.00
O1061  O     0.47965   0.92751   0.77013   0.00000  Uiso   1.00
O1062  O     0.40745   0.79958   0.73413   0.00000  Uiso   1.00
O1063  O     0.60026   0.85939   0.71360   0.00000  Uiso   1.00
O1064  O     0.40405   0.85544   0.78213   0.00000  Uiso   1.00
O1065  O     0.58824   0.81892   0.77013   0.00000  Uiso   1.00
O1066  O     0.47093   0.73610   0.73413   0.00000  Uiso   1.00
O1067  O     0.53678   0.92286   0.71360   0.00000  Uiso   1.00
Zn1068 Zn    0.52672   0.80661   0.78734   0.00000  Uiso   1.00
Zn1069 Zn    0.46713   0.79124   0.71875   0.00000  Uiso   1.00
Zn1070 Zn    0.54389   0.86442   0.70657   0.00000  Uiso   1.00
Zn1071 Zn    0.46226   0.87106   0.78733   0.00000  Uiso   1.00
C1072  C     0.71945   0.82646   0.76001   0.00000  Uiso   1.00
C1073  C     0.83191   0.81837   0.55940   0.00000  Uiso   1.00
C1074  C     0.90446   0.80667   0.55659   0.00000  Uiso   1.00
C1075  C     0.94754   0.84053   0.73993   0.00000  Uiso   1.00
C1076  C     0.80190   0.85312   0.92047   0.00000  Uiso   1.00
C1077  C     0.99348   0.84313   0.73560   0.00000  Uiso   1.00
C1078  C     0.67411   0.82428   0.76416   0.00000  Uiso   1.00
C1079  C     0.84726   0.98923   0.73619   0.00000  Uiso   1.00
C1080  C     0.81889   0.67845   0.76403   0.00000  Uiso   1.00
C1081  C     0.82298   0.72256   0.76016   0.00000  Uiso   1.00
C1082  C     0.84334   0.94464   0.74008   0.00000  Uiso   1.00
C1083  C     0.74368   0.84915   0.98836   0.00000  Uiso   1.00
C1084  C     0.85237   0.81509   0.62931   0.00000  Uiso   1.00
C1085  C     0.81495   0.85105   0.87098   0.00000  Uiso   1.00
C1086  C     0.91747   0.81362   0.51139   0.00000  Uiso   1.00
C1087  C     0.86199   0.80992   0.58077   0.00000  Uiso   1.00
C1088  C     0.75821   0.85574   0.94263   0.00000  Uiso   1.00
C1089  C     0.70264   0.88973   0.93595   0.00000  Uiso   1.00
C1090  C     0.68557   0.90314   0.89899   0.00000  Uiso   1.00
C1091  C     0.98714   0.93487   0.91728   0.00000  Uiso   1.00
C1092  C     0.77149   0.83986   0.51191   0.00000  Uiso   1.00
C1093  C     0.81549   0.83773   0.99088   0.00000  Uiso   1.00
C1094  C     0.83106   0.84647   0.94503   0.00000  Uiso   1.00
C1095  C     0.84448   0.82660   0.51366   0.00000  Uiso   1.00
C1096  C     0.88831   0.82482   0.99012   0.00000  Uiso   1.00
C1097  C     0.90328   0.83604   0.94615   0.00000  Uiso   1.00
C1098  C     0.87548   0.84793   0.92441   0.00000  Uiso   1.00
H1099  H     0.92808   0.80093   0.57335   0.00000  Uiso   1.00
H1100  H     0.88950   0.85850   0.89117   0.00000  Uiso   1.00
H1101  H     0.68270   0.86035   0.70907   0.00000  Uiso   1.00
H1102  H     0.72049   0.91772   0.94977   0.00000  Uiso   1.00
H1103  H     0.67488   0.87720   0.96280   0.00000  Uiso   1.00
H1104  H     0.71293   0.91711   0.87266   0.00000  Uiso   1.00
H1105  H     0.66929   0.87541   0.88333   0.00000  Uiso   1.00
H1106  H     0.95919   0.92133   0.94324   0.00000  Uiso   1.00
H1107  H     0.97526   0.94374   0.88965   0.00000  Uiso   1.00
H1108  H     0.66973   0.96333   0.93208   0.00000  Uiso   1.00
H1109  H     0.98554   0.80733   0.79125   0.00000  Uiso   1.00
H1110  H     0.87344   0.67048   0.71050   0.00000  Uiso   1.00
H1111  H     0.79245   0.99797   0.78996   0.00000  Uiso   1.00
H1112  H     0.93695   0.83628   0.92863   0.00000  Uiso   1.00
H1113  H     0.95087   0.81217   0.99356   0.00000  Uiso   1.00
H1114  H     0.80005   0.82149   0.58023   0.00000  Uiso   1.00
H1115  H     0.75707   0.83371   0.54643   0.00000  Uiso   1.00
H1116  H     0.70998   0.84890   0.50555   0.00000  Uiso   1.00
O1117  O     0.83333   0.83333   0.75000   0.00000  Uiso   1.00
O1118  O     0.82118   0.79304   0.65458   0.00000  Uiso   1.00
O1119  O     0.79607   0.87058   0.84968   0.00000  Uiso   1.00
O1120  O     0.87491   0.84425   0.64606   0.00000  Uiso   1.00
O1121  O     0.84118   0.82546   0.84968   0.00000  Uiso   1.00
O1122  O     0.72924   0.85819   0.91755   0.00000  Uiso   1.00
O1123  O     0.84597   0.74686   0.78213   0.00000  Uiso   1.00
O1124  O     0.81298   0.92751   0.77013   0.00000  Uiso   1.00
O1125  O     0.74078   0.79958   0.73413   0.00000  Uiso   1.00
O1126  O     0.93360   0.85939   0.71360   0.00000  Uiso   1.00
O1127  O     0.73738   0.85544   0.78213   0.00000  Uiso   1.00
O1128  O     0.92158   0.81892   0.77013   0.00000  Uiso   1.00
O1129  O     0.80426   0.73610   0.73413   0.00000  Uiso   1.00
O1130  O     0.87012   0.92286   0.71360   0.00000  Uiso   1.00
Zn1131 Zn    0.86005   0.80661   0.78734   0.00000  Uiso   1.00
Zn1132 Zn    0.80046   0.79124   0.71875   0.00000  Uiso   1.00
Zn1133 Zn    0.87723   0.86442   0.70657   0.00000  Uiso   1.00
Zn1134 Zn    0.79560   0.87106   0.78733   0.00000  Uiso   1.00
loop_
_geom_bond_atom_site_label_1
_geom_bond_atom_site_label_2
_geom_bond_distance
_geom_bond_site_symmetry_2
_ccdc_geom_bond_type
C1     O54     1.274   .     A
C1     C7      1.437   .     S
C1     O56     1.272   .     A
C2     C16     1.393   .     A
C2     H43     1.077   .     S
C2     C24     1.412   .     A
C3     H28     1.084   .     S
C3     C15     1.386   .     A
C3     C16     1.397   .     A
C4     O55     1.280   .     A
C4     C6      1.455   .     S
C4     O57     1.275   .     A
C5     C23     1.419   .     A
C5     C14     1.478   .     S
C5     C17     1.414   .     A
C6     C70     1.335   .     S
C6     H93     1.088   .     S
C7     C132    1.335   1_455 S
C7     H164    1.086   1_455 S
C8     C11     1.451   .     S
C8     C198    1.332   .     S
C8     H228    1.088   .     S
C9     C10     1.435   .     S
C9     C386    1.332   1_545 S
C9     H418    1.086   1_545 S
C10    O52     1.279   .     A
C10    O58     1.280   .     A
C11    O59     1.269   .     A
C11    O53     1.269   .     A
C12    C17     1.401   .     A
C12    C588    1.389   .     S
C12    H612    1.082   .     S
C13    O49     1.267   .     A
C13    C16     1.452   .     S
C13    O47     1.280   .     A
C14    O50     1.283   .     A
C14    O48     1.281   .     A
C15    C592    1.400   1_554 S
C15    H609    1.084   1_554 S
C17    O51     1.390   .     S
C18    H31     1.117   .     S
C18    O51     1.413   .     S
C18    H32     1.112   .     S
C18    C19     1.529   .     S
C19    H33     1.112   .     S
C19    H34     1.112   .     S
C19    C146    1.526   1_455 S
C20    H36     1.110   .     S
C20    H35     1.111   .     S
C20    C82     1.526   .     S
C20    H100    1.111   .     S
C21    H44     1.076   .     S
C21    C579    1.389   1_554 S
C21    C589    1.413   1_554 S
C22    C23     1.422   .     A
C22    C588    1.413   .     S
C22    C591    1.426   .     S
C23    C27     1.411   .     A
C24    C589    1.426   1_554 S
C24    C592    1.424   1_554 S
C25    C26     1.390   .     A
C25    C582    1.400   .     S
C25    C591    1.424   .     S
C26    C27     1.382   .     A
C26    H41     1.083   .     S
C27    H29     1.081   .     S
H30    C132    1.088   1_455 S
H37    C146    1.111   1_455 S
H38    C70     1.086   .     S
H39    C386    1.088   1_545 S
H40    C198    1.086   .     S
H42    C582    1.084   .     S
H45    C579    1.082   1_554 S
O46    Zn63    1.932   .     S
O46    Zn62    1.926   .     S
O46    Zn61    1.951   .     S
O46    Zn60    1.958   .     S
O47    Zn61    1.930   .     S
O48    Zn63    1.943   .     S
O49    Zn62    1.943   .     S
O50    Zn60    1.930   .     S
O52    Zn60    1.929   .     S
O53    Zn63    1.927   .     S
O54    Zn61    1.924   .     S
O55    Zn62    1.936   .     S
O56    Zn63    1.933   .     S
O57    Zn60    1.920   .     S
O58    Zn61    1.932   .     S
O59    Zn62    1.930   .     S
C64    O117    1.274   .     A
C64    C70     1.437   .     S
C64    O119    1.272   .     A
C65    C79     1.393   .     A
C65    H106    1.077   .     S
C65    C87     1.412   .     A
C66    H91     1.084   .     S
C66    C78     1.386   .     A
C66    C79     1.397   .     A
C67    O118    1.280   .     A
C67    C69     1.455   .     S
C67    O120    1.275   .     A
C68    C86     1.419   .     A
C68    C77     1.478   .     S
C68    C80     1.414   .     A
C69    C133    1.335   .     S
C69    H156    1.088   .     S
C71    C74     1.451   .     S
C71    C261    1.332   .     S
C71    H291    1.088   .     S
C72    C73     1.435   .     S
C72    C449    1.332   1_545 S
C72    H481    1.086   1_545 S
C73    O115    1.279   .     A
C73    O121    1.280   .     A
C74    O122    1.269   .     A
C74    O116    1.269   .     A
C75    C80     1.401   .     A
C75    C651    1.389   .     S
C75    H675    1.082   .     S
C76    O112    1.267   .     A
C76    C79     1.452   .     S
C76    O110    1.280   .     A
C77    O113    1.283   .     A
C77    O111    1.281   .     A
C78    C655    1.400   1_554 S
C78    H672    1.084   1_554 S
C80    O114    1.390   .     S
C81    H94     1.117   .     S
C81    O114    1.413   .     S
C81    H95     1.112   .     S
C81    C82     1.529   .     S
C82    H96     1.112   .     S
C82    H97     1.112   .     S
C83    H99     1.110   .     S
C83    H98     1.111   .     S
C83    C145    1.526   .     S
C83    H163    1.111   .     S
C84    H107    1.076   .     S
C84    C642    1.389   1_554 S
C84    C652    1.413   1_554 S
C85    C86     1.422   .     A
C85    C651    1.413   .     S
C85    C654    1.426   .     S
C86    C90     1.411   .     A
C87    C652    1.426   1_554 S
C87    C655    1.424   1_554 S
C88    C89     1.390   .     A
C88    C645    1.400   .     S
C88    C654    1.424   .     S
C89    C90     1.382   .     A
C89    H104    1.083   .     S
C90    H92     1.081   .     S
H101   C133    1.086   .     S
H102   C449    1.088   1_545 S
H103   C261    1.086   .     S
H105   C645    1.084   .     S
H108   C642    1.082   1_554 S
O109   Zn126   1.932   .     S
O109   Zn125   1.926   .     S
O109   Zn124   1.951   .     S
O109   Zn123   1.958   .     S
O110   Zn124   1.930   .     S
O111   Zn126   1.943   .     S
O112   Zn125   1.943   .     S
O113   Zn123   1.930   .     S
O115   Zn123   1.929   .     S
O116   Zn126   1.927   .     S
O117   Zn124   1.924   .     S
O118   Zn125   1.936   .     S
O119   Zn126   1.933   .     S
O120   Zn123   1.920   .     S
O121   Zn124   1.932   .     S
O122   Zn125   1.930   .     S
C127   O180    1.274   .     A
C127   C133    1.437   .     S
C127   O182    1.272   .     A
C128   C142    1.393   .     A
C128   H169    1.077   .     S
C128   C150    1.412   .     A
C129   H154    1.084   .     S
C129   C141    1.386   .     A
C129   C142    1.397   .     A
C130   O181    1.280   .     A
C130   C132    1.455   .     S
C130   O183    1.275   .     A
C131   C149    1.419   .     A
C131   C140    1.478   .     S
C131   C143    1.414   .     A
C132   C7      1.335   1_655 S
C132   H30     1.088   1_655 S
C134   C137    1.451   .     S
C134   C324    1.332   .     S
C134   H354    1.088   .     S
C135   C136    1.435   .     S
C135   C512    1.332   1_545 S
C135   H544    1.086   1_545 S
C136   O178    1.279   .     A
C136   O184    1.280   .     A
C137   O185    1.269   .     A
C137   O179    1.269   .     A
C138   C143    1.401   .     A
C138   C714    1.389   .     S
C138   H738    1.082   .     S
C139   O175    1.267   .     A
C139   C142    1.452   .     S
C139   O173    1.280   .     A
C140   O176    1.283   .     A
C140   O174    1.281   .     A
C141   C718    1.400   1_554 S
C141   H735    1.084   1_554 S
C143   O177    1.390   .     S
C144   H157    1.117   .     S
C144   O177    1.413   .     S
C144   H158    1.112   .     S
C144   C145    1.529   .     S
C145   H159    1.112   .     S
C145   H160    1.112   .     S
C146   H162    1.110   .     S
C146   H161    1.111   .     S
C146   C19     1.526   1_655 S
C146   H37     1.111   1_655 S
C147   H170    1.076   .     S
C147   C705    1.389   1_554 S
C147   C715    1.413   1_554 S
C148   C149    1.422   .     A
C148   C714    1.413   .     S
C148   C717    1.426   .     S
C149   C153    1.411   .     A
C150   C715    1.426   1_554 S
C150   C718    1.424   1_554 S
C151   C152    1.390   .     A
C151   C708    1.400   .     S
C151   C717    1.424   .     S
C152   C153    1.382   .     A
C152   H167    1.083   .     S
C153   H155    1.081   .     S
H164   C7      1.086   1_655 S
H165   C512    1.088   1_545 S
H166   C324    1.086   .     S
H168   C708    1.084   .     S
H171   C705    1.082   1_554 S
O172   Zn189   1.932   .     S
O172   Zn188   1.926   .     S
O172   Zn187   1.951   .     S
O172   Zn186   1.958   .     S
O173   Zn187   1.930   .     S
O174   Zn189   1.943   .     S
O175   Zn188   1.943   .     S
O176   Zn186   1.930   .     S
O178   Zn186   1.929   .     S
O179   Zn189   1.927   .     S
O180   Zn187   1.924   .     S
O181   Zn188   1.936   .     S
O182   Zn189   1.933   .     S
O183   Zn186   1.920   .     S
O184   Zn187   1.932   .     S
O185   Zn188   1.930   .     S
C190   O243    1.274   .     A
C190   C196    1.437   .     S
C190   O245    1.272   .     A
C191   C205    1.393   .     A
C191   H232    1.077   .     S
C191   C213    1.412   .     A
C192   H217    1.084   .     S
C192   C204    1.386   .     A
C192   C205    1.397   .     A
C193   O244    1.280   .     A
C193   C195    1.455   .     S
C193   O246    1.275   .     A
C194   C212    1.419   .     A
C194   C203    1.478   .     S
C194   C206    1.414   .     A
C195   C259    1.335   .     S
C195   H282    1.088   .     S
C196   C321    1.335   1_455 S
C196   H353    1.086   1_455 S
C197   C200    1.451   .     S
C197   C387    1.332   .     S
C197   H417    1.088   .     S
C198   C199    1.435   .     S
C199   O241    1.279   .     A
C199   O247    1.280   .     A
C200   O248    1.269   .     A
C200   O242    1.269   .     A
C201   C206    1.401   .     A
C201   C777    1.389   .     S
C201   H801    1.082   .     S
C202   O238    1.267   .     A
C202   C205    1.452   .     S
C202   O236    1.280   .     A
C203   O239    1.283   .     A
C203   O237    1.281   .     A
C204   C781    1.400   1_554 S
C204   H798    1.084   1_554 S
C206   O240    1.390   .     S
C207   H220    1.117   .     S
C207   O240    1.413   .     S
C207   H221    1.112   .     S
C207   C208    1.529   .     S
C208   H222    1.112   .     S
C208   H223    1.112   .     S
C208   C335    1.526   1_455 S
C209   H225    1.110   .     S
C209   H224    1.111   .     S
C209   C271    1.526   .     S
C209   H289    1.111   .     S
C210   H233    1.076   .     S
C210   C768    1.389   1_554 S
C210   C778    1.413   1_554 S
C211   C212    1.422   .     A
C211   C777    1.413   .     S
C211   C780    1.426   .     S
C212   C216    1.411   .     A
C213   C778    1.426   1_554 S
C213   C781    1.424   1_554 S
C214   C215    1.390   .     A
C214   C771    1.400   .     S
C214   C780    1.424   .     S
C215   C216    1.382   .     A
C215   H230    1.083   .     S
C216   H218    1.081   .     S
H219   C321    1.088   1_455 S
H226   C335    1.111   1_455 S
H227   C259    1.086   .     S
H229   C387    1.086   .     S
H231   C771    1.084   .     S
H234   C768    1.082   1_554 S
O235   Zn252   1.932   .     S
O235   Zn251   1.926   .     S
O235   Zn250   1.951   .     S
O235   Zn249   1.958   .     S
O236   Zn250   1.930   .     S
O237   Zn252   1.943   .     S
O238   Zn251   1.943   .     S
O239   Zn249   1.930   .     S
O241   Zn249   1.929   .     S
O242   Zn252   1.927   .     S
O243   Zn250   1.924   .     S
O244   Zn251   1.936   .     S
O245   Zn252   1.933   .     S
O246   Zn249   1.920   .     S
O247   Zn250   1.932   .     S
O248   Zn251   1.930   .     S
C253   O306    1.274   .     A
C253   C259    1.437   .     S
C253   O308    1.272   .     A
C254   C268    1.393   .     A
C254   H295    1.077   .     S
C254   C276    1.412   .     A
C255   H280    1.084   .     S
C255   C267    1.386   .     A
C255   C268    1.397   .     A
C256   O307    1.280   .     A
C256   C258    1.455   .     S
C256   O309    1.275   .     A
C257   C275    1.419   .     A
C257   C266    1.478   .     S
C257   C269    1.414   .     A
C258   C322    1.335   .     S
C258   H345    1.088   .     S
C260   C263    1.451   .     S
C260   C450    1.332   .     S
C260   H480    1.088   .     S
C261   C262    1.435   .     S
C262   O304    1.279   .     A
C262   O310    1.280   .     A
C263   O311    1.269   .     A
C263   O305    1.269   .     A
C264   C269    1.401   .     A
C264   C840    1.389   .     S
C264   H864    1.082   .     S
C265   O301    1.267   .     A
C265   C268    1.452   .     S
C265   O299    1.280   .     A
C266   O302    1.283   .     A
C266   O300    1.281   .     A
C267   C844    1.400   1_554 S
C267   H861    1.084   1_554 S
C269   O303    1.390   .     S
C270   H283    1.117   .     S
C270   O303    1.413   .     S
C270   H284    1.112   .     S
C270   C271    1.529   .     S
C271   H285    1.112   .     S
C271   H286    1.112   .     S
C272   H288    1.110   .     S
C272   H287    1.111   .     S
C272   C334    1.526   .     S
C272   H352    1.111   .     S
C273   H296    1.076   .     S
C273   C831    1.389   1_554 S
C273   C841    1.413   1_554 S
C274   C275    1.422   .     A
C274   C840    1.413   .     S
C274   C843    1.426   .     S
C275   C279    1.411   .     A
C276   C841    1.426   1_554 S
C276   C844    1.424   1_554 S
C277   C278    1.390   .     A
C277   C834    1.400   .     S
C277   C843    1.424   .     S
C278   C279    1.382   .     A
C278   H293    1.083   .     S
C279   H281    1.081   .     S
H290   C322    1.086   .     S
H292   C450    1.086   .     S
H294   C834    1.084   .     S
H297   C831    1.082   1_554 S
O298   Zn315   1.932   .     S
O298   Zn314   1.926   .     S
O298   Zn313   1.951   .     S
O298   Zn312   1.958   .     S
O299   Zn313   1.930   .     S
O300   Zn315   1.943   .     S
O301   Zn314   1.943   .     S
O302   Zn312   1.930   .     S
O304   Zn312   1.929   .     S
O305   Zn315   1.927   .     S
O306   Zn313   1.924   .     S
O307   Zn314   1.936   .     S
O308   Zn315   1.933   .     S
O309   Zn312   1.920   .     S
O310   Zn313   1.932   .     S
O311   Zn314   1.930   .     S
C316   O369    1.274   .     A
C316   C322    1.437   .     S
C316   O371    1.272   .     A
C317   C331    1.393   .     A
C317   H358    1.077   .     S
C317   C339    1.412   .     A
C318   H343    1.084   .     S
C318   C330    1.386   .     A
C318   C331    1.397   .     A
C319   O370    1.280   .     A
C319   C321    1.455   .     S
C319   O372    1.275   .     A
C320   C338    1.419   .     A
C320   C329    1.478   .     S
C320   C332    1.414   .     A
C321   C196    1.335   1_655 S
C321   H219    1.088   1_655 S
C323   C326    1.451   .     S
C323   C513    1.332   .     S
C323   H543    1.088   .     S
C324   C325    1.435   .     S
C325   O367    1.279   .     A
C325   O373    1.280   .     A
C326   O374    1.269   .     A
C326   O368    1.269   .     A
C327   C332    1.401   .     A
C327   C903    1.389   .     S
C327   H927    1.082   .     S
C328   O364    1.267   .     A
C328   C331    1.452   .     S
C328   O362    1.280   .     A
C329   O365    1.283   .     A
C329   O363    1.281   .     A
C330   C907    1.400   1_554 S
C330   H924    1.084   1_554 S
C332   O366    1.390   .     S
C333   H346    1.117   .     S
C333   O366    1.413   .     S
C333   H347    1.112   .     S
C333   C334    1.529   .     S
C334   H348    1.112   .     S
C334   H349    1.112   .     S
C335   H351    1.110   .     S
C335   H350    1.111   .     S
C335   C208    1.526   1_655 S
C335   H226    1.111   1_655 S
C336   H359    1.076   .     S
C336   C894    1.389   1_554 S
C336   C904    1.413   1_554 S
C337   C338    1.422   .     A
C337   C903    1.413   .     S
C337   C906    1.426   .     S
C338   C342    1.411   .     A
C339   C904    1.426   1_554 S
C339   C907    1.424   1_554 S
C340   C341    1.390   .     A
C340   C897    1.400   .     S
C340   C906    1.424   .     S
C341   C342    1.382   .     A
C341   H356    1.083   .     S
C342   H344    1.081   .     S
H353   C196    1.086   1_655 S
H355   C513    1.086   .     S
H357   C897    1.084   .     S
H360   C894    1.082   1_554 S
O361   Zn378   1.932   .     S
O361   Zn377   1.926   .     S
O361   Zn376   1.951   .     S
O361   Zn375   1.958   .     S
O362   Zn376   1.930   .     S
O363   Zn378   1.943   .     S
O364   Zn377   1.943   .     S
O365   Zn375   1.930   .     S
O367   Zn375   1.929   .     S
O368   Zn378   1.927   .     S
O369   Zn376   1.924   .     S
O370   Zn377   1.936   .     S
O371   Zn378   1.933   .     S
O372   Zn375   1.920   .     S
O373   Zn376   1.932   .     S
O374   Zn377   1.930   .     S
C379   O432    1.274   .     A
C379   C385    1.437   .     S
C379   O434    1.272   .     A
C380   C394    1.393   .     A
C380   H421    1.077   .     S
C380   C402    1.412   .     A
C381   H406    1.084   .     S
C381   C393    1.386   .     A
C381   C394    1.397   .     A
C382   O433    1.280   .     A
C382   C384    1.455   .     S
C382   O435    1.275   .     A
C383   C401    1.419   .     A
C383   C392    1.478   .     S
C383   C395    1.414   .     A
C384   C448    1.335   .     S
C384   H471    1.088   .     S
C385   C510    1.335   1_455 S
C385   H542    1.086   1_455 S
C386   C389    1.451   .     S
C386   C9      1.332   1_565 S
C386   H39     1.088   1_565 S
C387   C388    1.435   .     S
C388   O430    1.279   .     A
C388   O436    1.280   .     A
C389   O437    1.269   .     A
C389   O431    1.269   .     A
C390   C395    1.401   .     A
C390   C966    1.389   .     S
C390   H990    1.082   .     S
C391   O427    1.267   .     A
C391   C394    1.452   .     S
C391   O425    1.280   .     A
C392   O428    1.283   .     A
C392   O426    1.281   .     A
C393   C970    1.400   1_554 S
C393   H987    1.084   1_554 S
C395   O429    1.390   .     S
C396   H409    1.117   .     S
C396   O429    1.413   .     S
C396   H410    1.112   .     S
C396   C397    1.529   .     S
C397   H411    1.112   .     S
C397   H412    1.112   .     S
C397   C524    1.526   1_455 S
C398   H414    1.110   .     S
C398   H413    1.111   .     S
C398   C460    1.526   .     S
C398   H478    1.111   .     S
C399   H422    1.076   .     S
C399   C957    1.389   1_554 S
C399   C967    1.413   1_554 S
C400   C401    1.422   .     A
C400   C966    1.413   .     S
C400   C969    1.426   .     S
C401   C405    1.411   .     A
C402   C967    1.426   1_554 S
C402   C970    1.424   1_554 S
C403   C404    1.390   .     A
C403   C960    1.400   .     S
C403   C969    1.424   .     S
C404   C405    1.382   .     A
C404   H419    1.083   .     S
C405   H407    1.081   .     S
H408   C510    1.088   1_455 S
H415   C524    1.111   1_455 S
H416   C448    1.086   .     S
H418   C9      1.086   1_565 S
H420   C960    1.084   .     S
H423   C957    1.082   1_554 S
O424   Zn441   1.932   .     S
O424   Zn440   1.926   .     S
O424   Zn439   1.951   .     S
O424   Zn438   1.958   .     S
O425   Zn439   1.930   .     S
O426   Zn441   1.943   .     S
O427   Zn440   1.943   .     S
O428   Zn438   1.930   .     S
O430   Zn438   1.929   .     S
O431   Zn441   1.927   .     S
O432   Zn439   1.924   .     S
O433   Zn440   1.936   .     S
O434   Zn441   1.933   .     S
O435   Zn438   1.920   .     S
O436   Zn439   1.932   .     S
O437   Zn440   1.930   .     S
C442   O495    1.274   .     A
C442   C448    1.437   .     S
C442   O497    1.272   .     A
C443   C457    1.393   .     A
C443   H484    1.077   .     S
C443   C465    1.412   .     A
C444   H469    1.084   .     S
C444   C456    1.386   .     A
C444   C457    1.397   .     A
C445   O496    1.280   .     A
C445   C447    1.455   .     S
C445   O498    1.275   .     A
C446   C464    1.419   .     A
C446   C455    1.478   .     S
C446   C458    1.414   .     A
C447   C511    1.335   .     S
C447   H534    1.088   .     S
C449   C452    1.451   .     S
C449   C72     1.332   1_565 S
C449   H102    1.088   1_565 S
C450   C451    1.435   .     S
C451   O493    1.279   .     A
C451   O499    1.280   .     A
C452   O500    1.269   .     A
C452   O494    1.269   .     A
C453   C458    1.401   .     A
C453   C1029   1.389   .     S
C453   H1053   1.082   .     S
C454   O490    1.267   .     A
C454   C457    1.452   .     S
C454   O488    1.280   .     A
C455   O491    1.283   .     A
C455   O489    1.281   .     A
C456   C1033   1.400   1_554 S
C456   H1050   1.084   1_554 S
C458   O492    1.390   .     S
C459   H472    1.117   .     S
C459   O492    1.413   .     S
C459   H473    1.112   .     S
C459   C460    1.529   .     S
C460   H474    1.112   .     S
C460   H475    1.112   .     S
C461   H477    1.110   .     S
C461   H476    1.111   .     S
C461   C523    1.526   .     S
C461   H541    1.111   .     S
C462   H485    1.076   .     S
C462   C1020   1.389   1_554 S
C462   C1030   1.413   1_554 S
C463   C464    1.422   .     A
C463   C1029   1.413   .     S
C463   C1032   1.426   .     S
C464   C468    1.411   .     A
C465   C1030   1.426   1_554 S
C465   C1033   1.424   1_554 S
C466   C467    1.390   .     A
C466   C1023   1.400   .     S
C466   C1032   1.424   .     S
C467   C468    1.382   .     A
C467   H482    1.083   .     S
C468   H470    1.081   .     S
H479   C511    1.086   .     S
H481   C72     1.086   1_565 S
H483   C1023   1.084   .     S
H486   C1020   1.082   1_554 S
O487   Zn504   1.932   .     S
O487   Zn503   1.926   .     S
O487   Zn502   1.951   .     S
O487   Zn501   1.958   .     S
O488   Zn502   1.930   .     S
O489   Zn504   1.943   .     S
O490   Zn503   1.943   .     S
O491   Zn501   1.930   .     S
O493   Zn501   1.929   .     S
O494   Zn504   1.927   .     S
O495   Zn502   1.924   .     S
O496   Zn503   1.936   .     S
O497   Zn504   1.933   .     S
O498   Zn501   1.920   .     S
O499   Zn502   1.932   .     S
O500   Zn503   1.930   .     S
C505   O558    1.274   .     A
C505   C511    1.437   .     S
C505   O560    1.272   .     A
C506   C520    1.393   .     A
C506   H547    1.077   .     S
C506   C528    1.412   .     A
C507   H532    1.084   .     S
C507   C519    1.386   .     A
C507   C520    1.397   .     A
C508   O559    1.280   .     A
C508   C510    1.455   .     S
C508   O561    1.275   .     A
C509   C527    1.419   .     A
C509   C518    1.478   .     S
C509   C521    1.414   .     A
C510   C385    1.335   1_655 S
C510   H408    1.088   1_655 S
C512   C515    1.451   .     S
C512   C135    1.332   1_565 S
C512   H165    1.088   1_565 S
C513   C514    1.435   .     S
C514   O556    1.279   .     A
C514   O562    1.280   .     A
C515   O563    1.269   .     A
C515   O557    1.269   .     A
C516   C521    1.401   .     A
C516   C1092   1.389   .     S
C516   H1116   1.082   .     S
C517   O553    1.267   .     A
C517   C520    1.452   .     S
C517   O551    1.280   .     A
C518   O554    1.283   .     A
C518   O552    1.281   .     A
C519   C1096   1.400   1_554 S
C519   H1113   1.084   1_554 S
C521   O555    1.390   .     S
C522   H535    1.117   .     S
C522   O555    1.413   .     S
C522   H536    1.112   .     S
C522   C523    1.529   .     S
C523   H537    1.112   .     S
C523   H538    1.112   .     S
C524   H540    1.110   .     S
C524   H539    1.111   .     S
C524   C397    1.526   1_655 S
C524   H415    1.111   1_655 S
C525   H548    1.076   .     S
C525   C1083   1.389   1_554 S
C525   C1093   1.413   1_554 S
C526   C527    1.422   .     A
C526   C1092   1.413   .     S
C526   C1095   1.426   .     S
C527   C531    1.411   .     A
C528   C1093   1.426   1_554 S
C528   C1096   1.424   1_554 S
C529   C530    1.390   .     A
C529   C1086   1.400   .     S
C529   C1095   1.424   .     S
C530   C531    1.382   .     A
C530   H545    1.083   .     S
C531   H533    1.081   .     S
H542   C385    1.086   1_655 S
H544   C135    1.086   1_565 S
H546   C1086   1.084   .     S
H549   C1083   1.082   1_554 S
O550   Zn567   1.932   .     S
O550   Zn566   1.926   .     S
O550   Zn565   1.951   .     S
O550   Zn564   1.958   .     S
O551   Zn565   1.930   .     S
O552   Zn567   1.943   .     S
O553   Zn566   1.943   .     S
O554   Zn564   1.930   .     S
O556   Zn564   1.929   .     S
O557   Zn567   1.927   .     S
O558   Zn565   1.924   .     S
O559   Zn566   1.936   .     S
O560   Zn567   1.933   .     S
O561   Zn564   1.920   .     S
O562   Zn565   1.932   .     S
O563   Zn566   1.930   .     S
C568   O621    1.274   .     A
C568   C574    1.437   .     S
C568   O623    1.272   .     A
C569   C583    1.393   .     A
C569   H610    1.077   .     S
C569   C591    1.412   .     A
C570   H595    1.084   .     S
C570   C582    1.386   .     A
C570   C583    1.397   .     A
C571   O622    1.280   .     A
C571   C573    1.455   .     S
C571   O624    1.275   .     A
C572   C590    1.419   .     A
C572   C581    1.478   .     S
C572   C584    1.414   .     A
C573   C637    1.335   .     S
C573   H660    1.088   .     S
C574   C699    1.335   1_455 S
C574   H731    1.086   1_455 S
C575   C578    1.451   .     S
C575   C765    1.332   .     S
C575   H795    1.088   .     S
C576   C577    1.435   .     S
C576   C953    1.332   1_545 S
C576   H985    1.086   1_545 S
C577   O619    1.279   .     A
C577   O625    1.280   .     A
C578   O626    1.269   .     A
C578   O620    1.269   .     A
C579   C584    1.401   .     A
C579   C21     1.389   1_556 S
C579   H45     1.082   1_556 S
C580   O616    1.267   .     A
C580   C583    1.452   .     S
C580   O614    1.280   .     A
C581   O617    1.283   .     A
C581   O615    1.281   .     A
C584   O618    1.390   .     S
C585   H598    1.117   .     S
C585   O618    1.413   .     S
C585   H599    1.112   .     S
C585   C586    1.529   .     S
C586   H600    1.112   .     S
C586   H601    1.112   .     S
C586   C713    1.526   1_455 S
C587   H603    1.110   .     S
C587   H602    1.111   .     S
C587   C649    1.526   .     S
C587   H667    1.111   .     S
C588   H611    1.076   .     S
C589   C590    1.422   .     A
C589   C21     1.413   1_556 S
C589   C24     1.426   1_556 S
C590   C594    1.411   .     A
C592   C593    1.390   .     A
C592   C15     1.400   1_556 S
C592   C24     1.424   1_556 S
C593   C594    1.382   .     A
C593   H608    1.083   .     S
C594   H596    1.081   .     S
H597   C699    1.088   1_455 S
H604   C713    1.111   1_455 S
H605   C637    1.086   .     S
H606   C953    1.088   1_545 S
H607   C765    1.086   .     S
H609   C15     1.084   1_556 S
O613   Zn630   1.932   .     S
O613   Zn629   1.926   .     S
O613   Zn628   1.951   .     S
O613   Zn627   1.958   .     S
O614   Zn628   1.930   .     S
O615   Zn630   1.943   .     S
O616   Zn629   1.943   .     S
O617   Zn627   1.930   .     S
O619   Zn627   1.929   .     S
O620   Zn630   1.927   .     S
O621   Zn628   1.924   .     S
O622   Zn629   1.936   .     S
O623   Zn630   1.933   .     S
O624   Zn627   1.920   .     S
O625   Zn628   1.932   .     S
O626   Zn629   1.930   .     S
C631   O684    1.274   .     A
C631   C637    1.437   .     S
C631   O686    1.272   .     A
C632   C646    1.393   .     A
C632   H673    1.077   .     S
C632   C654    1.412   .     A
C633   H658    1.084   .     S
C633   C645    1.386   .     A
C633   C646    1.397   .     A
C634   O685    1.280   .     A
C634   C636    1.455   .     S
C634   O687    1.275   .     A
C635   C653    1.419   .     A
C635   C644    1.478   .     S
C635   C647    1.414   .     A
C636   C700    1.335   .     S
C636   H723    1.088   .     S
C638   C641    1.451   .     S
C638   C828    1.332   .     S
C638   H858    1.088   .     S
C639   C640    1.435   .     S
C639   C1016   1.332   1_545 S
C639   H1048   1.086   1_545 S
C640   O682    1.279   .     A
C640   O688    1.280   .     A
C641   O689    1.269   .     A
C641   O683    1.269   .     A
C642   C647    1.401   .     A
C642   C84     1.389   1_556 S
C642   H108    1.082   1_556 S
C643   O679    1.267   .     A
C643   C646    1.452   .     S
C643   O677    1.280   .     A
C644   O680    1.283   .     A
C644   O678    1.281   .     A
C647   O681    1.390   .     S
C648   H661    1.117   .     S
C648   O681    1.413   .     S
C648   H662    1.112   .     S
C648   C649    1.529   .     S
C649   H663    1.112   .     S
C649   H664    1.112   .     S
C650   H666    1.110   .     S
C650   H665    1.111   .     S
C650   C712    1.526   .     S
C650   H730    1.111   .     S
C651   H674    1.076   .     S
C652   C653    1.422   .     A
C652   C84     1.413   1_556 S
C652   C87     1.426   1_556 S
C653   C657    1.411   .     A
C655   C656    1.390   .     A
C655   C78     1.400   1_556 S
C655   C87     1.424   1_556 S
C656   C657    1.382   .     A
C656   H671    1.083   .     S
C657   H659    1.081   .     S
H668   C700    1.086   .     S
H669   C1016   1.088   1_545 S
H670   C828    1.086   .     S
H672   C78     1.084   1_556 S
O676   Zn693   1.932   .     S
O676   Zn692   1.926   .     S
O676   Zn691   1.951   .     S
O676   Zn690   1.958   .     S
O677   Zn691   1.930   .     S
O678   Zn693   1.943   .     S
O679   Zn692   1.943   .     S
O680   Zn690   1.930   .     S
O682   Zn690   1.929   .     S
O683   Zn693   1.927   .     S
O684   Zn691   1.924   .     S
O685   Zn692   1.936   .     S
O686   Zn693   1.933   .     S
O687   Zn690   1.920   .     S
O688   Zn691   1.932   .     S
O689   Zn692   1.930   .     S
C694   O747    1.274   .     A
C694   C700    1.437   .     S
C694   O749    1.272   .     A
C695   C709    1.393   .     A
C695   H736    1.077   .     S
C695   C717    1.412   .     A
C696   H721    1.084   .     S
C696   C708    1.386   .     A
C696   C709    1.397   .     A
C697   O748    1.280   .     A
C697   C699    1.455   .     S
C697   O750    1.275   .     A
C698   C716    1.419   .     A
C698   C707    1.478   .     S
C698   C710    1.414   .     A
C699   C574    1.335   1_655 S
C699   H597    1.088   1_655 S
C701   C704    1.451   .     S
C701   C891    1.332   .     S
C701   H921    1.088   .     S
C702   C703    1.435   .     S
C702   C1079   1.332   1_545 S
C702   H1111   1.086   1_545 S
C703   O745    1.279   .     A
C703   O751    1.280   .     A
C704   O752    1.269   .     A
C704   O746    1.269   .     A
C705   C710    1.401   .     A
C705   C147    1.389   1_556 S
C705   H171    1.082   1_556 S
C706   O742    1.267   .     A
C706   C709    1.452   .     S
C706   O740    1.280   .     A
C707   O743    1.283   .     A
C707   O741    1.281   .     A
C710   O744    1.390   .     S
C711   H724    1.117   .     S
C711   O744    1.413   .     S
C711   H725    1.112   .     S
C711   C712    1.529   .     S
C712   H726    1.112   .     S
C712   H727    1.112   .     S
C713   H729    1.110   .     S
C713   H728    1.111   .     S
C713   C586    1.526   1_655 S
C713   H604    1.111   1_655 S
C714   H737    1.076   .     S
C715   C716    1.422   .     A
C715   C147    1.413   1_556 S
C715   C150    1.426   1_556 S
C716   C720    1.411   .     A
C718   C719    1.390   .     A
C718   C141    1.400   1_556 S
C718   C150    1.424   1_556 S
C719   C720    1.382   .     A
C719   H734    1.083   .     S
C720   H722    1.081   .     S
H731   C574    1.086   1_655 S
H732   C1079   1.088   1_545 S
H733   C891    1.086   .     S
H735   C141    1.084   1_556 S
O739   Zn756   1.932   .     S
O739   Zn755   1.926   .     S
O739   Zn754   1.951   .     S
O739   Zn753   1.958   .     S
O740   Zn754   1.930   .     S
O741   Zn756   1.943   .     S
O742   Zn755   1.943   .     S
O743   Zn753   1.930   .     S
O745   Zn753   1.929   .     S
O746   Zn756   1.927   .     S
O747   Zn754   1.924   .     S
O748   Zn755   1.936   .     S
O749   Zn756   1.933   .     S
O750   Zn753   1.920   .     S
O751   Zn754   1.932   .     S
O752   Zn755   1.930   .     S
C757   O810    1.274   .     A
C757   C763    1.437   .     S
C757   O812    1.272   .     A
C758   C772    1.393   .     A
C758   H799    1.077   .     S
C758   C780    1.412   .     A
C759   H784    1.084   .     S
C759   C771    1.386   .     A
C759   C772    1.397   .     A
C760   O811    1.280   .     A
C760   C762    1.455   .     S
C760   O813    1.275   .     A
C761   C779    1.419   .     A
C761   C770    1.478   .     S
C761   C773    1.414   .     A
C762   C826    1.335   .     S
C762   H849    1.088   .     S
C763   C888    1.335   1_455 S
C763   H920    1.086   1_455 S
C764   C767    1.451   .     S
C764   C954    1.332   .     S
C764   H984    1.088   .     S
C765   C766    1.435   .     S
C766   O808    1.279   .     A
C766   O814    1.280   .     A
C767   O815    1.269   .     A
C767   O809    1.269   .     A
C768   C773    1.401   .     A
C768   C210    1.389   1_556 S
C768   H234    1.082   1_556 S
C769   O805    1.267   .     A
C769   C772    1.452   .     S
C769   O803    1.280   .     A
C770   O806    1.283   .     A
C770   O804    1.281   .     A
C773   O807    1.390   .     S
C774   H787    1.117   .     S
C774   O807    1.413   .     S
C774   H788    1.112   .     S
C774   C775    1.529   .     S
C775   H789    1.112   .     S
C775   H790    1.112   .     S
C775   C902    1.526   1_455 S
C776   H792    1.110   .     S
C776   H791    1.111   .     S
C776   C838    1.526   .     S
C776   H856    1.111   .     S
C777   H800    1.076   .     S
C778   C779    1.422   .     A
C778   C210    1.413   1_556 S
C778   C213    1.426   1_556 S
C779   C783    1.411   .     A
C781   C782    1.390   .     A
C781   C204    1.400   1_556 S
C781   C213    1.424   1_556 S
C782   C783    1.382   .     A
C782   H797    1.083   .     S
C783   H785    1.081   .     S
H786   C888    1.088   1_455 S
H793   C902    1.111   1_455 S
H794   C826    1.086   .     S
H796   C954    1.086   .     S
H798   C204    1.084   1_556 S
O802   Zn819   1.932   .     S
O802   Zn818   1.926   .     S
O802   Zn817   1.951   .     S
O802   Zn816   1.958   .     S
O803   Zn817   1.930   .     S
O804   Zn819   1.943   .     S
O805   Zn818   1.943   .     S
O806   Zn816   1.930   .     S
O808   Zn816   1.929   .     S
O809   Zn819   1.927   .     S
O810   Zn817   1.924   .     S
O811   Zn818   1.936   .     S
O812   Zn819   1.933   .     S
O813   Zn816   1.920   .     S
O814   Zn817   1.932   .     S
O815   Zn818   1.930   .     S
C820   O873    1.274   .     A
C820   C826    1.437   .     S
C820   O875    1.272   .     A
C821   C835    1.393   .     A
C821   H862    1.077   .     S
C821   C843    1.412   .     A
C822   H847    1.084   .     S
C822   C834    1.386   .     A
C822   C835    1.397   .     A
C823   O874    1.280   .     A
C823   C825    1.455   .     S
C823   O876    1.275   .     A
C824   C842    1.419   .     A
C824   C833    1.478   .     S
C824   C836    1.414   .     A
C825   C889    1.335   .     S
C825   H912    1.088   .     S
C827   C830    1.451   .     S
C827   C1017   1.332   .     S
C827   H1047   1.088   .     S
C828   C829    1.435   .     S
C829   O871    1.279   .     A
C829   O877    1.280   .     A
C830   O878    1.269   .     A
C830   O872    1.269   .     A
C831   C836    1.401   .     A
C831   C273    1.389   1_556 S
C831   H297    1.082   1_556 S
C832   O868    1.267   .     A
C832   C835    1.452   .     S
C832   O866    1.280   .     A
C833   O869    1.283   .     A
C833   O867    1.281   .     A
C836   O870    1.390   .     S
C837   H850    1.117   .     S
C837   O870    1.413   .     S
C837   H851    1.112   .     S
C837   C838    1.529   .     S
C838   H852    1.112   .     S
C838   H853    1.112   .     S
C839   H855    1.110   .     S
C839   H854    1.111   .     S
C839   C901    1.526   .     S
C839   H919    1.111   .     S
C840   H863    1.076   .     S
C841   C842    1.422   .     A
C841   C273    1.413   1_556 S
C841   C276    1.426   1_556 S
C842   C846    1.411   .     A
C844   C845    1.390   .     A
C844   C267    1.400   1_556 S
C844   C276    1.424   1_556 S
C845   C846    1.382   .     A
C845   H860    1.083   .     S
C846   H848    1.081   .     S
H857   C889    1.086   .     S
H859   C1017   1.086   .     S
H861   C267    1.084   1_556 S
O865   Zn882   1.932   .     S
O865   Zn881   1.926   .     S
O865   Zn880   1.951   .     S
O865   Zn879   1.958   .     S
O866   Zn880   1.930   .     S
O867   Zn882   1.943   .     S
O868   Zn881   1.943   .     S
O869   Zn879   1.930   .     S
O871   Zn879   1.929   .     S
O872   Zn882   1.927   .     S
O873   Zn880   1.924   .     S
O874   Zn881   1.936   .     S
O875   Zn882   1.933   .     S
O876   Zn879   1.920   .     S
O877   Zn880   1.932   .     S
O878   Zn881   1.930   .     S
C883   O936    1.274   .     A
C883   C889    1.437   .     S
C883   O938    1.272   .     A
C884   C898    1.393   .     A
C884   H925    1.077   .     S
C884   C906    1.412   .     A
C885   H910    1.084   .     S
C885   C897    1.386   .     A
C885   C898    1.397   .     A
C886   O937    1.280   .     A
C886   C888    1.455   .     S
C886   O939    1.275   .     A
C887   C905    1.419   .     A
C887   C896    1.478   .     S
C887   C899    1.414   .     A
C888   C763    1.335   1_655 S
C888   H786    1.088   1_655 S
C890   C893    1.451   .     S
C890   C1080   1.332   .     S
C890   H1110   1.088   .     S
C891   C892    1.435   .     S
C892   O934    1.279   .     A
C892   O940    1.280   .     A
C893   O941    1.269   .     A
C893   O935    1.269   .     A
C894   C899    1.401   .     A
C894   C336    1.389   1_556 S
C894   H360    1.082   1_556 S
C895   O931    1.267   .     A
C895   C898    1.452   .     S
C895   O929    1.280   .     A
C896   O932    1.283   .     A
C896   O930    1.281   .     A
C899   O933    1.390   .     S
C900   H913    1.117   .     S
C900   O933    1.413   .     S
C900   H914    1.112   .     S
C900   C901    1.529   .     S
C901   H915    1.112   .     S
C901   H916    1.112   .     S
C902   H918    1.110   .     S
C902   H917    1.111   .     S
C902   C775    1.526   1_655 S
C902   H793    1.111   1_655 S
C903   H926    1.076   .     S
C904   C905    1.422   .     A
C904   C336    1.413   1_556 S
C904   C339    1.426   1_556 S
C905   C909    1.411   .     A
C907   C908    1.390   .     A
C907   C330    1.400   1_556 S
C907   C339    1.424   1_556 S
C908   C909    1.382   .     A
C908   H923    1.083   .     S
C909   H911    1.081   .     S
H920   C763    1.086   1_655 S
H922   C1080   1.086   .     S
H924   C330    1.084   1_556 S
O928   Zn945   1.932   .     S
O928   Zn944   1.926   .     S
O928   Zn943   1.951   .     S
O928   Zn942   1.958   .     S
O929   Zn943   1.930   .     S
O930   Zn945   1.943   .     S
O931   Zn944   1.943   .     S
O932   Zn942   1.930   .     S
O934   Zn942   1.929   .     S
O935   Zn945   1.927   .     S
O936   Zn943   1.924   .     S
O937   Zn944   1.936   .     S
O938   Zn945   1.933   .     S
O939   Zn942   1.920   .     S
O940   Zn943   1.932   .     S
O941   Zn944   1.930   .     S
C946   O999    1.274   .     A
C946   C952    1.437   .     S
C946   O1001   1.272   .     A
C947   C961    1.393   .     A
C947   H988    1.077   .     S
C947   C969    1.412   .     A
C948   H973    1.084   .     S
C948   C960    1.386   .     A
C948   C961    1.397   .     A
C949   O1000   1.280   .     A
C949   C951    1.455   .     S
C949   O1002   1.275   .     A
C950   C968    1.419   .     A
C950   C959    1.478   .     S
C950   C962    1.414   .     A
C951   C1015   1.335   .     S
C951   H1038   1.088   .     S
C952   C1077   1.335   1_455 S
C952   H1109   1.086   1_455 S
C953   C956    1.451   .     S
C953   C576    1.332   1_565 S
C953   H606    1.088   1_565 S
C954   C955    1.435   .     S
C955   O997    1.279   .     A
C955   O1003   1.280   .     A
C956   O1004   1.269   .     A
C956   O998    1.269   .     A
C957   C962    1.401   .     A
C957   C399    1.389   1_556 S
C957   H423    1.082   1_556 S
C958   O994    1.267   .     A
C958   C961    1.452   .     S
C958   O992    1.280   .     A
C959   O995    1.283   .     A
C959   O993    1.281   .     A
C962   O996    1.390   .     S
C963   H976    1.117   .     S
C963   O996    1.413   .     S
C963   H977    1.112   .     S
C963   C964    1.529   .     S
C964   H978    1.112   .     S
C964   H979    1.112   .     S
C964   C1091   1.526   1_455 S
C965   H981    1.110   .     S
C965   H980    1.111   .     S
C965   C1027   1.526   .     S
C965   H1045   1.111   .     S
C966   H989    1.076   .     S
C967   C968    1.422   .     A
C967   C399    1.413   1_556 S
C967   C402    1.426   1_556 S
C968   C972    1.411   .     A
C970   C971    1.390   .     A
C970   C393    1.400   1_556 S
C970   C402    1.424   1_556 S
C971   C972    1.382   .     A
C971   H986    1.083   .     S
C972   H974    1.081   .     S
H975   C1077   1.088   1_455 S
H982   C1091   1.111   1_455 S
H983   C1015   1.086   .     S
H985   C576    1.086   1_565 S
H987   C393    1.084   1_556 S
O991   Zn1008  1.932   .     S
O991   Zn1007  1.926   .     S
O991   Zn1006  1.951   .     S
O991   Zn1005  1.958   .     S
O992   Zn1006  1.930   .     S
O993   Zn1008  1.943   .     S
O994   Zn1007  1.943   .     S
O995   Zn1005  1.930   .     S
O997   Zn1005  1.929   .     S
O998   Zn1008  1.927   .     S
O999   Zn1006  1.924   .     S
O1000  Zn1007  1.936   .     S
O1001  Zn1008  1.933   .     S
O1002  Zn1005  1.920   .     S
O1003  Zn1006  1.932   .     S
O1004  Zn1007  1.930   .     S
C1009  O1062   1.274   .     A
C1009  C1015   1.437   .     S
C1009  O1064   1.272   .     A
C1010  C1024   1.393   .     A
C1010  H1051   1.077   .     S
C1010  C1032   1.412   .     A
C1011  H1036   1.084   .     S
C1011  C1023   1.386   .     A
C1011  C1024   1.397   .     A
C1012  O1063   1.280   .     A
C1012  C1014   1.455   .     S
C1012  O1065   1.275   .     A
C1013  C1031   1.419   .     A
C1013  C1022   1.478   .     S
C1013  C1025   1.414   .     A
C1014  C1078   1.335   .     S
C1014  H1101   1.088   .     S
C1016  C1019   1.451   .     S
C1016  C639    1.332   1_565 S
C1016  H669    1.088   1_565 S
C1017  C1018   1.435   .     S
C1018  O1060   1.279   .     A
C1018  O1066   1.280   .     A
C1019  O1067   1.269   .     A
C1019  O1061   1.269   .     A
C1020  C1025   1.401   .     A
C1020  C462    1.389   1_556 S
C1020  H486    1.082   1_556 S
C1021  O1057   1.267   .     A
C1021  C1024   1.452   .     S
C1021  O1055   1.280   .     A
C1022  O1058   1.283   .     A
C1022  O1056   1.281   .     A
C1025  O1059   1.390   .     S
C1026  H1039   1.117   .     S
C1026  O1059   1.413   .     S
C1026  H1040   1.112   .     S
C1026  C1027   1.529   .     S
C1027  H1041   1.112   .     S
C1027  H1042   1.112   .     S
C1028  H1044   1.110   .     S
C1028  H1043   1.111   .     S
C1028  C1090   1.526   .     S
C1028  H1108   1.111   .     S
C1029  H1052   1.076   .     S
C1030  C1031   1.422   .     A
C1030  C462    1.413   1_556 S
C1030  C465    1.426   1_556 S
C1031  C1035   1.411   .     A
C1033  C1034   1.390   .     A
C1033  C456    1.400   1_556 S
C1033  C465    1.424   1_556 S
C1034  C1035   1.382   .     A
C1034  H1049   1.083   .     S
C1035  H1037   1.081   .     S
H1046  C1078   1.086   .     S
H1048  C639    1.086   1_565 S
H1050  C456    1.084   1_556 S
O1054  Zn1071  1.932   .     S
O1054  Zn1070  1.926   .     S
O1054  Zn1069  1.951   .     S
O1054  Zn1068  1.958   .     S
O1055  Zn1069  1.930   .     S
O1056  Zn1071  1.943   .     S
O1057  Zn1070  1.943   .     S
O1058  Zn1068  1.930   .     S
O1060  Zn1068  1.929   .     S
O1061  Zn1071  1.927   .     S
O1062  Zn1069  1.924   .     S
O1063  Zn1070  1.936   .     S
O1064  Zn1071  1.933   .     S
O1065  Zn1068  1.920   .     S
O1066  Zn1069  1.932   .     S
O1067  Zn1070  1.930   .     S
C1072  O1125   1.274   .     A
C1072  C1078   1.437   .     S
C1072  O1127   1.272   .     A
C1073  C1087   1.393   .     A
C1073  H1114   1.077   .     S
C1073  C1095   1.412   .     A
C1074  H1099   1.084   .     S
C1074  C1086   1.386   .     A
C1074  C1087   1.397   .     A
C1075  O1126   1.280   .     A
C1075  C1077   1.455   .     S
C1075  O1128   1.275   .     A
C1076  C1094   1.419   .     A
C1076  C1085   1.478   .     S
C1076  C1088   1.414   .     A
C1077  C952    1.335   1_655 S
C1077  H975    1.088   1_655 S
C1079  C1082   1.451   .     S
C1079  C702    1.332   1_565 S
C1079  H732    1.088   1_565 S
C1080  C1081   1.435   .     S
C1081  O1123   1.279   .     A
C1081  O1129   1.280   .     A
C1082  O1130   1.269   .     A
C1082  O1124   1.269   .     A
C1083  C1088   1.401   .     A
C1083  C525    1.389   1_556 S
C1083  H549    1.082   1_556 S
C1084  O1120   1.267   .     A
C1084  C1087   1.452   .     S
C1084  O1118   1.280   .     A
C1085  O1121   1.283   .     A
C1085  O1119   1.281   .     A
C1088  O1122   1.390   .     S
C1089  H1102   1.117   .     S
C1089  O1122   1.413   .     S
C1089  H1103   1.112   .     S
C1089  C1090   1.529   .     S
C1090  H1104   1.112   .     S
C1090  H1105   1.112   .     S
C1091  H1107   1.110   .     S
C1091  H1106   1.111   .     S
C1091  C964    1.526   1_655 S
C1091  H982    1.111   1_655 S
C1092  H1115   1.076   .     S
C1093  C1094   1.422   .     A
C1093  C525    1.413   1_556 S
C1093  C528    1.426   1_556 S
C1094  C1098   1.411   .     A
C1096  C1097   1.390   .     A
C1096  C519    1.400   1_556 S
C1096  C528    1.424   1_556 S
C1097  C1098   1.382   .     A
C1097  H1112   1.083   .     S
C1098  H1100   1.081   .     S
H1109  C952    1.086   1_655 S
H1111  C702    1.086   1_565 S
H1113  C519    1.084   1_556 S
O1117  Zn1134  1.932   .     S
O1117  Zn1133  1.926   .     S
O1117  Zn1132  1.951   .     S
O1117  Zn1131  1.958   .     S
O1118  Zn1132  1.930   .     S
O1119  Zn1134  1.943   .     S
O1120  Zn1133  1.943   .     S
O1121  Zn1131  1.930   .     S
O1123  Zn1131  1.929   .     S
O1124  Zn1134  1.927   .     S
O1125  Zn1132  1.924   .     S
O1126  Zn1133  1.936   .     S
O1127  Zn1134  1.933   .     S
O1128  Zn1131  1.920   .     S
O1129  Zn1132  1.932   .     S
O1130  Zn1133  1.930   .     S
