data_str_m2_o10_o17_pcu_sym.85
_audit_creation_date              2020-01-03
_audit_creation_method            'Materials Studio'
_symmetry_space_group_name_H-M    'P1'
_symmetry_Int_Tables_number       1
_symmetry_cell_setting            triclinic
loop_
_symmetry_equiv_pos_as_xyz
  x,y,z
_cell_length_a                    29.9305
_cell_length_b                    26.1454
_cell_length_c                    22.5158
_cell_angle_alpha                 102.9170
_cell_angle_beta                  94.7229
_cell_angle_gamma                 93.5003
loop_
_atom_site_label
_atom_site_type_symbol
_atom_site_fract_x
_atom_site_fract_y
_atom_site_fract_z
_atom_site_U_iso_or_equiv
_atom_site_adp_type
_atom_site_occupancy
C1     C     0.24723   0.06673   0.15137   0.00000  Uiso   1.00
C2     C     0.09043   0.12019   0.15226   0.00000  Uiso   1.00
C3     C     0.38328   0.16567   0.16474   0.00000  Uiso   1.00
C4     C     0.11672   0.16766   0.16859   0.00000  Uiso   1.00
C5     C     0.40239   0.11744   0.15062   0.00000  Uiso   1.00
C6     C     0.09761   0.21589   0.18272   0.00000  Uiso   1.00
C7     C     0.44962   0.11687   0.14852   0.00000  Uiso   1.00
C8     C     0.05038   0.21647   0.18481   0.00000  Uiso   1.00
C9     C     0.47642   0.16590   0.16621   0.00000  Uiso   1.00
C10    C     0.02359   0.16743   0.16712   0.00000  Uiso   1.00
C11    C     0.45603   0.21363   0.18296   0.00000  Uiso   1.00
C12    C     0.25277   0.26660   0.18197   0.00000  Uiso   1.00
C13    C     0.04397   0.11970   0.15038   0.00000  Uiso   1.00
C14    C     0.47115   0.06988   0.12867   0.00000  Uiso   1.00
C15    C     0.02885   0.26346   0.20467   0.00000  Uiso   1.00
C16    C     0.44708   0.01919   0.10206   0.00000  Uiso   1.00
C17    C     0.05292   0.31414   0.23127   0.00000  Uiso   1.00
C18    C     0.20553   0.11550   0.30933   0.00000  Uiso   1.00
C19    C     0.29448   0.21783   0.02401   0.00000  Uiso   1.00
C20    C     0.01787   0.07185   0.13103   0.00000  Uiso   1.00
C21    C     0.48213   0.26148   0.20230   0.00000  Uiso   1.00
C22    C     0.24078   0.01067   0.14440   0.00000  Uiso   1.00
C23    C     0.25922   0.32266   0.18893   0.00000  Uiso   1.00
C24    C     0.16469   0.16665   0.16719   0.00000  Uiso   1.00
C25    C     0.33531   0.16669   0.16614   0.00000  Uiso   1.00
C26    C     0.40957   0.21315   0.18107   0.00000  Uiso   1.00
Cu27   Cu    0.25501   0.17246   0.22813   0.00000  Uiso   1.00
Cu28   Cu    0.24500   0.16087   0.10521   0.00000  Uiso   1.00
H29    H     0.39362   0.24975   0.19327   0.00000  Uiso   1.00
H30    H     0.10638   0.08358   0.14006   0.00000  Uiso   1.00
H31    H     0.03408   0.03569   0.11656   0.00000  Uiso   1.00
H32    H     0.46592   0.29764   0.21678   0.00000  Uiso   1.00
H33    H     0.38668   0.05160   0.17032   0.00000  Uiso   1.00
H34    H     0.11332   0.28173   0.16301   0.00000  Uiso   1.00
H35    H     0.20001   0.00308   0.06973   0.00000  Uiso   1.00
H36    H     0.29999   0.33025   0.26360   0.00000  Uiso   1.00
N37    N     0.23745   0.15214   0.01284   0.00000  Uiso   1.00
N38    N     0.26256   0.18119   0.32049   0.00000  Uiso   1.00
N39    N     0.42804   0.31184   0.08065   0.00000  Uiso   1.00
N40    N     0.07196   0.02149   0.25268   0.00000  Uiso   1.00
N41    N     0.17868   0.08468   0.27925   0.00000  Uiso   1.00
N42    N     0.32132   0.24865   0.05408   0.00000  Uiso   1.00
O43    O     0.25326   0.09538   0.20659   0.00000  Uiso   1.00
O44    O     0.12579   0.26118   0.19164   0.00000  Uiso   1.00
O45    O     0.21362   0.31343   0.09455   0.00000  Uiso   1.00
O46    O     0.28638   0.01991   0.23878   0.00000  Uiso   1.00
O47    O     0.24675   0.23796   0.12674   0.00000  Uiso   1.00
O48    O     0.24480   0.08559   0.10279   0.00000  Uiso   1.00
O49    O     0.25520   0.24774   0.23055   0.00000  Uiso   1.00
O50    O     0.18936   0.17155   0.21857   0.00000  Uiso   1.00
O51    O     0.31065   0.16179   0.11476   0.00000  Uiso   1.00
O52    O     0.18090   0.16176   0.11477   0.00000  Uiso   1.00
O53    O     0.31910   0.17157   0.21857   0.00000  Uiso   1.00
O54    O     0.37421   0.07215   0.14169   0.00000  Uiso   1.00
C55    C     0.74723   0.06673   0.15137   0.00000  Uiso   1.00
C56    C     0.59043   0.12019   0.15226   0.00000  Uiso   1.00
C57    C     0.88328   0.16567   0.16474   0.00000  Uiso   1.00
C58    C     0.61672   0.16766   0.16859   0.00000  Uiso   1.00
C59    C     0.90239   0.11744   0.15062   0.00000  Uiso   1.00
C60    C     0.59761   0.21589   0.18272   0.00000  Uiso   1.00
C61    C     0.94962   0.11687   0.14852   0.00000  Uiso   1.00
C62    C     0.55038   0.21647   0.18481   0.00000  Uiso   1.00
C63    C     0.97642   0.16590   0.16621   0.00000  Uiso   1.00
C64    C     0.52359   0.16743   0.16712   0.00000  Uiso   1.00
C65    C     0.95603   0.21363   0.18296   0.00000  Uiso   1.00
C66    C     0.75277   0.26660   0.18197   0.00000  Uiso   1.00
C67    C     0.54397   0.11970   0.15038   0.00000  Uiso   1.00
C68    C     0.97115   0.06988   0.12867   0.00000  Uiso   1.00
C69    C     0.52885   0.26346   0.20467   0.00000  Uiso   1.00
C70    C     0.94708   0.01919   0.10206   0.00000  Uiso   1.00
C71    C     0.55292   0.31414   0.23127   0.00000  Uiso   1.00
C72    C     0.70553   0.11550   0.30933   0.00000  Uiso   1.00
C73    C     0.79448   0.21783   0.02401   0.00000  Uiso   1.00
C74    C     0.51787   0.07185   0.13103   0.00000  Uiso   1.00
C75    C     0.98213   0.26148   0.20230   0.00000  Uiso   1.00
C76    C     0.74078   0.01067   0.14440   0.00000  Uiso   1.00
C77    C     0.75922   0.32266   0.18893   0.00000  Uiso   1.00
C78    C     0.66469   0.16665   0.16719   0.00000  Uiso   1.00
C79    C     0.83531   0.16669   0.16614   0.00000  Uiso   1.00
C80    C     0.90957   0.21315   0.18107   0.00000  Uiso   1.00
Cu81   Cu    0.75501   0.17246   0.22813   0.00000  Uiso   1.00
Cu82   Cu    0.74500   0.16087   0.10521   0.00000  Uiso   1.00
H83    H     0.89362   0.24975   0.19327   0.00000  Uiso   1.00
H84    H     0.60638   0.08358   0.14006   0.00000  Uiso   1.00
H85    H     0.53408   0.03569   0.11656   0.00000  Uiso   1.00
H86    H     0.96592   0.29764   0.21678   0.00000  Uiso   1.00
H87    H     0.88668   0.05160   0.17032   0.00000  Uiso   1.00
H88    H     0.61332   0.28173   0.16301   0.00000  Uiso   1.00
H89    H     0.70001   0.00308   0.06973   0.00000  Uiso   1.00
H90    H     0.79999   0.33025   0.26360   0.00000  Uiso   1.00
N91    N     0.73745   0.15214   0.01284   0.00000  Uiso   1.00
N92    N     0.76256   0.18119   0.32049   0.00000  Uiso   1.00
N93    N     0.92804   0.31184   0.08065   0.00000  Uiso   1.00
N94    N     0.57196   0.02149   0.25268   0.00000  Uiso   1.00
N95    N     0.67868   0.08468   0.27925   0.00000  Uiso   1.00
N96    N     0.82132   0.24865   0.05408   0.00000  Uiso   1.00
O97    O     0.75326   0.09538   0.20659   0.00000  Uiso   1.00
O98    O     0.62579   0.26118   0.19164   0.00000  Uiso   1.00
O99    O     0.71362   0.31343   0.09455   0.00000  Uiso   1.00
O100   O     0.78638   0.01991   0.23878   0.00000  Uiso   1.00
O101   O     0.74675   0.23796   0.12674   0.00000  Uiso   1.00
O102   O     0.74480   0.08559   0.10279   0.00000  Uiso   1.00
O103   O     0.75520   0.24774   0.23055   0.00000  Uiso   1.00
O104   O     0.68936   0.17155   0.21857   0.00000  Uiso   1.00
O105   O     0.81065   0.16179   0.11476   0.00000  Uiso   1.00
O106   O     0.68090   0.16176   0.11477   0.00000  Uiso   1.00
O107   O     0.81910   0.17157   0.21857   0.00000  Uiso   1.00
O108   O     0.87421   0.07215   0.14169   0.00000  Uiso   1.00
C109   C     0.24723   0.40006   0.15137   0.00000  Uiso   1.00
C110   C     0.09043   0.45352   0.15226   0.00000  Uiso   1.00
C111   C     0.38328   0.49900   0.16474   0.00000  Uiso   1.00
C112   C     0.11672   0.50100   0.16859   0.00000  Uiso   1.00
C113   C     0.40239   0.45078   0.15062   0.00000  Uiso   1.00
C114   C     0.09761   0.54922   0.18272   0.00000  Uiso   1.00
C115   C     0.44962   0.45020   0.14852   0.00000  Uiso   1.00
C116   C     0.05038   0.54980   0.18481   0.00000  Uiso   1.00
C117   C     0.47642   0.49923   0.16621   0.00000  Uiso   1.00
C118   C     0.02359   0.50077   0.16712   0.00000  Uiso   1.00
C119   C     0.45603   0.54696   0.18296   0.00000  Uiso   1.00
C120   C     0.25277   0.59994   0.18197   0.00000  Uiso   1.00
C121   C     0.04397   0.45304   0.15038   0.00000  Uiso   1.00
C122   C     0.47115   0.40321   0.12867   0.00000  Uiso   1.00
C123   C     0.02885   0.59679   0.20467   0.00000  Uiso   1.00
C124   C     0.44708   0.35252   0.10206   0.00000  Uiso   1.00
C125   C     0.05292   0.64748   0.23127   0.00000  Uiso   1.00
C126   C     0.20553   0.44884   0.30933   0.00000  Uiso   1.00
C127   C     0.29448   0.55116   0.02401   0.00000  Uiso   1.00
C128   C     0.01787   0.40519   0.13103   0.00000  Uiso   1.00
C129   C     0.48213   0.59481   0.20230   0.00000  Uiso   1.00
C130   C     0.24078   0.34401   0.14440   0.00000  Uiso   1.00
C131   C     0.25922   0.65599   0.18893   0.00000  Uiso   1.00
C132   C     0.16469   0.49998   0.16719   0.00000  Uiso   1.00
C133   C     0.33531   0.50002   0.16614   0.00000  Uiso   1.00
C134   C     0.40957   0.54648   0.18107   0.00000  Uiso   1.00
Cu135  Cu    0.25501   0.50579   0.22813   0.00000  Uiso   1.00
Cu136  Cu    0.24500   0.49421   0.10521   0.00000  Uiso   1.00
H137   H     0.39362   0.58308   0.19327   0.00000  Uiso   1.00
H138   H     0.10638   0.41692   0.14006   0.00000  Uiso   1.00
H139   H     0.03408   0.36902   0.11656   0.00000  Uiso   1.00
H140   H     0.46592   0.63098   0.21678   0.00000  Uiso   1.00
H141   H     0.38668   0.38493   0.17032   0.00000  Uiso   1.00
H142   H     0.11332   0.61507   0.16301   0.00000  Uiso   1.00
H143   H     0.20001   0.33641   0.06973   0.00000  Uiso   1.00
H144   H     0.29999   0.66359   0.26360   0.00000  Uiso   1.00
N145   N     0.23745   0.48547   0.01284   0.00000  Uiso   1.00
N146   N     0.26256   0.51453   0.32049   0.00000  Uiso   1.00
N147   N     0.42804   0.64518   0.08065   0.00000  Uiso   1.00
N148   N     0.07196   0.35483   0.25268   0.00000  Uiso   1.00
N149   N     0.17868   0.41801   0.27925   0.00000  Uiso   1.00
N150   N     0.32132   0.58199   0.05408   0.00000  Uiso   1.00
O151   O     0.25326   0.42871   0.20659   0.00000  Uiso   1.00
O152   O     0.12579   0.59452   0.19164   0.00000  Uiso   1.00
O153   O     0.21362   0.64676   0.09455   0.00000  Uiso   1.00
O154   O     0.28638   0.35324   0.23878   0.00000  Uiso   1.00
O155   O     0.24675   0.57129   0.12674   0.00000  Uiso   1.00
O156   O     0.24480   0.41892   0.10279   0.00000  Uiso   1.00
O157   O     0.25520   0.58108   0.23055   0.00000  Uiso   1.00
O158   O     0.18936   0.50488   0.21857   0.00000  Uiso   1.00
O159   O     0.31065   0.49512   0.11476   0.00000  Uiso   1.00
O160   O     0.18090   0.49510   0.11477   0.00000  Uiso   1.00
O161   O     0.31910   0.50490   0.21857   0.00000  Uiso   1.00
O162   O     0.37421   0.40548   0.14169   0.00000  Uiso   1.00
C163   C     0.74723   0.40006   0.15137   0.00000  Uiso   1.00
C164   C     0.59043   0.45352   0.15226   0.00000  Uiso   1.00
C165   C     0.88328   0.49900   0.16474   0.00000  Uiso   1.00
C166   C     0.61672   0.50100   0.16859   0.00000  Uiso   1.00
C167   C     0.90239   0.45078   0.15062   0.00000  Uiso   1.00
C168   C     0.59761   0.54922   0.18272   0.00000  Uiso   1.00
C169   C     0.94962   0.45020   0.14852   0.00000  Uiso   1.00
C170   C     0.55038   0.54980   0.18481   0.00000  Uiso   1.00
C171   C     0.97642   0.49923   0.16621   0.00000  Uiso   1.00
C172   C     0.52359   0.50077   0.16712   0.00000  Uiso   1.00
C173   C     0.95603   0.54696   0.18296   0.00000  Uiso   1.00
C174   C     0.75277   0.59994   0.18197   0.00000  Uiso   1.00
C175   C     0.54397   0.45304   0.15038   0.00000  Uiso   1.00
C176   C     0.97115   0.40321   0.12867   0.00000  Uiso   1.00
C177   C     0.52885   0.59679   0.20467   0.00000  Uiso   1.00
C178   C     0.94708   0.35252   0.10206   0.00000  Uiso   1.00
C179   C     0.55292   0.64748   0.23127   0.00000  Uiso   1.00
C180   C     0.70553   0.44884   0.30933   0.00000  Uiso   1.00
C181   C     0.79448   0.55116   0.02401   0.00000  Uiso   1.00
C182   C     0.51787   0.40519   0.13103   0.00000  Uiso   1.00
C183   C     0.98213   0.59481   0.20230   0.00000  Uiso   1.00
C184   C     0.74078   0.34401   0.14440   0.00000  Uiso   1.00
C185   C     0.75922   0.65599   0.18893   0.00000  Uiso   1.00
C186   C     0.66469   0.49998   0.16719   0.00000  Uiso   1.00
C187   C     0.83531   0.50002   0.16614   0.00000  Uiso   1.00
C188   C     0.90957   0.54648   0.18107   0.00000  Uiso   1.00
Cu189  Cu    0.75501   0.50579   0.22813   0.00000  Uiso   1.00
Cu190  Cu    0.74500   0.49421   0.10521   0.00000  Uiso   1.00
H191   H     0.89362   0.58308   0.19327   0.00000  Uiso   1.00
H192   H     0.60638   0.41692   0.14006   0.00000  Uiso   1.00
H193   H     0.53408   0.36902   0.11656   0.00000  Uiso   1.00
H194   H     0.96592   0.63098   0.21678   0.00000  Uiso   1.00
H195   H     0.88668   0.38493   0.17032   0.00000  Uiso   1.00
H196   H     0.61332   0.61507   0.16301   0.00000  Uiso   1.00
H197   H     0.70001   0.33641   0.06973   0.00000  Uiso   1.00
H198   H     0.79999   0.66359   0.26360   0.00000  Uiso   1.00
N199   N     0.73745   0.48547   0.01284   0.00000  Uiso   1.00
N200   N     0.76256   0.51453   0.32049   0.00000  Uiso   1.00
N201   N     0.92804   0.64518   0.08065   0.00000  Uiso   1.00
N202   N     0.57196   0.35483   0.25268   0.00000  Uiso   1.00
N203   N     0.67868   0.41801   0.27925   0.00000  Uiso   1.00
N204   N     0.82132   0.58199   0.05408   0.00000  Uiso   1.00
O205   O     0.75326   0.42871   0.20659   0.00000  Uiso   1.00
O206   O     0.62579   0.59452   0.19164   0.00000  Uiso   1.00
O207   O     0.71362   0.64676   0.09455   0.00000  Uiso   1.00
O208   O     0.78638   0.35324   0.23878   0.00000  Uiso   1.00
O209   O     0.74675   0.57129   0.12674   0.00000  Uiso   1.00
O210   O     0.74480   0.41892   0.10279   0.00000  Uiso   1.00
O211   O     0.75520   0.58108   0.23055   0.00000  Uiso   1.00
O212   O     0.68936   0.50488   0.21857   0.00000  Uiso   1.00
O213   O     0.81065   0.49512   0.11476   0.00000  Uiso   1.00
O214   O     0.68090   0.49510   0.11477   0.00000  Uiso   1.00
O215   O     0.81910   0.50490   0.21857   0.00000  Uiso   1.00
O216   O     0.87421   0.40548   0.14169   0.00000  Uiso   1.00
C217   C     0.24723   0.73340   0.15137   0.00000  Uiso   1.00
C218   C     0.09043   0.78685   0.15226   0.00000  Uiso   1.00
C219   C     0.38328   0.83234   0.16474   0.00000  Uiso   1.00
C220   C     0.11672   0.83433   0.16859   0.00000  Uiso   1.00
C221   C     0.40239   0.78411   0.15062   0.00000  Uiso   1.00
C222   C     0.09761   0.88256   0.18272   0.00000  Uiso   1.00
C223   C     0.44962   0.78353   0.14852   0.00000  Uiso   1.00
C224   C     0.05038   0.88313   0.18481   0.00000  Uiso   1.00
C225   C     0.47642   0.83257   0.16621   0.00000  Uiso   1.00
C226   C     0.02359   0.83410   0.16712   0.00000  Uiso   1.00
C227   C     0.45603   0.88030   0.18296   0.00000  Uiso   1.00
C228   C     0.25277   0.93327   0.18197   0.00000  Uiso   1.00
C229   C     0.04397   0.78637   0.15038   0.00000  Uiso   1.00
C230   C     0.47115   0.73654   0.12867   0.00000  Uiso   1.00
C231   C     0.02885   0.93012   0.20467   0.00000  Uiso   1.00
C232   C     0.44708   0.68586   0.10206   0.00000  Uiso   1.00
C233   C     0.05292   0.98081   0.23127   0.00000  Uiso   1.00
C234   C     0.20553   0.78217   0.30933   0.00000  Uiso   1.00
C235   C     0.29448   0.88450   0.02401   0.00000  Uiso   1.00
C236   C     0.01787   0.73852   0.13103   0.00000  Uiso   1.00
C237   C     0.48213   0.92815   0.20230   0.00000  Uiso   1.00
C238   C     0.24078   0.67734   0.14440   0.00000  Uiso   1.00
C239   C     0.25922   0.98933   0.18893   0.00000  Uiso   1.00
C240   C     0.16469   0.83331   0.16719   0.00000  Uiso   1.00
C241   C     0.33531   0.83335   0.16614   0.00000  Uiso   1.00
C242   C     0.40957   0.87981   0.18107   0.00000  Uiso   1.00
Cu243  Cu    0.25501   0.83913   0.22813   0.00000  Uiso   1.00
Cu244  Cu    0.24500   0.82754   0.10521   0.00000  Uiso   1.00
H245   H     0.39362   0.91642   0.19327   0.00000  Uiso   1.00
H246   H     0.10638   0.75025   0.14006   0.00000  Uiso   1.00
H247   H     0.03408   0.70236   0.11656   0.00000  Uiso   1.00
H248   H     0.46592   0.96431   0.21678   0.00000  Uiso   1.00
H249   H     0.38668   0.71827   0.17032   0.00000  Uiso   1.00
H250   H     0.11332   0.94840   0.16301   0.00000  Uiso   1.00
H251   H     0.20001   0.66975   0.06973   0.00000  Uiso   1.00
H252   H     0.29999   0.99692   0.26360   0.00000  Uiso   1.00
N253   N     0.23745   0.81881   0.01284   0.00000  Uiso   1.00
N254   N     0.26256   0.84786   0.32049   0.00000  Uiso   1.00
N255   N     0.42804   0.97851   0.08065   0.00000  Uiso   1.00
N256   N     0.07196   0.68816   0.25268   0.00000  Uiso   1.00
N257   N     0.17868   0.75135   0.27925   0.00000  Uiso   1.00
N258   N     0.32132   0.91532   0.05408   0.00000  Uiso   1.00
O259   O     0.25326   0.76204   0.20659   0.00000  Uiso   1.00
O260   O     0.12579   0.92785   0.19164   0.00000  Uiso   1.00
O261   O     0.21362   0.98009   0.09455   0.00000  Uiso   1.00
O262   O     0.28638   0.68657   0.23878   0.00000  Uiso   1.00
O263   O     0.24675   0.90462   0.12674   0.00000  Uiso   1.00
O264   O     0.24480   0.75226   0.10279   0.00000  Uiso   1.00
O265   O     0.25520   0.91441   0.23055   0.00000  Uiso   1.00
O266   O     0.18936   0.83821   0.21857   0.00000  Uiso   1.00
O267   O     0.31065   0.82845   0.11476   0.00000  Uiso   1.00
O268   O     0.18090   0.82843   0.11477   0.00000  Uiso   1.00
O269   O     0.31910   0.83824   0.21857   0.00000  Uiso   1.00
O270   O     0.37421   0.73882   0.14169   0.00000  Uiso   1.00
C271   C     0.74723   0.73340   0.15137   0.00000  Uiso   1.00
C272   C     0.59043   0.78685   0.15226   0.00000  Uiso   1.00
C273   C     0.88328   0.83234   0.16474   0.00000  Uiso   1.00
C274   C     0.61672   0.83433   0.16859   0.00000  Uiso   1.00
C275   C     0.90239   0.78411   0.15062   0.00000  Uiso   1.00
C276   C     0.59761   0.88256   0.18272   0.00000  Uiso   1.00
C277   C     0.94962   0.78353   0.14852   0.00000  Uiso   1.00
C278   C     0.55038   0.88313   0.18481   0.00000  Uiso   1.00
C279   C     0.97642   0.83257   0.16621   0.00000  Uiso   1.00
C280   C     0.52359   0.83410   0.16712   0.00000  Uiso   1.00
C281   C     0.95603   0.88030   0.18296   0.00000  Uiso   1.00
C282   C     0.75277   0.93327   0.18197   0.00000  Uiso   1.00
C283   C     0.54397   0.78637   0.15038   0.00000  Uiso   1.00
C284   C     0.97115   0.73654   0.12867   0.00000  Uiso   1.00
C285   C     0.52885   0.93012   0.20467   0.00000  Uiso   1.00
C286   C     0.94708   0.68586   0.10206   0.00000  Uiso   1.00
C287   C     0.55292   0.98081   0.23127   0.00000  Uiso   1.00
C288   C     0.70553   0.78217   0.30933   0.00000  Uiso   1.00
C289   C     0.79448   0.88450   0.02401   0.00000  Uiso   1.00
C290   C     0.51787   0.73852   0.13103   0.00000  Uiso   1.00
C291   C     0.98213   0.92815   0.20230   0.00000  Uiso   1.00
C292   C     0.74078   0.67734   0.14440   0.00000  Uiso   1.00
C293   C     0.75922   0.98933   0.18893   0.00000  Uiso   1.00
C294   C     0.66469   0.83331   0.16719   0.00000  Uiso   1.00
C295   C     0.83531   0.83335   0.16614   0.00000  Uiso   1.00
C296   C     0.90957   0.87981   0.18107   0.00000  Uiso   1.00
Cu297  Cu    0.75501   0.83913   0.22813   0.00000  Uiso   1.00
Cu298  Cu    0.74500   0.82754   0.10521   0.00000  Uiso   1.00
H299   H     0.89362   0.91642   0.19327   0.00000  Uiso   1.00
H300   H     0.60638   0.75025   0.14006   0.00000  Uiso   1.00
H301   H     0.53408   0.70236   0.11656   0.00000  Uiso   1.00
H302   H     0.96592   0.96431   0.21678   0.00000  Uiso   1.00
H303   H     0.88668   0.71827   0.17032   0.00000  Uiso   1.00
H304   H     0.61332   0.94840   0.16301   0.00000  Uiso   1.00
H305   H     0.70001   0.66975   0.06973   0.00000  Uiso   1.00
H306   H     0.79999   0.99692   0.26360   0.00000  Uiso   1.00
N307   N     0.73745   0.81881   0.01284   0.00000  Uiso   1.00
N308   N     0.76256   0.84786   0.32049   0.00000  Uiso   1.00
N309   N     0.92804   0.97851   0.08065   0.00000  Uiso   1.00
N310   N     0.57196   0.68816   0.25268   0.00000  Uiso   1.00
N311   N     0.67868   0.75135   0.27925   0.00000  Uiso   1.00
N312   N     0.82132   0.91532   0.05408   0.00000  Uiso   1.00
O313   O     0.75326   0.76204   0.20659   0.00000  Uiso   1.00
O314   O     0.62579   0.92785   0.19164   0.00000  Uiso   1.00
O315   O     0.71362   0.98009   0.09455   0.00000  Uiso   1.00
O316   O     0.78638   0.68657   0.23878   0.00000  Uiso   1.00
O317   O     0.74675   0.90462   0.12674   0.00000  Uiso   1.00
O318   O     0.74480   0.75226   0.10279   0.00000  Uiso   1.00
O319   O     0.75520   0.91441   0.23055   0.00000  Uiso   1.00
O320   O     0.68936   0.83821   0.21857   0.00000  Uiso   1.00
O321   O     0.81065   0.82845   0.11476   0.00000  Uiso   1.00
O322   O     0.68090   0.82843   0.11477   0.00000  Uiso   1.00
O323   O     0.81910   0.83824   0.21857   0.00000  Uiso   1.00
O324   O     0.87421   0.73882   0.14169   0.00000  Uiso   1.00
C325   C     0.24723   0.06673   0.48470   0.00000  Uiso   1.00
C326   C     0.09043   0.12019   0.48560   0.00000  Uiso   1.00
C327   C     0.38328   0.16567   0.49808   0.00000  Uiso   1.00
C328   C     0.11672   0.16766   0.50192   0.00000  Uiso   1.00
C329   C     0.40239   0.11744   0.48395   0.00000  Uiso   1.00
C330   C     0.09761   0.21589   0.51605   0.00000  Uiso   1.00
C331   C     0.44962   0.11687   0.48185   0.00000  Uiso   1.00
C332   C     0.05038   0.21647   0.51815   0.00000  Uiso   1.00
C333   C     0.47642   0.16590   0.49955   0.00000  Uiso   1.00
C334   C     0.02359   0.16743   0.50045   0.00000  Uiso   1.00
C335   C     0.45603   0.21363   0.51629   0.00000  Uiso   1.00
C336   C     0.25277   0.26660   0.51530   0.00000  Uiso   1.00
C337   C     0.04397   0.11970   0.48371   0.00000  Uiso   1.00
C338   C     0.47115   0.06988   0.46200   0.00000  Uiso   1.00
C339   C     0.02885   0.26346   0.53800   0.00000  Uiso   1.00
C340   C     0.44708   0.01919   0.43540   0.00000  Uiso   1.00
C341   C     0.05292   0.31414   0.56460   0.00000  Uiso   1.00
C342   C     0.20553   0.11550   0.64266   0.00000  Uiso   1.00
C343   C     0.29448   0.21783   0.35734   0.00000  Uiso   1.00
C344   C     0.01787   0.07185   0.46436   0.00000  Uiso   1.00
C345   C     0.48213   0.26148   0.53564   0.00000  Uiso   1.00
C346   C     0.24078   0.01067   0.47773   0.00000  Uiso   1.00
C347   C     0.25922   0.32266   0.52227   0.00000  Uiso   1.00
C348   C     0.16469   0.16665   0.50053   0.00000  Uiso   1.00
C349   C     0.33531   0.16669   0.49947   0.00000  Uiso   1.00
C350   C     0.40957   0.21315   0.51440   0.00000  Uiso   1.00
Cu351  Cu    0.25501   0.17246   0.56146   0.00000  Uiso   1.00
Cu352  Cu    0.24500   0.16087   0.43854   0.00000  Uiso   1.00
H353   H     0.39362   0.24975   0.52661   0.00000  Uiso   1.00
H354   H     0.10638   0.08358   0.47339   0.00000  Uiso   1.00
H355   H     0.03408   0.03569   0.44989   0.00000  Uiso   1.00
H356   H     0.46592   0.29764   0.55011   0.00000  Uiso   1.00
H357   H     0.38668   0.05160   0.50366   0.00000  Uiso   1.00
H358   H     0.11332   0.28173   0.49634   0.00000  Uiso   1.00
H359   H     0.20001   0.00308   0.40307   0.00000  Uiso   1.00
H360   H     0.29999   0.33025   0.59693   0.00000  Uiso   1.00
N361   N     0.23745   0.15214   0.34617   0.00000  Uiso   1.00
N362   N     0.26256   0.18119   0.65383   0.00000  Uiso   1.00
N363   N     0.42804   0.31184   0.41399   0.00000  Uiso   1.00
N364   N     0.07196   0.02149   0.58602   0.00000  Uiso   1.00
N365   N     0.17868   0.08468   0.61259   0.00000  Uiso   1.00
N366   N     0.32132   0.24865   0.38741   0.00000  Uiso   1.00
O367   O     0.25326   0.09538   0.53992   0.00000  Uiso   1.00
O368   O     0.12579   0.26118   0.52497   0.00000  Uiso   1.00
O369   O     0.21362   0.31343   0.42789   0.00000  Uiso   1.00
O370   O     0.28638   0.01991   0.57211   0.00000  Uiso   1.00
O371   O     0.24675   0.23796   0.46008   0.00000  Uiso   1.00
O372   O     0.24480   0.08559   0.43612   0.00000  Uiso   1.00
O373   O     0.25520   0.24774   0.56388   0.00000  Uiso   1.00
O374   O     0.18936   0.17155   0.55191   0.00000  Uiso   1.00
O375   O     0.31065   0.16179   0.44809   0.00000  Uiso   1.00
O376   O     0.18090   0.16176   0.44810   0.00000  Uiso   1.00
O377   O     0.31910   0.17157   0.55190   0.00000  Uiso   1.00
O378   O     0.37421   0.07215   0.47503   0.00000  Uiso   1.00
C379   C     0.74723   0.06673   0.48470   0.00000  Uiso   1.00
C380   C     0.59043   0.12019   0.48560   0.00000  Uiso   1.00
C381   C     0.88328   0.16567   0.49808   0.00000  Uiso   1.00
C382   C     0.61672   0.16766   0.50192   0.00000  Uiso   1.00
C383   C     0.90239   0.11744   0.48395   0.00000  Uiso   1.00
C384   C     0.59761   0.21589   0.51605   0.00000  Uiso   1.00
C385   C     0.94962   0.11687   0.48185   0.00000  Uiso   1.00
C386   C     0.55038   0.21647   0.51815   0.00000  Uiso   1.00
C387   C     0.97642   0.16590   0.49955   0.00000  Uiso   1.00
C388   C     0.52359   0.16743   0.50045   0.00000  Uiso   1.00
C389   C     0.95603   0.21363   0.51629   0.00000  Uiso   1.00
C390   C     0.75277   0.26660   0.51530   0.00000  Uiso   1.00
C391   C     0.54397   0.11970   0.48371   0.00000  Uiso   1.00
C392   C     0.97115   0.06988   0.46200   0.00000  Uiso   1.00
C393   C     0.52885   0.26346   0.53800   0.00000  Uiso   1.00
C394   C     0.94708   0.01919   0.43540   0.00000  Uiso   1.00
C395   C     0.55292   0.31414   0.56460   0.00000  Uiso   1.00
C396   C     0.70553   0.11550   0.64266   0.00000  Uiso   1.00
C397   C     0.79448   0.21783   0.35734   0.00000  Uiso   1.00
C398   C     0.51787   0.07185   0.46436   0.00000  Uiso   1.00
C399   C     0.98213   0.26148   0.53564   0.00000  Uiso   1.00
C400   C     0.74078   0.01067   0.47773   0.00000  Uiso   1.00
C401   C     0.75922   0.32266   0.52227   0.00000  Uiso   1.00
C402   C     0.66469   0.16665   0.50053   0.00000  Uiso   1.00
C403   C     0.83531   0.16669   0.49947   0.00000  Uiso   1.00
C404   C     0.90957   0.21315   0.51440   0.00000  Uiso   1.00
Cu405  Cu    0.75501   0.17246   0.56146   0.00000  Uiso   1.00
Cu406  Cu    0.74500   0.16087   0.43854   0.00000  Uiso   1.00
H407   H     0.89362   0.24975   0.52661   0.00000  Uiso   1.00
H408   H     0.60638   0.08358   0.47339   0.00000  Uiso   1.00
H409   H     0.53408   0.03569   0.44989   0.00000  Uiso   1.00
H410   H     0.96592   0.29764   0.55011   0.00000  Uiso   1.00
H411   H     0.88668   0.05160   0.50366   0.00000  Uiso   1.00
H412   H     0.61332   0.28173   0.49634   0.00000  Uiso   1.00
H413   H     0.70001   0.00308   0.40307   0.00000  Uiso   1.00
H414   H     0.79999   0.33025   0.59693   0.00000  Uiso   1.00
N415   N     0.73745   0.15214   0.34617   0.00000  Uiso   1.00
N416   N     0.76256   0.18119   0.65383   0.00000  Uiso   1.00
N417   N     0.92804   0.31184   0.41399   0.00000  Uiso   1.00
N418   N     0.57196   0.02149   0.58602   0.00000  Uiso   1.00
N419   N     0.67868   0.08468   0.61259   0.00000  Uiso   1.00
N420   N     0.82132   0.24865   0.38741   0.00000  Uiso   1.00
O421   O     0.75326   0.09538   0.53992   0.00000  Uiso   1.00
O422   O     0.62579   0.26118   0.52497   0.00000  Uiso   1.00
O423   O     0.71362   0.31343   0.42789   0.00000  Uiso   1.00
O424   O     0.78638   0.01991   0.57211   0.00000  Uiso   1.00
O425   O     0.74675   0.23796   0.46008   0.00000  Uiso   1.00
O426   O     0.74480   0.08559   0.43612   0.00000  Uiso   1.00
O427   O     0.75520   0.24774   0.56388   0.00000  Uiso   1.00
O428   O     0.68936   0.17155   0.55191   0.00000  Uiso   1.00
O429   O     0.81065   0.16179   0.44809   0.00000  Uiso   1.00
O430   O     0.68090   0.16176   0.44810   0.00000  Uiso   1.00
O431   O     0.81910   0.17157   0.55190   0.00000  Uiso   1.00
O432   O     0.87421   0.07215   0.47503   0.00000  Uiso   1.00
C433   C     0.24723   0.40006   0.48470   0.00000  Uiso   1.00
C434   C     0.09043   0.45352   0.48560   0.00000  Uiso   1.00
C435   C     0.38328   0.49900   0.49808   0.00000  Uiso   1.00
C436   C     0.11672   0.50100   0.50192   0.00000  Uiso   1.00
C437   C     0.40239   0.45078   0.48395   0.00000  Uiso   1.00
C438   C     0.09761   0.54922   0.51605   0.00000  Uiso   1.00
C439   C     0.44962   0.45020   0.48185   0.00000  Uiso   1.00
C440   C     0.05038   0.54980   0.51815   0.00000  Uiso   1.00
C441   C     0.47642   0.49923   0.49955   0.00000  Uiso   1.00
C442   C     0.02359   0.50077   0.50045   0.00000  Uiso   1.00
C443   C     0.45603   0.54696   0.51629   0.00000  Uiso   1.00
C444   C     0.25277   0.59994   0.51530   0.00000  Uiso   1.00
C445   C     0.04397   0.45304   0.48371   0.00000  Uiso   1.00
C446   C     0.47115   0.40321   0.46200   0.00000  Uiso   1.00
C447   C     0.02885   0.59679   0.53800   0.00000  Uiso   1.00
C448   C     0.44708   0.35252   0.43540   0.00000  Uiso   1.00
C449   C     0.05292   0.64748   0.56460   0.00000  Uiso   1.00
C450   C     0.20553   0.44884   0.64266   0.00000  Uiso   1.00
C451   C     0.29448   0.55116   0.35734   0.00000  Uiso   1.00
C452   C     0.01787   0.40519   0.46436   0.00000  Uiso   1.00
C453   C     0.48213   0.59481   0.53564   0.00000  Uiso   1.00
C454   C     0.24078   0.34401   0.47773   0.00000  Uiso   1.00
C455   C     0.25922   0.65599   0.52227   0.00000  Uiso   1.00
C456   C     0.16469   0.49998   0.50053   0.00000  Uiso   1.00
C457   C     0.33531   0.50002   0.49947   0.00000  Uiso   1.00
C458   C     0.40957   0.54648   0.51440   0.00000  Uiso   1.00
Cu459  Cu    0.25501   0.50579   0.56146   0.00000  Uiso   1.00
Cu460  Cu    0.24500   0.49421   0.43854   0.00000  Uiso   1.00
H461   H     0.39362   0.58308   0.52661   0.00000  Uiso   1.00
H462   H     0.10638   0.41692   0.47339   0.00000  Uiso   1.00
H463   H     0.03408   0.36902   0.44989   0.00000  Uiso   1.00
H464   H     0.46592   0.63098   0.55011   0.00000  Uiso   1.00
H465   H     0.38668   0.38493   0.50366   0.00000  Uiso   1.00
H466   H     0.11332   0.61507   0.49634   0.00000  Uiso   1.00
H467   H     0.20001   0.33641   0.40307   0.00000  Uiso   1.00
H468   H     0.29999   0.66359   0.59693   0.00000  Uiso   1.00
N469   N     0.23745   0.48547   0.34617   0.00000  Uiso   1.00
N470   N     0.26256   0.51453   0.65383   0.00000  Uiso   1.00
N471   N     0.42804   0.64518   0.41399   0.00000  Uiso   1.00
N472   N     0.07196   0.35483   0.58602   0.00000  Uiso   1.00
N473   N     0.17868   0.41801   0.61259   0.00000  Uiso   1.00
N474   N     0.32132   0.58199   0.38741   0.00000  Uiso   1.00
O475   O     0.25326   0.42871   0.53992   0.00000  Uiso   1.00
O476   O     0.12579   0.59452   0.52497   0.00000  Uiso   1.00
O477   O     0.21362   0.64676   0.42789   0.00000  Uiso   1.00
O478   O     0.28638   0.35324   0.57211   0.00000  Uiso   1.00
O479   O     0.24675   0.57129   0.46008   0.00000  Uiso   1.00
O480   O     0.24480   0.41892   0.43612   0.00000  Uiso   1.00
O481   O     0.25520   0.58108   0.56388   0.00000  Uiso   1.00
O482   O     0.18936   0.50488   0.55191   0.00000  Uiso   1.00
O483   O     0.31065   0.49512   0.44809   0.00000  Uiso   1.00
O484   O     0.18090   0.49510   0.44810   0.00000  Uiso   1.00
O485   O     0.31910   0.50490   0.55190   0.00000  Uiso   1.00
O486   O     0.37421   0.40548   0.47503   0.00000  Uiso   1.00
C487   C     0.74723   0.40006   0.48470   0.00000  Uiso   1.00
C488   C     0.59043   0.45352   0.48560   0.00000  Uiso   1.00
C489   C     0.88328   0.49900   0.49808   0.00000  Uiso   1.00
C490   C     0.61672   0.50100   0.50192   0.00000  Uiso   1.00
C491   C     0.90239   0.45078   0.48395   0.00000  Uiso   1.00
C492   C     0.59761   0.54922   0.51605   0.00000  Uiso   1.00
C493   C     0.94962   0.45020   0.48185   0.00000  Uiso   1.00
C494   C     0.55038   0.54980   0.51815   0.00000  Uiso   1.00
C495   C     0.97642   0.49923   0.49955   0.00000  Uiso   1.00
C496   C     0.52359   0.50077   0.50045   0.00000  Uiso   1.00
C497   C     0.95603   0.54696   0.51629   0.00000  Uiso   1.00
C498   C     0.75277   0.59994   0.51530   0.00000  Uiso   1.00
C499   C     0.54397   0.45304   0.48371   0.00000  Uiso   1.00
C500   C     0.97115   0.40321   0.46200   0.00000  Uiso   1.00
C501   C     0.52885   0.59679   0.53800   0.00000  Uiso   1.00
C502   C     0.94708   0.35252   0.43540   0.00000  Uiso   1.00
C503   C     0.55292   0.64748   0.56460   0.00000  Uiso   1.00
C504   C     0.70553   0.44884   0.64266   0.00000  Uiso   1.00
C505   C     0.79448   0.55116   0.35734   0.00000  Uiso   1.00
C506   C     0.51787   0.40519   0.46436   0.00000  Uiso   1.00
C507   C     0.98213   0.59481   0.53564   0.00000  Uiso   1.00
C508   C     0.74078   0.34401   0.47773   0.00000  Uiso   1.00
C509   C     0.75922   0.65599   0.52227   0.00000  Uiso   1.00
C510   C     0.66469   0.49998   0.50053   0.00000  Uiso   1.00
C511   C     0.83531   0.50002   0.49947   0.00000  Uiso   1.00
C512   C     0.90957   0.54648   0.51440   0.00000  Uiso   1.00
Cu513  Cu    0.75501   0.50579   0.56146   0.00000  Uiso   1.00
Cu514  Cu    0.74500   0.49421   0.43854   0.00000  Uiso   1.00
H515   H     0.89362   0.58308   0.52661   0.00000  Uiso   1.00
H516   H     0.60638   0.41692   0.47339   0.00000  Uiso   1.00
H517   H     0.53408   0.36902   0.44989   0.00000  Uiso   1.00
H518   H     0.96592   0.63098   0.55011   0.00000  Uiso   1.00
H519   H     0.88668   0.38493   0.50366   0.00000  Uiso   1.00
H520   H     0.61332   0.61507   0.49634   0.00000  Uiso   1.00
H521   H     0.70001   0.33641   0.40307   0.00000  Uiso   1.00
H522   H     0.79999   0.66359   0.59693   0.00000  Uiso   1.00
N523   N     0.73745   0.48547   0.34617   0.00000  Uiso   1.00
N524   N     0.76256   0.51453   0.65383   0.00000  Uiso   1.00
N525   N     0.92804   0.64518   0.41399   0.00000  Uiso   1.00
N526   N     0.57196   0.35483   0.58602   0.00000  Uiso   1.00
N527   N     0.67868   0.41801   0.61259   0.00000  Uiso   1.00
N528   N     0.82132   0.58199   0.38741   0.00000  Uiso   1.00
O529   O     0.75326   0.42871   0.53992   0.00000  Uiso   1.00
O530   O     0.62579   0.59452   0.52497   0.00000  Uiso   1.00
O531   O     0.71362   0.64676   0.42789   0.00000  Uiso   1.00
O532   O     0.78638   0.35324   0.57211   0.00000  Uiso   1.00
O533   O     0.74675   0.57129   0.46008   0.00000  Uiso   1.00
O534   O     0.74480   0.41892   0.43612   0.00000  Uiso   1.00
O535   O     0.75520   0.58108   0.56388   0.00000  Uiso   1.00
O536   O     0.68936   0.50488   0.55191   0.00000  Uiso   1.00
O537   O     0.81065   0.49512   0.44809   0.00000  Uiso   1.00
O538   O     0.68090   0.49510   0.44810   0.00000  Uiso   1.00
O539   O     0.81910   0.50490   0.55190   0.00000  Uiso   1.00
O540   O     0.87421   0.40548   0.47503   0.00000  Uiso   1.00
C541   C     0.24723   0.73340   0.48470   0.00000  Uiso   1.00
C542   C     0.09043   0.78685   0.48560   0.00000  Uiso   1.00
C543   C     0.38328   0.83234   0.49808   0.00000  Uiso   1.00
C544   C     0.11672   0.83433   0.50192   0.00000  Uiso   1.00
C545   C     0.40239   0.78411   0.48395   0.00000  Uiso   1.00
C546   C     0.09761   0.88256   0.51605   0.00000  Uiso   1.00
C547   C     0.44962   0.78353   0.48185   0.00000  Uiso   1.00
C548   C     0.05038   0.88313   0.51815   0.00000  Uiso   1.00
C549   C     0.47642   0.83257   0.49955   0.00000  Uiso   1.00
C550   C     0.02359   0.83410   0.50045   0.00000  Uiso   1.00
C551   C     0.45603   0.88030   0.51629   0.00000  Uiso   1.00
C552   C     0.25277   0.93327   0.51530   0.00000  Uiso   1.00
C553   C     0.04397   0.78637   0.48371   0.00000  Uiso   1.00
C554   C     0.47115   0.73654   0.46200   0.00000  Uiso   1.00
C555   C     0.02885   0.93012   0.53800   0.00000  Uiso   1.00
C556   C     0.44708   0.68586   0.43540   0.00000  Uiso   1.00
C557   C     0.05292   0.98081   0.56460   0.00000  Uiso   1.00
C558   C     0.20553   0.78217   0.64266   0.00000  Uiso   1.00
C559   C     0.29448   0.88450   0.35734   0.00000  Uiso   1.00
C560   C     0.01787   0.73852   0.46436   0.00000  Uiso   1.00
C561   C     0.48213   0.92815   0.53564   0.00000  Uiso   1.00
C562   C     0.24078   0.67734   0.47773   0.00000  Uiso   1.00
C563   C     0.25922   0.98933   0.52227   0.00000  Uiso   1.00
C564   C     0.16469   0.83331   0.50053   0.00000  Uiso   1.00
C565   C     0.33531   0.83335   0.49947   0.00000  Uiso   1.00
C566   C     0.40957   0.87981   0.51440   0.00000  Uiso   1.00
Cu567  Cu    0.25501   0.83913   0.56146   0.00000  Uiso   1.00
Cu568  Cu    0.24500   0.82754   0.43854   0.00000  Uiso   1.00
H569   H     0.39362   0.91642   0.52661   0.00000  Uiso   1.00
H570   H     0.10638   0.75025   0.47339   0.00000  Uiso   1.00
H571   H     0.03408   0.70236   0.44989   0.00000  Uiso   1.00
H572   H     0.46592   0.96431   0.55011   0.00000  Uiso   1.00
H573   H     0.38668   0.71827   0.50366   0.00000  Uiso   1.00
H574   H     0.11332   0.94840   0.49634   0.00000  Uiso   1.00
H575   H     0.20001   0.66975   0.40307   0.00000  Uiso   1.00
H576   H     0.29999   0.99692   0.59693   0.00000  Uiso   1.00
N577   N     0.23745   0.81881   0.34617   0.00000  Uiso   1.00
N578   N     0.26256   0.84786   0.65383   0.00000  Uiso   1.00
N579   N     0.42804   0.97851   0.41399   0.00000  Uiso   1.00
N580   N     0.07196   0.68816   0.58602   0.00000  Uiso   1.00
N581   N     0.17868   0.75135   0.61259   0.00000  Uiso   1.00
N582   N     0.32132   0.91532   0.38741   0.00000  Uiso   1.00
O583   O     0.25326   0.76204   0.53992   0.00000  Uiso   1.00
O584   O     0.12579   0.92785   0.52497   0.00000  Uiso   1.00
O585   O     0.21362   0.98009   0.42789   0.00000  Uiso   1.00
O586   O     0.28638   0.68657   0.57211   0.00000  Uiso   1.00
O587   O     0.24675   0.90462   0.46008   0.00000  Uiso   1.00
O588   O     0.24480   0.75226   0.43612   0.00000  Uiso   1.00
O589   O     0.25520   0.91441   0.56388   0.00000  Uiso   1.00
O590   O     0.18936   0.83821   0.55191   0.00000  Uiso   1.00
O591   O     0.31065   0.82845   0.44809   0.00000  Uiso   1.00
O592   O     0.18090   0.82843   0.44810   0.00000  Uiso   1.00
O593   O     0.31910   0.83824   0.55190   0.00000  Uiso   1.00
O594   O     0.37421   0.73882   0.47503   0.00000  Uiso   1.00
C595   C     0.74723   0.73340   0.48470   0.00000  Uiso   1.00
C596   C     0.59043   0.78685   0.48560   0.00000  Uiso   1.00
C597   C     0.88328   0.83234   0.49808   0.00000  Uiso   1.00
C598   C     0.61672   0.83433   0.50192   0.00000  Uiso   1.00
C599   C     0.90239   0.78411   0.48395   0.00000  Uiso   1.00
C600   C     0.59761   0.88256   0.51605   0.00000  Uiso   1.00
C601   C     0.94962   0.78353   0.48185   0.00000  Uiso   1.00
C602   C     0.55038   0.88313   0.51815   0.00000  Uiso   1.00
C603   C     0.97642   0.83257   0.49955   0.00000  Uiso   1.00
C604   C     0.52359   0.83410   0.50045   0.00000  Uiso   1.00
C605   C     0.95603   0.88030   0.51629   0.00000  Uiso   1.00
C606   C     0.75277   0.93327   0.51530   0.00000  Uiso   1.00
C607   C     0.54397   0.78637   0.48371   0.00000  Uiso   1.00
C608   C     0.97115   0.73654   0.46200   0.00000  Uiso   1.00
C609   C     0.52885   0.93012   0.53800   0.00000  Uiso   1.00
C610   C     0.94708   0.68586   0.43540   0.00000  Uiso   1.00
C611   C     0.55292   0.98081   0.56460   0.00000  Uiso   1.00
C612   C     0.70553   0.78217   0.64266   0.00000  Uiso   1.00
C613   C     0.79448   0.88450   0.35734   0.00000  Uiso   1.00
C614   C     0.51787   0.73852   0.46436   0.00000  Uiso   1.00
C615   C     0.98213   0.92815   0.53564   0.00000  Uiso   1.00
C616   C     0.74078   0.67734   0.47773   0.00000  Uiso   1.00
C617   C     0.75922   0.98933   0.52227   0.00000  Uiso   1.00
C618   C     0.66469   0.83331   0.50053   0.00000  Uiso   1.00
C619   C     0.83531   0.83335   0.49947   0.00000  Uiso   1.00
C620   C     0.90957   0.87981   0.51440   0.00000  Uiso   1.00
Cu621  Cu    0.75501   0.83913   0.56146   0.00000  Uiso   1.00
Cu622  Cu    0.74500   0.82754   0.43854   0.00000  Uiso   1.00
H623   H     0.89362   0.91642   0.52661   0.00000  Uiso   1.00
H624   H     0.60638   0.75025   0.47339   0.00000  Uiso   1.00
H625   H     0.53408   0.70236   0.44989   0.00000  Uiso   1.00
H626   H     0.96592   0.96431   0.55011   0.00000  Uiso   1.00
H627   H     0.88668   0.71827   0.50366   0.00000  Uiso   1.00
H628   H     0.61332   0.94840   0.49634   0.00000  Uiso   1.00
H629   H     0.70001   0.66975   0.40307   0.00000  Uiso   1.00
H630   H     0.79999   0.99692   0.59693   0.00000  Uiso   1.00
N631   N     0.73745   0.81881   0.34617   0.00000  Uiso   1.00
N632   N     0.76256   0.84786   0.65383   0.00000  Uiso   1.00
N633   N     0.92804   0.97851   0.41399   0.00000  Uiso   1.00
N634   N     0.57196   0.68816   0.58602   0.00000  Uiso   1.00
N635   N     0.67868   0.75135   0.61259   0.00000  Uiso   1.00
N636   N     0.82132   0.91532   0.38741   0.00000  Uiso   1.00
O637   O     0.75326   0.76204   0.53992   0.00000  Uiso   1.00
O638   O     0.62579   0.92785   0.52497   0.00000  Uiso   1.00
O639   O     0.71362   0.98009   0.42789   0.00000  Uiso   1.00
O640   O     0.78638   0.68657   0.57211   0.00000  Uiso   1.00
O641   O     0.74675   0.90462   0.46008   0.00000  Uiso   1.00
O642   O     0.74480   0.75226   0.43612   0.00000  Uiso   1.00
O643   O     0.75520   0.91441   0.56388   0.00000  Uiso   1.00
O644   O     0.68936   0.83821   0.55191   0.00000  Uiso   1.00
O645   O     0.81065   0.82845   0.44809   0.00000  Uiso   1.00
O646   O     0.68090   0.82843   0.44810   0.00000  Uiso   1.00
O647   O     0.81910   0.83824   0.55190   0.00000  Uiso   1.00
O648   O     0.87421   0.73882   0.47503   0.00000  Uiso   1.00
C649   C     0.24723   0.06673   0.81803   0.00000  Uiso   1.00
C650   C     0.09043   0.12019   0.81893   0.00000  Uiso   1.00
C651   C     0.38328   0.16567   0.83141   0.00000  Uiso   1.00
C652   C     0.11672   0.16766   0.83526   0.00000  Uiso   1.00
C653   C     0.40239   0.11744   0.81728   0.00000  Uiso   1.00
C654   C     0.09761   0.21589   0.84938   0.00000  Uiso   1.00
C655   C     0.44962   0.11687   0.81519   0.00000  Uiso   1.00
C656   C     0.05038   0.21647   0.85148   0.00000  Uiso   1.00
C657   C     0.47642   0.16590   0.83288   0.00000  Uiso   1.00
C658   C     0.02359   0.16743   0.83379   0.00000  Uiso   1.00
C659   C     0.45603   0.21363   0.84962   0.00000  Uiso   1.00
C660   C     0.25277   0.26660   0.84863   0.00000  Uiso   1.00
C661   C     0.04397   0.11970   0.81704   0.00000  Uiso   1.00
C662   C     0.47115   0.06988   0.79533   0.00000  Uiso   1.00
C663   C     0.02885   0.26346   0.87133   0.00000  Uiso   1.00
C664   C     0.44708   0.01919   0.76873   0.00000  Uiso   1.00
C665   C     0.05292   0.31414   0.89794   0.00000  Uiso   1.00
C666   C     0.20553   0.11550   0.97599   0.00000  Uiso   1.00
C667   C     0.29448   0.21783   0.69068   0.00000  Uiso   1.00
C668   C     0.01787   0.07185   0.79770   0.00000  Uiso   1.00
C669   C     0.48213   0.26148   0.86897   0.00000  Uiso   1.00
C670   C     0.24078   0.01067   0.81107   0.00000  Uiso   1.00
C671   C     0.25922   0.32266   0.85560   0.00000  Uiso   1.00
C672   C     0.16469   0.16665   0.83386   0.00000  Uiso   1.00
C673   C     0.33531   0.16669   0.83281   0.00000  Uiso   1.00
C674   C     0.40957   0.21315   0.84774   0.00000  Uiso   1.00
Cu675  Cu    0.25501   0.17246   0.89479   0.00000  Uiso   1.00
Cu676  Cu    0.24500   0.16087   0.77187   0.00000  Uiso   1.00
H677   H     0.39362   0.24975   0.85994   0.00000  Uiso   1.00
H678   H     0.10638   0.08358   0.80673   0.00000  Uiso   1.00
H679   H     0.03408   0.03569   0.78323   0.00000  Uiso   1.00
H680   H     0.46592   0.29764   0.88344   0.00000  Uiso   1.00
H681   H     0.38668   0.05160   0.83699   0.00000  Uiso   1.00
H682   H     0.11332   0.28173   0.82967   0.00000  Uiso   1.00
H683   H     0.20001   0.00308   0.73640   0.00000  Uiso   1.00
H684   H     0.29999   0.33025   0.93027   0.00000  Uiso   1.00
N685   N     0.23745   0.15214   0.67951   0.00000  Uiso   1.00
N686   N     0.26256   0.18119   0.98716   0.00000  Uiso   1.00
N687   N     0.42804   0.31184   0.74732   0.00000  Uiso   1.00
N688   N     0.07196   0.02149   0.91935   0.00000  Uiso   1.00
N689   N     0.17868   0.08468   0.94592   0.00000  Uiso   1.00
N690   N     0.32132   0.24865   0.72075   0.00000  Uiso   1.00
O691   O     0.25326   0.09538   0.87326   0.00000  Uiso   1.00
O692   O     0.12579   0.26118   0.85831   0.00000  Uiso   1.00
O693   O     0.21362   0.31343   0.76122   0.00000  Uiso   1.00
O694   O     0.28638   0.01991   0.90545   0.00000  Uiso   1.00
O695   O     0.24675   0.23796   0.79341   0.00000  Uiso   1.00
O696   O     0.24480   0.08559   0.76945   0.00000  Uiso   1.00
O697   O     0.25520   0.24774   0.89721   0.00000  Uiso   1.00
O698   O     0.18936   0.17155   0.88524   0.00000  Uiso   1.00
O699   O     0.31065   0.16179   0.78143   0.00000  Uiso   1.00
O700   O     0.18090   0.16176   0.78143   0.00000  Uiso   1.00
O701   O     0.31910   0.17157   0.88523   0.00000  Uiso   1.00
O702   O     0.37421   0.07215   0.80836   0.00000  Uiso   1.00
C703   C     0.74723   0.06673   0.81803   0.00000  Uiso   1.00
C704   C     0.59043   0.12019   0.81893   0.00000  Uiso   1.00
C705   C     0.88328   0.16567   0.83141   0.00000  Uiso   1.00
C706   C     0.61672   0.16766   0.83526   0.00000  Uiso   1.00
C707   C     0.90239   0.11744   0.81728   0.00000  Uiso   1.00
C708   C     0.59761   0.21589   0.84938   0.00000  Uiso   1.00
C709   C     0.94962   0.11687   0.81519   0.00000  Uiso   1.00
C710   C     0.55038   0.21647   0.85148   0.00000  Uiso   1.00
C711   C     0.97642   0.16590   0.83288   0.00000  Uiso   1.00
C712   C     0.52359   0.16743   0.83379   0.00000  Uiso   1.00
C713   C     0.95603   0.21363   0.84962   0.00000  Uiso   1.00
C714   C     0.75277   0.26660   0.84863   0.00000  Uiso   1.00
C715   C     0.54397   0.11970   0.81704   0.00000  Uiso   1.00
C716   C     0.97115   0.06988   0.79533   0.00000  Uiso   1.00
C717   C     0.52885   0.26346   0.87133   0.00000  Uiso   1.00
C718   C     0.94708   0.01919   0.76873   0.00000  Uiso   1.00
C719   C     0.55292   0.31414   0.89794   0.00000  Uiso   1.00
C720   C     0.70553   0.11550   0.97599   0.00000  Uiso   1.00
C721   C     0.79448   0.21783   0.69068   0.00000  Uiso   1.00
C722   C     0.51787   0.07185   0.79770   0.00000  Uiso   1.00
C723   C     0.98213   0.26148   0.86897   0.00000  Uiso   1.00
C724   C     0.74078   0.01067   0.81107   0.00000  Uiso   1.00
C725   C     0.75922   0.32266   0.85560   0.00000  Uiso   1.00
C726   C     0.66469   0.16665   0.83386   0.00000  Uiso   1.00
C727   C     0.83531   0.16669   0.83281   0.00000  Uiso   1.00
C728   C     0.90957   0.21315   0.84774   0.00000  Uiso   1.00
Cu729  Cu    0.75501   0.17246   0.89479   0.00000  Uiso   1.00
Cu730  Cu    0.74500   0.16087   0.77187   0.00000  Uiso   1.00
H731   H     0.89362   0.24975   0.85994   0.00000  Uiso   1.00
H732   H     0.60638   0.08358   0.80673   0.00000  Uiso   1.00
H733   H     0.53408   0.03569   0.78323   0.00000  Uiso   1.00
H734   H     0.96592   0.29764   0.88344   0.00000  Uiso   1.00
H735   H     0.88668   0.05160   0.83699   0.00000  Uiso   1.00
H736   H     0.61332   0.28173   0.82967   0.00000  Uiso   1.00
H737   H     0.70001   0.00308   0.73640   0.00000  Uiso   1.00
H738   H     0.79999   0.33025   0.93027   0.00000  Uiso   1.00
N739   N     0.73745   0.15214   0.67951   0.00000  Uiso   1.00
N740   N     0.76256   0.18119   0.98716   0.00000  Uiso   1.00
N741   N     0.92804   0.31184   0.74732   0.00000  Uiso   1.00
N742   N     0.57196   0.02149   0.91935   0.00000  Uiso   1.00
N743   N     0.67868   0.08468   0.94592   0.00000  Uiso   1.00
N744   N     0.82132   0.24865   0.72075   0.00000  Uiso   1.00
O745   O     0.75326   0.09538   0.87326   0.00000  Uiso   1.00
O746   O     0.62579   0.26118   0.85831   0.00000  Uiso   1.00
O747   O     0.71362   0.31343   0.76122   0.00000  Uiso   1.00
O748   O     0.78638   0.01991   0.90545   0.00000  Uiso   1.00
O749   O     0.74675   0.23796   0.79341   0.00000  Uiso   1.00
O750   O     0.74480   0.08559   0.76945   0.00000  Uiso   1.00
O751   O     0.75520   0.24774   0.89721   0.00000  Uiso   1.00
O752   O     0.68936   0.17155   0.88524   0.00000  Uiso   1.00
O753   O     0.81065   0.16179   0.78143   0.00000  Uiso   1.00
O754   O     0.68090   0.16176   0.78143   0.00000  Uiso   1.00
O755   O     0.81910   0.17157   0.88523   0.00000  Uiso   1.00
O756   O     0.87421   0.07215   0.80836   0.00000  Uiso   1.00
C757   C     0.24723   0.40006   0.81803   0.00000  Uiso   1.00
C758   C     0.09043   0.45352   0.81893   0.00000  Uiso   1.00
C759   C     0.38328   0.49900   0.83141   0.00000  Uiso   1.00
C760   C     0.11672   0.50100   0.83526   0.00000  Uiso   1.00
C761   C     0.40239   0.45078   0.81728   0.00000  Uiso   1.00
C762   C     0.09761   0.54922   0.84938   0.00000  Uiso   1.00
C763   C     0.44962   0.45020   0.81519   0.00000  Uiso   1.00
C764   C     0.05038   0.54980   0.85148   0.00000  Uiso   1.00
C765   C     0.47642   0.49923   0.83288   0.00000  Uiso   1.00
C766   C     0.02359   0.50077   0.83379   0.00000  Uiso   1.00
C767   C     0.45603   0.54696   0.84962   0.00000  Uiso   1.00
C768   C     0.25277   0.59994   0.84863   0.00000  Uiso   1.00
C769   C     0.04397   0.45304   0.81704   0.00000  Uiso   1.00
C770   C     0.47115   0.40321   0.79533   0.00000  Uiso   1.00
C771   C     0.02885   0.59679   0.87133   0.00000  Uiso   1.00
C772   C     0.44708   0.35252   0.76873   0.00000  Uiso   1.00
C773   C     0.05292   0.64748   0.89794   0.00000  Uiso   1.00
C774   C     0.20553   0.44884   0.97599   0.00000  Uiso   1.00
C775   C     0.29448   0.55116   0.69068   0.00000  Uiso   1.00
C776   C     0.01787   0.40519   0.79770   0.00000  Uiso   1.00
C777   C     0.48213   0.59481   0.86897   0.00000  Uiso   1.00
C778   C     0.24078   0.34401   0.81107   0.00000  Uiso   1.00
C779   C     0.25922   0.65599   0.85560   0.00000  Uiso   1.00
C780   C     0.16469   0.49998   0.83386   0.00000  Uiso   1.00
C781   C     0.33531   0.50002   0.83281   0.00000  Uiso   1.00
C782   C     0.40957   0.54648   0.84774   0.00000  Uiso   1.00
Cu783  Cu    0.25501   0.50579   0.89479   0.00000  Uiso   1.00
Cu784  Cu    0.24500   0.49421   0.77187   0.00000  Uiso   1.00
H785   H     0.39362   0.58308   0.85994   0.00000  Uiso   1.00
H786   H     0.10638   0.41692   0.80673   0.00000  Uiso   1.00
H787   H     0.03408   0.36902   0.78323   0.00000  Uiso   1.00
H788   H     0.46592   0.63098   0.88344   0.00000  Uiso   1.00
H789   H     0.38668   0.38493   0.83699   0.00000  Uiso   1.00
H790   H     0.11332   0.61507   0.82967   0.00000  Uiso   1.00
H791   H     0.20001   0.33641   0.73640   0.00000  Uiso   1.00
H792   H     0.29999   0.66359   0.93027   0.00000  Uiso   1.00
N793   N     0.23745   0.48547   0.67951   0.00000  Uiso   1.00
N794   N     0.26256   0.51453   0.98716   0.00000  Uiso   1.00
N795   N     0.42804   0.64518   0.74732   0.00000  Uiso   1.00
N796   N     0.07196   0.35483   0.91935   0.00000  Uiso   1.00
N797   N     0.17868   0.41801   0.94592   0.00000  Uiso   1.00
N798   N     0.32132   0.58199   0.72075   0.00000  Uiso   1.00
O799   O     0.25326   0.42871   0.87326   0.00000  Uiso   1.00
O800   O     0.12579   0.59452   0.85831   0.00000  Uiso   1.00
O801   O     0.21362   0.64676   0.76122   0.00000  Uiso   1.00
O802   O     0.28638   0.35324   0.90545   0.00000  Uiso   1.00
O803   O     0.24675   0.57129   0.79341   0.00000  Uiso   1.00
O804   O     0.24480   0.41892   0.76945   0.00000  Uiso   1.00
O805   O     0.25520   0.58108   0.89721   0.00000  Uiso   1.00
O806   O     0.18936   0.50488   0.88524   0.00000  Uiso   1.00
O807   O     0.31065   0.49512   0.78143   0.00000  Uiso   1.00
O808   O     0.18090   0.49510   0.78143   0.00000  Uiso   1.00
O809   O     0.31910   0.50490   0.88523   0.00000  Uiso   1.00
O810   O     0.37421   0.40548   0.80836   0.00000  Uiso   1.00
C811   C     0.74723   0.40006   0.81803   0.00000  Uiso   1.00
C812   C     0.59043   0.45352   0.81893   0.00000  Uiso   1.00
C813   C     0.88328   0.49900   0.83141   0.00000  Uiso   1.00
C814   C     0.61672   0.50100   0.83526   0.00000  Uiso   1.00
C815   C     0.90239   0.45078   0.81728   0.00000  Uiso   1.00
C816   C     0.59761   0.54922   0.84938   0.00000  Uiso   1.00
C817   C     0.94962   0.45020   0.81519   0.00000  Uiso   1.00
C818   C     0.55038   0.54980   0.85148   0.00000  Uiso   1.00
C819   C     0.97642   0.49923   0.83288   0.00000  Uiso   1.00
C820   C     0.52359   0.50077   0.83379   0.00000  Uiso   1.00
C821   C     0.95603   0.54696   0.84962   0.00000  Uiso   1.00
C822   C     0.75277   0.59994   0.84863   0.00000  Uiso   1.00
C823   C     0.54397   0.45304   0.81704   0.00000  Uiso   1.00
C824   C     0.97115   0.40321   0.79533   0.00000  Uiso   1.00
C825   C     0.52885   0.59679   0.87133   0.00000  Uiso   1.00
C826   C     0.94708   0.35252   0.76873   0.00000  Uiso   1.00
C827   C     0.55292   0.64748   0.89794   0.00000  Uiso   1.00
C828   C     0.70553   0.44884   0.97599   0.00000  Uiso   1.00
C829   C     0.79448   0.55116   0.69068   0.00000  Uiso   1.00
C830   C     0.51787   0.40519   0.79770   0.00000  Uiso   1.00
C831   C     0.98213   0.59481   0.86897   0.00000  Uiso   1.00
C832   C     0.74078   0.34401   0.81107   0.00000  Uiso   1.00
C833   C     0.75922   0.65599   0.85560   0.00000  Uiso   1.00
C834   C     0.66469   0.49998   0.83386   0.00000  Uiso   1.00
C835   C     0.83531   0.50002   0.83281   0.00000  Uiso   1.00
C836   C     0.90957   0.54648   0.84774   0.00000  Uiso   1.00
Cu837  Cu    0.75501   0.50579   0.89479   0.00000  Uiso   1.00
Cu838  Cu    0.74500   0.49421   0.77187   0.00000  Uiso   1.00
H839   H     0.89362   0.58308   0.85994   0.00000  Uiso   1.00
H840   H     0.60638   0.41692   0.80673   0.00000  Uiso   1.00
H841   H     0.53408   0.36902   0.78323   0.00000  Uiso   1.00
H842   H     0.96592   0.63098   0.88344   0.00000  Uiso   1.00
H843   H     0.88668   0.38493   0.83699   0.00000  Uiso   1.00
H844   H     0.61332   0.61507   0.82967   0.00000  Uiso   1.00
H845   H     0.70001   0.33641   0.73640   0.00000  Uiso   1.00
H846   H     0.79999   0.66359   0.93027   0.00000  Uiso   1.00
N847   N     0.73745   0.48547   0.67951   0.00000  Uiso   1.00
N848   N     0.76256   0.51453   0.98716   0.00000  Uiso   1.00
N849   N     0.92804   0.64518   0.74732   0.00000  Uiso   1.00
N850   N     0.57196   0.35483   0.91935   0.00000  Uiso   1.00
N851   N     0.67868   0.41801   0.94592   0.00000  Uiso   1.00
N852   N     0.82132   0.58199   0.72075   0.00000  Uiso   1.00
O853   O     0.75326   0.42871   0.87326   0.00000  Uiso   1.00
O854   O     0.62579   0.59452   0.85831   0.00000  Uiso   1.00
O855   O     0.71362   0.64676   0.76122   0.00000  Uiso   1.00
O856   O     0.78638   0.35324   0.90545   0.00000  Uiso   1.00
O857   O     0.74675   0.57129   0.79341   0.00000  Uiso   1.00
O858   O     0.74480   0.41892   0.76945   0.00000  Uiso   1.00
O859   O     0.75520   0.58108   0.89721   0.00000  Uiso   1.00
O860   O     0.68936   0.50488   0.88524   0.00000  Uiso   1.00
O861   O     0.81065   0.49512   0.78143   0.00000  Uiso   1.00
O862   O     0.68090   0.49510   0.78143   0.00000  Uiso   1.00
O863   O     0.81910   0.50490   0.88523   0.00000  Uiso   1.00
O864   O     0.87421   0.40548   0.80836   0.00000  Uiso   1.00
C865   C     0.24723   0.73340   0.81803   0.00000  Uiso   1.00
C866   C     0.09043   0.78685   0.81893   0.00000  Uiso   1.00
C867   C     0.38328   0.83234   0.83141   0.00000  Uiso   1.00
C868   C     0.11672   0.83433   0.83526   0.00000  Uiso   1.00
C869   C     0.40239   0.78411   0.81728   0.00000  Uiso   1.00
C870   C     0.09761   0.88256   0.84938   0.00000  Uiso   1.00
C871   C     0.44962   0.78353   0.81519   0.00000  Uiso   1.00
C872   C     0.05038   0.88313   0.85148   0.00000  Uiso   1.00
C873   C     0.47642   0.83257   0.83288   0.00000  Uiso   1.00
C874   C     0.02359   0.83410   0.83379   0.00000  Uiso   1.00
C875   C     0.45603   0.88030   0.84962   0.00000  Uiso   1.00
C876   C     0.25277   0.93327   0.84863   0.00000  Uiso   1.00
C877   C     0.04397   0.78637   0.81704   0.00000  Uiso   1.00
C878   C     0.47115   0.73654   0.79533   0.00000  Uiso   1.00
C879   C     0.02885   0.93012   0.87133   0.00000  Uiso   1.00
C880   C     0.44708   0.68586   0.76873   0.00000  Uiso   1.00
C881   C     0.05292   0.98081   0.89794   0.00000  Uiso   1.00
C882   C     0.20553   0.78217   0.97599   0.00000  Uiso   1.00
C883   C     0.29448   0.88450   0.69068   0.00000  Uiso   1.00
C884   C     0.01787   0.73852   0.79770   0.00000  Uiso   1.00
C885   C     0.48213   0.92815   0.86897   0.00000  Uiso   1.00
C886   C     0.24078   0.67734   0.81107   0.00000  Uiso   1.00
C887   C     0.25922   0.98933   0.85560   0.00000  Uiso   1.00
C888   C     0.16469   0.83331   0.83386   0.00000  Uiso   1.00
C889   C     0.33531   0.83335   0.83281   0.00000  Uiso   1.00
C890   C     0.40957   0.87981   0.84774   0.00000  Uiso   1.00
Cu891  Cu    0.25501   0.83913   0.89479   0.00000  Uiso   1.00
Cu892  Cu    0.24500   0.82754   0.77187   0.00000  Uiso   1.00
H893   H     0.39362   0.91642   0.85994   0.00000  Uiso   1.00
H894   H     0.10638   0.75025   0.80673   0.00000  Uiso   1.00
H895   H     0.03408   0.70236   0.78323   0.00000  Uiso   1.00
H896   H     0.46592   0.96431   0.88344   0.00000  Uiso   1.00
H897   H     0.38668   0.71827   0.83699   0.00000  Uiso   1.00
H898   H     0.11332   0.94840   0.82967   0.00000  Uiso   1.00
H899   H     0.20001   0.66975   0.73640   0.00000  Uiso   1.00
H900   H     0.29999   0.99692   0.93027   0.00000  Uiso   1.00
N901   N     0.23745   0.81881   0.67951   0.00000  Uiso   1.00
N902   N     0.26256   0.84786   0.98716   0.00000  Uiso   1.00
N903   N     0.42804   0.97851   0.74732   0.00000  Uiso   1.00
N904   N     0.07196   0.68816   0.91935   0.00000  Uiso   1.00
N905   N     0.17868   0.75135   0.94592   0.00000  Uiso   1.00
N906   N     0.32132   0.91532   0.72075   0.00000  Uiso   1.00
O907   O     0.25326   0.76204   0.87326   0.00000  Uiso   1.00
O908   O     0.12579   0.92785   0.85831   0.00000  Uiso   1.00
O909   O     0.21362   0.98009   0.76122   0.00000  Uiso   1.00
O910   O     0.28638   0.68657   0.90545   0.00000  Uiso   1.00
O911   O     0.24675   0.90462   0.79341   0.00000  Uiso   1.00
O912   O     0.24480   0.75226   0.76945   0.00000  Uiso   1.00
O913   O     0.25520   0.91441   0.89721   0.00000  Uiso   1.00
O914   O     0.18936   0.83821   0.88524   0.00000  Uiso   1.00
O915   O     0.31065   0.82845   0.78143   0.00000  Uiso   1.00
O916   O     0.18090   0.82843   0.78143   0.00000  Uiso   1.00
O917   O     0.31910   0.83824   0.88523   0.00000  Uiso   1.00
O918   O     0.37421   0.73882   0.80836   0.00000  Uiso   1.00
C919   C     0.74723   0.73340   0.81803   0.00000  Uiso   1.00
C920   C     0.59043   0.78685   0.81893   0.00000  Uiso   1.00
C921   C     0.88328   0.83234   0.83141   0.00000  Uiso   1.00
C922   C     0.61672   0.83433   0.83526   0.00000  Uiso   1.00
C923   C     0.90239   0.78411   0.81728   0.00000  Uiso   1.00
C924   C     0.59761   0.88256   0.84938   0.00000  Uiso   1.00
C925   C     0.94962   0.78353   0.81519   0.00000  Uiso   1.00
C926   C     0.55038   0.88313   0.85148   0.00000  Uiso   1.00
C927   C     0.97642   0.83257   0.83288   0.00000  Uiso   1.00
C928   C     0.52359   0.83410   0.83379   0.00000  Uiso   1.00
C929   C     0.95603   0.88030   0.84962   0.00000  Uiso   1.00
C930   C     0.75277   0.93327   0.84863   0.00000  Uiso   1.00
C931   C     0.54397   0.78637   0.81704   0.00000  Uiso   1.00
C932   C     0.97115   0.73654   0.79533   0.00000  Uiso   1.00
C933   C     0.52885   0.93012   0.87133   0.00000  Uiso   1.00
C934   C     0.94708   0.68586   0.76873   0.00000  Uiso   1.00
C935   C     0.55292   0.98081   0.89794   0.00000  Uiso   1.00
C936   C     0.70553   0.78217   0.97599   0.00000  Uiso   1.00
C937   C     0.79448   0.88450   0.69068   0.00000  Uiso   1.00
C938   C     0.51787   0.73852   0.79770   0.00000  Uiso   1.00
C939   C     0.98213   0.92815   0.86897   0.00000  Uiso   1.00
C940   C     0.74078   0.67734   0.81107   0.00000  Uiso   1.00
C941   C     0.75922   0.98933   0.85560   0.00000  Uiso   1.00
C942   C     0.66469   0.83331   0.83386   0.00000  Uiso   1.00
C943   C     0.83531   0.83335   0.83281   0.00000  Uiso   1.00
C944   C     0.90957   0.87981   0.84774   0.00000  Uiso   1.00
Cu945  Cu    0.75501   0.83913   0.89479   0.00000  Uiso   1.00
Cu946  Cu    0.74500   0.82754   0.77187   0.00000  Uiso   1.00
H947   H     0.89362   0.91642   0.85994   0.00000  Uiso   1.00
H948   H     0.60638   0.75025   0.80673   0.00000  Uiso   1.00
H949   H     0.53408   0.70236   0.78323   0.00000  Uiso   1.00
H950   H     0.96592   0.96431   0.88344   0.00000  Uiso   1.00
H951   H     0.88668   0.71827   0.83699   0.00000  Uiso   1.00
H952   H     0.61332   0.94840   0.82967   0.00000  Uiso   1.00
H953   H     0.70001   0.66975   0.73640   0.00000  Uiso   1.00
H954   H     0.79999   0.99692   0.93027   0.00000  Uiso   1.00
N955   N     0.73745   0.81881   0.67951   0.00000  Uiso   1.00
N956   N     0.76256   0.84786   0.98716   0.00000  Uiso   1.00
N957   N     0.92804   0.97851   0.74732   0.00000  Uiso   1.00
N958   N     0.57196   0.68816   0.91935   0.00000  Uiso   1.00
N959   N     0.67868   0.75135   0.94592   0.00000  Uiso   1.00
N960   N     0.82132   0.91532   0.72075   0.00000  Uiso   1.00
O961   O     0.75326   0.76204   0.87326   0.00000  Uiso   1.00
O962   O     0.62579   0.92785   0.85831   0.00000  Uiso   1.00
O963   O     0.71362   0.98009   0.76122   0.00000  Uiso   1.00
O964   O     0.78638   0.68657   0.90545   0.00000  Uiso   1.00
O965   O     0.74675   0.90462   0.79341   0.00000  Uiso   1.00
O966   O     0.74480   0.75226   0.76945   0.00000  Uiso   1.00
O967   O     0.75520   0.91441   0.89721   0.00000  Uiso   1.00
O968   O     0.68936   0.83821   0.88524   0.00000  Uiso   1.00
O969   O     0.81065   0.82845   0.78143   0.00000  Uiso   1.00
O970   O     0.68090   0.82843   0.78143   0.00000  Uiso   1.00
O971   O     0.81910   0.83824   0.88523   0.00000  Uiso   1.00
O972   O     0.87421   0.73882   0.80836   0.00000  Uiso   1.00
loop_
_geom_bond_atom_site_label_1
_geom_bond_atom_site_label_2
_geom_bond_distance
_geom_bond_site_symmetry_2
_ccdc_geom_bond_type
C1     O48     1.295   .     A
C1     C22     1.438   .     S
C1     O43     1.292   .     A
C2     C4      1.387   .     A
C2     H30     1.086   .     S
C2     C13     1.387   .     A
C3     C26     1.387   .     A
C3     C25     1.440   .     S
C3     C5      1.399   .     A
C4     C24     1.440   .     S
C4     C6      1.399   .     A
C5     C7      1.419   .     A
C5     O54     1.378   .     S
C6     O44     1.378   .     S
C6     C8      1.419   .     A
C7     C9      1.428   .     A
C7     C14     1.422   .     A
C8     C10     1.428   .     A
C8     C15     1.422   .     A
C9     C11     1.411   .     A
C9     C64     1.408   .     S
C10    C13     1.411   .     A
C10    C63     1.408   1_455 S
C11    C26     1.387   .     A
C11    C21     1.395   .     A
C12    O49     1.295   .     A
C12    C23     1.438   .     S
C12    O47     1.292   .     A
C13    C20     1.395   .     A
C14    C16     1.446   .     S
C14    C74     1.392   .     S
C15    C17     1.446   .     S
C15    C75     1.392   1_455 S
C16    N255    1.158   1_545 S
C17    N148    1.158   .     S
C18    N41     1.158   .     T
C18    N361    1.386   .     S
C19    N42     1.158   .     T
C19    N686    1.386   1_554 S
C20    H31     1.086   .     S
C20    C68     1.392   1_455 S
C21    H32     1.086   .     S
C21    C69     1.392   .     S
C22    C239    1.348   1_545 S
C22    O261    1.389   1_545 S
C23    C130    1.348   .     S
C23    O154    1.389   .     S
C24    O52     1.296   .     A
C24    O50     1.297   .     A
C25    O51     1.297   .     A
C25    O53     1.296   .     A
C26    H29     1.086   .     S
Cu27   O53     1.949   .     S
Cu27   O43     1.961   .     S
Cu27   Cu28    2.705   .     S
Cu27   O50     1.957   .     S
Cu27   N38     2.033   .     S
Cu27   O49     1.956   .     S
Cu28   O47     1.961   .     S
Cu28   O52     1.949   .     S
Cu28   N37     2.033   .     S
Cu28   O51     1.957   .     S
Cu28   O48     1.956   .     S
H33    O54     0.992   .     S
H34    O44     0.992   .     S
H35    O261    0.991   1_545 S
H36    O154    0.991   .     S
N37    C666    1.386   1_554 S
N37    N686    1.294   1_554 S
N38    N361    1.294   .     S
N38    C343    1.386   .     S
N39    C124    1.158   .     S
N40    C233    1.158   1_545 S
O45    H143    0.991   .     S
O45    C130    1.389   .     S
O46    H252    0.991   1_545 S
O46    C239    1.389   1_545 S
C55    O102    1.295   .     A
C55    C76     1.438   .     S
C55    O97     1.292   .     A
C56    C58     1.387   .     A
C56    H84     1.086   .     S
C56    C67     1.387   .     A
C57    C80     1.387   .     A
C57    C79     1.440   .     S
C57    C59     1.399   .     A
C58    C78     1.440   .     S
C58    C60     1.399   .     A
C59    C61     1.419   .     A
C59    O108    1.378   .     S
C60    O98     1.378   .     S
C60    C62     1.419   .     A
C61    C63     1.428   .     A
C61    C68     1.422   .     A
C62    C64     1.428   .     A
C62    C69     1.422   .     A
C63    C65     1.411   .     A
C63    C10     1.408   1_655 S
C64    C67     1.411   .     A
C65    C80     1.387   .     A
C65    C75     1.395   .     A
C66    O103    1.295   .     A
C66    C77     1.438   .     S
C66    O101    1.292   .     A
C67    C74     1.395   .     A
C68    C70     1.446   .     S
C68    C20     1.392   1_655 S
C69    C71     1.446   .     S
C70    N309    1.158   1_545 S
C71    N202    1.158   .     S
C72    N95     1.158   .     T
C72    N415    1.386   .     S
C73    N96     1.158   .     T
C73    N740    1.386   1_554 S
C74    H85     1.086   .     S
C75    H86     1.086   .     S
C75    C15     1.392   1_655 S
C76    C293    1.348   1_545 S
C76    O315    1.389   1_545 S
C77    C184    1.348   .     S
C77    O208    1.389   .     S
C78    O106    1.296   .     A
C78    O104    1.297   .     A
C79    O105    1.297   .     A
C79    O107    1.296   .     A
C80    H83     1.086   .     S
Cu81   O107    1.949   .     S
Cu81   O97     1.961   .     S
Cu81   Cu82    2.705   .     S
Cu81   O104    1.957   .     S
Cu81   N92     2.033   .     S
Cu81   O103    1.956   .     S
Cu82   O101    1.961   .     S
Cu82   O106    1.949   .     S
Cu82   N91     2.033   .     S
Cu82   O105    1.957   .     S
Cu82   O102    1.956   .     S
H87    O108    0.992   .     S
H88    O98     0.992   .     S
H89    O315    0.991   1_545 S
H90    O208    0.991   .     S
N91    C720    1.386   1_554 S
N91    N740    1.294   1_554 S
N92    N415    1.294   .     S
N92    C397    1.386   .     S
N93    C178    1.158   .     S
N94    C287    1.158   1_545 S
O99    H197    0.991   .     S
O99    C184    1.389   .     S
O100   H306    0.991   1_545 S
O100   C293    1.389   1_545 S
C109   O156    1.295   .     A
C109   C130    1.438   .     S
C109   O151    1.292   .     A
C110   C112    1.387   .     A
C110   H138    1.086   .     S
C110   C121    1.387   .     A
C111   C134    1.387   .     A
C111   C133    1.440   .     S
C111   C113    1.399   .     A
C112   C132    1.440   .     S
C112   C114    1.399   .     A
C113   C115    1.419   .     A
C113   O162    1.378   .     S
C114   O152    1.378   .     S
C114   C116    1.419   .     A
C115   C117    1.428   .     A
C115   C122    1.422   .     A
C116   C118    1.428   .     A
C116   C123    1.422   .     A
C117   C119    1.411   .     A
C117   C172    1.408   .     S
C118   C121    1.411   .     A
C118   C171    1.408   1_455 S
C119   C134    1.387   .     A
C119   C129    1.395   .     A
C120   O157    1.295   .     A
C120   C131    1.438   .     S
C120   O155    1.292   .     A
C121   C128    1.395   .     A
C122   C124    1.446   .     S
C122   C182    1.392   .     S
C123   C125    1.446   .     S
C123   C183    1.392   1_455 S
C125   N256    1.158   .     S
C126   N149    1.158   .     T
C126   N469    1.386   .     S
C127   N150    1.158   .     T
C127   N794    1.386   1_554 S
C128   H139    1.086   .     S
C128   C176    1.392   1_455 S
C129   H140    1.086   .     S
C129   C177    1.392   .     S
C131   C238    1.348   .     S
C131   O262    1.389   .     S
C132   O160    1.296   .     A
C132   O158    1.297   .     A
C133   O159    1.297   .     A
C133   O161    1.296   .     A
C134   H137    1.086   .     S
Cu135  O161    1.949   .     S
Cu135  O151    1.961   .     S
Cu135  Cu136   2.705   .     S
Cu135  O158    1.957   .     S
Cu135  N146    2.033   .     S
Cu135  O157    1.956   .     S
Cu136  O155    1.961   .     S
Cu136  O160    1.949   .     S
Cu136  N145    2.033   .     S
Cu136  O159    1.957   .     S
Cu136  O156    1.956   .     S
H141   O162    0.992   .     S
H142   O152    0.992   .     S
H144   O262    0.991   .     S
N145   C774    1.386   1_554 S
N145   N794    1.294   1_554 S
N146   N469    1.294   .     S
N146   C451    1.386   .     S
N147   C232    1.158   .     S
O153   H251    0.991   .     S
O153   C238    1.389   .     S
C163   O210    1.295   .     A
C163   C184    1.438   .     S
C163   O205    1.292   .     A
C164   C166    1.387   .     A
C164   H192    1.086   .     S
C164   C175    1.387   .     A
C165   C188    1.387   .     A
C165   C187    1.440   .     S
C165   C167    1.399   .     A
C166   C186    1.440   .     S
C166   C168    1.399   .     A
C167   C169    1.419   .     A
C167   O216    1.378   .     S
C168   O206    1.378   .     S
C168   C170    1.419   .     A
C169   C171    1.428   .     A
C169   C176    1.422   .     A
C170   C172    1.428   .     A
C170   C177    1.422   .     A
C171   C173    1.411   .     A
C171   C118    1.408   1_655 S
C172   C175    1.411   .     A
C173   C188    1.387   .     A
C173   C183    1.395   .     A
C174   O211    1.295   .     A
C174   C185    1.438   .     S
C174   O209    1.292   .     A
C175   C182    1.395   .     A
C176   C178    1.446   .     S
C176   C128    1.392   1_655 S
C177   C179    1.446   .     S
C179   N310    1.158   .     S
C180   N203    1.158   .     T
C180   N523    1.386   .     S
C181   N204    1.158   .     T
C181   N848    1.386   1_554 S
C182   H193    1.086   .     S
C183   H194    1.086   .     S
C183   C123    1.392   1_655 S
C185   C292    1.348   .     S
C185   O316    1.389   .     S
C186   O214    1.296   .     A
C186   O212    1.297   .     A
C187   O213    1.297   .     A
C187   O215    1.296   .     A
C188   H191    1.086   .     S
Cu189  O215    1.949   .     S
Cu189  O205    1.961   .     S
Cu189  Cu190   2.705   .     S
Cu189  O212    1.957   .     S
Cu189  N200    2.033   .     S
Cu189  O211    1.956   .     S
Cu190  O209    1.961   .     S
Cu190  O214    1.949   .     S
Cu190  N199    2.033   .     S
Cu190  O213    1.957   .     S
Cu190  O210    1.956   .     S
H195   O216    0.992   .     S
H196   O206    0.992   .     S
H198   O316    0.991   .     S
N199   C828    1.386   1_554 S
N199   N848    1.294   1_554 S
N200   N523    1.294   .     S
N200   C505    1.386   .     S
N201   C286    1.158   .     S
O207   H305    0.991   .     S
O207   C292    1.389   .     S
C217   O264    1.295   .     A
C217   C238    1.438   .     S
C217   O259    1.292   .     A
C218   C220    1.387   .     A
C218   H246    1.086   .     S
C218   C229    1.387   .     A
C219   C242    1.387   .     A
C219   C241    1.440   .     S
C219   C221    1.399   .     A
C220   C240    1.440   .     S
C220   C222    1.399   .     A
C221   C223    1.419   .     A
C221   O270    1.378   .     S
C222   O260    1.378   .     S
C222   C224    1.419   .     A
C223   C225    1.428   .     A
C223   C230    1.422   .     A
C224   C226    1.428   .     A
C224   C231    1.422   .     A
C225   C227    1.411   .     A
C225   C280    1.408   .     S
C226   C229    1.411   .     A
C226   C279    1.408   1_455 S
C227   C242    1.387   .     A
C227   C237    1.395   .     A
C228   O265    1.295   .     A
C228   C239    1.438   .     S
C228   O263    1.292   .     A
C229   C236    1.395   .     A
C230   C232    1.446   .     S
C230   C290    1.392   .     S
C231   C233    1.446   .     S
C231   C291    1.392   1_455 S
C233   N40     1.158   1_565 S
C234   N257    1.158   .     T
C234   N577    1.386   .     S
C235   N258    1.158   .     T
C235   N902    1.386   1_554 S
C236   H247    1.086   .     S
C236   C284    1.392   1_455 S
C237   H248    1.086   .     S
C237   C285    1.392   .     S
C239   C22     1.348   1_565 S
C239   O46     1.389   1_565 S
C240   O268    1.296   .     A
C240   O266    1.297   .     A
C241   O267    1.297   .     A
C241   O269    1.296   .     A
C242   H245    1.086   .     S
Cu243  O269    1.949   .     S
Cu243  O259    1.961   .     S
Cu243  Cu244   2.705   .     S
Cu243  O266    1.957   .     S
Cu243  N254    2.033   .     S
Cu243  O265    1.956   .     S
Cu244  O263    1.961   .     S
Cu244  O268    1.949   .     S
Cu244  N253    2.033   .     S
Cu244  O267    1.957   .     S
Cu244  O264    1.956   .     S
H249   O270    0.992   .     S
H250   O260    0.992   .     S
H252   O46     0.991   1_565 S
N253   C882    1.386   1_554 S
N253   N902    1.294   1_554 S
N254   N577    1.294   .     S
N254   C559    1.386   .     S
N255   C16     1.158   1_565 S
O261   H35     0.991   1_565 S
O261   C22     1.389   1_565 S
C271   O318    1.295   .     A
C271   C292    1.438   .     S
C271   O313    1.292   .     A
C272   C274    1.387   .     A
C272   H300    1.086   .     S
C272   C283    1.387   .     A
C273   C296    1.387   .     A
C273   C295    1.440   .     S
C273   C275    1.399   .     A
C274   C294    1.440   .     S
C274   C276    1.399   .     A
C275   C277    1.419   .     A
C275   O324    1.378   .     S
C276   O314    1.378   .     S
C276   C278    1.419   .     A
C277   C279    1.428   .     A
C277   C284    1.422   .     A
C278   C280    1.428   .     A
C278   C285    1.422   .     A
C279   C281    1.411   .     A
C279   C226    1.408   1_655 S
C280   C283    1.411   .     A
C281   C296    1.387   .     A
C281   C291    1.395   .     A
C282   O319    1.295   .     A
C282   C293    1.438   .     S
C282   O317    1.292   .     A
C283   C290    1.395   .     A
C284   C286    1.446   .     S
C284   C236    1.392   1_655 S
C285   C287    1.446   .     S
C287   N94     1.158   1_565 S
C288   N311    1.158   .     T
C288   N631    1.386   .     S
C289   N312    1.158   .     T
C289   N956    1.386   1_554 S
C290   H301    1.086   .     S
C291   H302    1.086   .     S
C291   C231    1.392   1_655 S
C293   C76     1.348   1_565 S
C293   O100    1.389   1_565 S
C294   O322    1.296   .     A
C294   O320    1.297   .     A
C295   O321    1.297   .     A
C295   O323    1.296   .     A
C296   H299    1.086   .     S
Cu297  O323    1.949   .     S
Cu297  O313    1.961   .     S
Cu297  Cu298   2.705   .     S
Cu297  O320    1.957   .     S
Cu297  N308    2.033   .     S
Cu297  O319    1.956   .     S
Cu298  O317    1.961   .     S
Cu298  O322    1.949   .     S
Cu298  N307    2.033   .     S
Cu298  O321    1.957   .     S
Cu298  O318    1.956   .     S
H303   O324    0.992   .     S
H304   O314    0.992   .     S
H306   O100    0.991   1_565 S
N307   C936    1.386   1_554 S
N307   N956    1.294   1_554 S
N308   N631    1.294   .     S
N308   C613    1.386   .     S
N309   C70     1.158   1_565 S
O315   H89     0.991   1_565 S
O315   C76     1.389   1_565 S
C325   O372    1.295   .     A
C325   C346    1.438   .     S
C325   O367    1.292   .     A
C326   C328    1.387   .     A
C326   H354    1.086   .     S
C326   C337    1.387   .     A
C327   C350    1.387   .     A
C327   C349    1.440   .     S
C327   C329    1.399   .     A
C328   C348    1.440   .     S
C328   C330    1.399   .     A
C329   C331    1.419   .     A
C329   O378    1.378   .     S
C330   O368    1.378   .     S
C330   C332    1.419   .     A
C331   C333    1.428   .     A
C331   C338    1.422   .     A
C332   C334    1.428   .     A
C332   C339    1.422   .     A
C333   C335    1.411   .     A
C333   C388    1.408   .     S
C334   C337    1.411   .     A
C334   C387    1.408   1_455 S
C335   C350    1.387   .     A
C335   C345    1.395   .     A
C336   O373    1.295   .     A
C336   C347    1.438   .     S
C336   O371    1.292   .     A
C337   C344    1.395   .     A
C338   C340    1.446   .     S
C338   C398    1.392   .     S
C339   C341    1.446   .     S
C339   C399    1.392   1_455 S
C340   N579    1.158   1_545 S
C341   N472    1.158   .     S
C342   N365    1.158   .     T
C342   N685    1.386   .     S
C343   N366    1.158   .     T
C344   H355    1.086   .     S
C344   C392    1.392   1_455 S
C345   H356    1.086   .     S
C345   C393    1.392   .     S
C346   C563    1.348   1_545 S
C346   O585    1.389   1_545 S
C347   C454    1.348   .     S
C347   O478    1.389   .     S
C348   O376    1.296   .     A
C348   O374    1.297   .     A
C349   O375    1.297   .     A
C349   O377    1.296   .     A
C350   H353    1.086   .     S
Cu351  O377    1.949   .     S
Cu351  O367    1.961   .     S
Cu351  Cu352   2.705   .     S
Cu351  O374    1.957   .     S
Cu351  N362    2.033   .     S
Cu351  O373    1.956   .     S
Cu352  O371    1.961   .     S
Cu352  O376    1.949   .     S
Cu352  N361    2.033   .     S
Cu352  O375    1.957   .     S
Cu352  O372    1.956   .     S
H357   O378    0.992   .     S
H358   O368    0.992   .     S
H359   O585    0.991   1_545 S
H360   O478    0.991   .     S
N362   N685    1.294   .     S
N362   C667    1.386   .     S
N363   C448    1.158   .     S
N364   C557    1.158   1_545 S
O369   H467    0.991   .     S
O369   C454    1.389   .     S
O370   H576    0.991   1_545 S
O370   C563    1.389   1_545 S
C379   O426    1.295   .     A
C379   C400    1.438   .     S
C379   O421    1.292   .     A
C380   C382    1.387   .     A
C380   H408    1.086   .     S
C380   C391    1.387   .     A
C381   C404    1.387   .     A
C381   C403    1.440   .     S
C381   C383    1.399   .     A
C382   C402    1.440   .     S
C382   C384    1.399   .     A
C383   C385    1.419   .     A
C383   O432    1.378   .     S
C384   O422    1.378   .     S
C384   C386    1.419   .     A
C385   C387    1.428   .     A
C385   C392    1.422   .     A
C386   C388    1.428   .     A
C386   C393    1.422   .     A
C387   C389    1.411   .     A
C387   C334    1.408   1_655 S
C388   C391    1.411   .     A
C389   C404    1.387   .     A
C389   C399    1.395   .     A
C390   O427    1.295   .     A
C390   C401    1.438   .     S
C390   O425    1.292   .     A
C391   C398    1.395   .     A
C392   C394    1.446   .     S
C392   C344    1.392   1_655 S
C393   C395    1.446   .     S
C394   N633    1.158   1_545 S
C395   N526    1.158   .     S
C396   N419    1.158   .     T
C396   N739    1.386   .     S
C397   N420    1.158   .     T
C398   H409    1.086   .     S
C399   H410    1.086   .     S
C399   C339    1.392   1_655 S
C400   C617    1.348   1_545 S
C400   O639    1.389   1_545 S
C401   C508    1.348   .     S
C401   O532    1.389   .     S
C402   O430    1.296   .     A
C402   O428    1.297   .     A
C403   O429    1.297   .     A
C403   O431    1.296   .     A
C404   H407    1.086   .     S
Cu405  O431    1.949   .     S
Cu405  O421    1.961   .     S
Cu405  Cu406   2.705   .     S
Cu405  O428    1.957   .     S
Cu405  N416    2.033   .     S
Cu405  O427    1.956   .     S
Cu406  O425    1.961   .     S
Cu406  O430    1.949   .     S
Cu406  N415    2.033   .     S
Cu406  O429    1.957   .     S
Cu406  O426    1.956   .     S
H411   O432    0.992   .     S
H412   O422    0.992   .     S
H413   O639    0.991   1_545 S
H414   O532    0.991   .     S
N416   N739    1.294   .     S
N416   C721    1.386   .     S
N417   C502    1.158   .     S
N418   C611    1.158   1_545 S
O423   H521    0.991   .     S
O423   C508    1.389   .     S
O424   H630    0.991   1_545 S
O424   C617    1.389   1_545 S
C433   O480    1.295   .     A
C433   C454    1.438   .     S
C433   O475    1.292   .     A
C434   C436    1.387   .     A
C434   H462    1.086   .     S
C434   C445    1.387   .     A
C435   C458    1.387   .     A
C435   C457    1.440   .     S
C435   C437    1.399   .     A
C436   C456    1.440   .     S
C436   C438    1.399   .     A
C437   C439    1.419   .     A
C437   O486    1.378   .     S
C438   O476    1.378   .     S
C438   C440    1.419   .     A
C439   C441    1.428   .     A
C439   C446    1.422   .     A
C440   C442    1.428   .     A
C440   C447    1.422   .     A
C441   C443    1.411   .     A
C441   C496    1.408   .     S
C442   C445    1.411   .     A
C442   C495    1.408   1_455 S
C443   C458    1.387   .     A
C443   C453    1.395   .     A
C444   O481    1.295   .     A
C444   C455    1.438   .     S
C444   O479    1.292   .     A
C445   C452    1.395   .     A
C446   C448    1.446   .     S
C446   C506    1.392   .     S
C447   C449    1.446   .     S
C447   C507    1.392   1_455 S
C449   N580    1.158   .     S
C450   N473    1.158   .     T
C450   N793    1.386   .     S
C451   N474    1.158   .     T
C452   H463    1.086   .     S
C452   C500    1.392   1_455 S
C453   H464    1.086   .     S
C453   C501    1.392   .     S
C455   C562    1.348   .     S
C455   O586    1.389   .     S
C456   O484    1.296   .     A
C456   O482    1.297   .     A
C457   O483    1.297   .     A
C457   O485    1.296   .     A
C458   H461    1.086   .     S
Cu459  O485    1.949   .     S
Cu459  O475    1.961   .     S
Cu459  Cu460   2.705   .     S
Cu459  O482    1.957   .     S
Cu459  N470    2.033   .     S
Cu459  O481    1.956   .     S
Cu460  O479    1.961   .     S
Cu460  O484    1.949   .     S
Cu460  N469    2.033   .     S
Cu460  O483    1.957   .     S
Cu460  O480    1.956   .     S
H465   O486    0.992   .     S
H466   O476    0.992   .     S
H468   O586    0.991   .     S
N470   N793    1.294   .     S
N470   C775    1.386   .     S
N471   C556    1.158   .     S
O477   H575    0.991   .     S
O477   C562    1.389   .     S
C487   O534    1.295   .     A
C487   C508    1.438   .     S
C487   O529    1.292   .     A
C488   C490    1.387   .     A
C488   H516    1.086   .     S
C488   C499    1.387   .     A
C489   C512    1.387   .     A
C489   C511    1.440   .     S
C489   C491    1.399   .     A
C490   C510    1.440   .     S
C490   C492    1.399   .     A
C491   C493    1.419   .     A
C491   O540    1.378   .     S
C492   O530    1.378   .     S
C492   C494    1.419   .     A
C493   C495    1.428   .     A
C493   C500    1.422   .     A
C494   C496    1.428   .     A
C494   C501    1.422   .     A
C495   C497    1.411   .     A
C495   C442    1.408   1_655 S
C496   C499    1.411   .     A
C497   C512    1.387   .     A
C497   C507    1.395   .     A
C498   O535    1.295   .     A
C498   C509    1.438   .     S
C498   O533    1.292   .     A
C499   C506    1.395   .     A
C500   C502    1.446   .     S
C500   C452    1.392   1_655 S
C501   C503    1.446   .     S
C503   N634    1.158   .     S
C504   N527    1.158   .     T
C504   N847    1.386   .     S
C505   N528    1.158   .     T
C506   H517    1.086   .     S
C507   H518    1.086   .     S
C507   C447    1.392   1_655 S
C509   C616    1.348   .     S
C509   O640    1.389   .     S
C510   O538    1.296   .     A
C510   O536    1.297   .     A
C511   O537    1.297   .     A
C511   O539    1.296   .     A
C512   H515    1.086   .     S
Cu513  O539    1.949   .     S
Cu513  O529    1.961   .     S
Cu513  Cu514   2.705   .     S
Cu513  O536    1.957   .     S
Cu513  N524    2.033   .     S
Cu513  O535    1.956   .     S
Cu514  O533    1.961   .     S
Cu514  O538    1.949   .     S
Cu514  N523    2.033   .     S
Cu514  O537    1.957   .     S
Cu514  O534    1.956   .     S
H519   O540    0.992   .     S
H520   O530    0.992   .     S
H522   O640    0.991   .     S
N524   N847    1.294   .     S
N524   C829    1.386   .     S
N525   C610    1.158   .     S
O531   H629    0.991   .     S
O531   C616    1.389   .     S
C541   O588    1.295   .     A
C541   C562    1.438   .     S
C541   O583    1.292   .     A
C542   C544    1.387   .     A
C542   H570    1.086   .     S
C542   C553    1.387   .     A
C543   C566    1.387   .     A
C543   C565    1.440   .     S
C543   C545    1.399   .     A
C544   C564    1.440   .     S
C544   C546    1.399   .     A
C545   C547    1.419   .     A
C545   O594    1.378   .     S
C546   O584    1.378   .     S
C546   C548    1.419   .     A
C547   C549    1.428   .     A
C547   C554    1.422   .     A
C548   C550    1.428   .     A
C548   C555    1.422   .     A
C549   C551    1.411   .     A
C549   C604    1.408   .     S
C550   C553    1.411   .     A
C550   C603    1.408   1_455 S
C551   C566    1.387   .     A
C551   C561    1.395   .     A
C552   O589    1.295   .     A
C552   C563    1.438   .     S
C552   O587    1.292   .     A
C553   C560    1.395   .     A
C554   C556    1.446   .     S
C554   C614    1.392   .     S
C555   C557    1.446   .     S
C555   C615    1.392   1_455 S
C557   N364    1.158   1_565 S
C558   N581    1.158   .     T
C558   N901    1.386   .     S
C559   N582    1.158   .     T
C560   H571    1.086   .     S
C560   C608    1.392   1_455 S
C561   H572    1.086   .     S
C561   C609    1.392   .     S
C563   C346    1.348   1_565 S
C563   O370    1.389   1_565 S
C564   O592    1.296   .     A
C564   O590    1.297   .     A
C565   O591    1.297   .     A
C565   O593    1.296   .     A
C566   H569    1.086   .     S
Cu567  O593    1.949   .     S
Cu567  O583    1.961   .     S
Cu567  Cu568   2.705   .     S
Cu567  O590    1.957   .     S
Cu567  N578    2.033   .     S
Cu567  O589    1.956   .     S
Cu568  O587    1.961   .     S
Cu568  O592    1.949   .     S
Cu568  N577    2.033   .     S
Cu568  O591    1.957   .     S
Cu568  O588    1.956   .     S
H573   O594    0.992   .     S
H574   O584    0.992   .     S
H576   O370    0.991   1_565 S
N578   N901    1.294   .     S
N578   C883    1.386   .     S
N579   C340    1.158   1_565 S
O585   H359    0.991   1_565 S
O585   C346    1.389   1_565 S
C595   O642    1.295   .     A
C595   C616    1.438   .     S
C595   O637    1.292   .     A
C596   C598    1.387   .     A
C596   H624    1.086   .     S
C596   C607    1.387   .     A
C597   C620    1.387   .     A
C597   C619    1.440   .     S
C597   C599    1.399   .     A
C598   C618    1.440   .     S
C598   C600    1.399   .     A
C599   C601    1.419   .     A
C599   O648    1.378   .     S
C600   O638    1.378   .     S
C600   C602    1.419   .     A
C601   C603    1.428   .     A
C601   C608    1.422   .     A
C602   C604    1.428   .     A
C602   C609    1.422   .     A
C603   C605    1.411   .     A
C603   C550    1.408   1_655 S
C604   C607    1.411   .     A
C605   C620    1.387   .     A
C605   C615    1.395   .     A
C606   O643    1.295   .     A
C606   C617    1.438   .     S
C606   O641    1.292   .     A
C607   C614    1.395   .     A
C608   C610    1.446   .     S
C608   C560    1.392   1_655 S
C609   C611    1.446   .     S
C611   N418    1.158   1_565 S
C612   N635    1.158   .     T
C612   N955    1.386   .     S
C613   N636    1.158   .     T
C614   H625    1.086   .     S
C615   H626    1.086   .     S
C615   C555    1.392   1_655 S
C617   C400    1.348   1_565 S
C617   O424    1.389   1_565 S
C618   O646    1.296   .     A
C618   O644    1.297   .     A
C619   O645    1.297   .     A
C619   O647    1.296   .     A
C620   H623    1.086   .     S
Cu621  O647    1.949   .     S
Cu621  O637    1.961   .     S
Cu621  Cu622   2.705   .     S
Cu621  O644    1.957   .     S
Cu621  N632    2.033   .     S
Cu621  O643    1.956   .     S
Cu622  O641    1.961   .     S
Cu622  O646    1.949   .     S
Cu622  N631    2.033   .     S
Cu622  O645    1.957   .     S
Cu622  O642    1.956   .     S
H627   O648    0.992   .     S
H628   O638    0.992   .     S
H630   O424    0.991   1_565 S
N632   N955    1.294   .     S
N632   C937    1.386   .     S
N633   C394    1.158   1_565 S
O639   H413    0.991   1_565 S
O639   C400    1.389   1_565 S
C649   O696    1.295   .     A
C649   C670    1.438   .     S
C649   O691    1.292   .     A
C650   C652    1.387   .     A
C650   H678    1.086   .     S
C650   C661    1.387   .     A
C651   C674    1.387   .     A
C651   C673    1.440   .     S
C651   C653    1.399   .     A
C652   C672    1.440   .     S
C652   C654    1.399   .     A
C653   C655    1.419   .     A
C653   O702    1.378   .     S
C654   O692    1.378   .     S
C654   C656    1.419   .     A
C655   C657    1.428   .     A
C655   C662    1.422   .     A
C656   C658    1.428   .     A
C656   C663    1.422   .     A
C657   C659    1.411   .     A
C657   C712    1.408   .     S
C658   C661    1.411   .     A
C658   C711    1.408   1_455 S
C659   C674    1.387   .     A
C659   C669    1.395   .     A
C660   O697    1.295   .     A
C660   C671    1.438   .     S
C660   O695    1.292   .     A
C661   C668    1.395   .     A
C662   C664    1.446   .     S
C662   C722    1.392   .     S
C663   C665    1.446   .     S
C663   C723    1.392   1_455 S
C664   N903    1.158   1_545 S
C665   N796    1.158   .     S
C666   N689    1.158   .     T
C666   N37     1.386   1_556 S
C667   N690    1.158   .     T
C668   H679    1.086   .     S
C668   C716    1.392   1_455 S
C669   H680    1.086   .     S
C669   C717    1.392   .     S
C670   C887    1.348   1_545 S
C670   O909    1.389   1_545 S
C671   C778    1.348   .     S
C671   O802    1.389   .     S
C672   O700    1.296   .     A
C672   O698    1.297   .     A
C673   O699    1.297   .     A
C673   O701    1.296   .     A
C674   H677    1.086   .     S
Cu675  O701    1.949   .     S
Cu675  O691    1.961   .     S
Cu675  Cu676   2.705   .     S
Cu675  O698    1.957   .     S
Cu675  N686    2.033   .     S
Cu675  O697    1.956   .     S
Cu676  O695    1.961   .     S
Cu676  O700    1.949   .     S
Cu676  N685    2.033   .     S
Cu676  O699    1.957   .     S
Cu676  O696    1.956   .     S
H681   O702    0.992   .     S
H682   O692    0.992   .     S
H683   O909    0.991   1_545 S
H684   O802    0.991   .     S
N686   N37     1.294   1_556 S
N686   C19     1.386   1_556 S
N687   C772    1.158   .     S
N688   C881    1.158   1_545 S
O693   H791    0.991   .     S
O693   C778    1.389   .     S
O694   H900    0.991   1_545 S
O694   C887    1.389   1_545 S
C703   O750    1.295   .     A
C703   C724    1.438   .     S
C703   O745    1.292   .     A
C704   C706    1.387   .     A
C704   H732    1.086   .     S
C704   C715    1.387   .     A
C705   C728    1.387   .     A
C705   C727    1.440   .     S
C705   C707    1.399   .     A
C706   C726    1.440   .     S
C706   C708    1.399   .     A
C707   C709    1.419   .     A
C707   O756    1.378   .     S
C708   O746    1.378   .     S
C708   C710    1.419   .     A
C709   C711    1.428   .     A
C709   C716    1.422   .     A
C710   C712    1.428   .     A
C710   C717    1.422   .     A
C711   C713    1.411   .     A
C711   C658    1.408   1_655 S
C712   C715    1.411   .     A
C713   C728    1.387   .     A
C713   C723    1.395   .     A
C714   O751    1.295   .     A
C714   C725    1.438   .     S
C714   O749    1.292   .     A
C715   C722    1.395   .     A
C716   C718    1.446   .     S
C716   C668    1.392   1_655 S
C717   C719    1.446   .     S
C718   N957    1.158   1_545 S
C719   N850    1.158   .     S
C720   N743    1.158   .     T
C720   N91     1.386   1_556 S
C721   N744    1.158   .     T
C722   H733    1.086   .     S
C723   H734    1.086   .     S
C723   C663    1.392   1_655 S
C724   C941    1.348   1_545 S
C724   O963    1.389   1_545 S
C725   C832    1.348   .     S
C725   O856    1.389   .     S
C726   O754    1.296   .     A
C726   O752    1.297   .     A
C727   O753    1.297   .     A
C727   O755    1.296   .     A
C728   H731    1.086   .     S
Cu729  O755    1.949   .     S
Cu729  O745    1.961   .     S
Cu729  Cu730   2.705   .     S
Cu729  O752    1.957   .     S
Cu729  N740    2.033   .     S
Cu729  O751    1.956   .     S
Cu730  O749    1.961   .     S
Cu730  O754    1.949   .     S
Cu730  N739    2.033   .     S
Cu730  O753    1.957   .     S
Cu730  O750    1.956   .     S
H735   O756    0.992   .     S
H736   O746    0.992   .     S
H737   O963    0.991   1_545 S
H738   O856    0.991   .     S
N740   N91     1.294   1_556 S
N740   C73     1.386   1_556 S
N741   C826    1.158   .     S
N742   C935    1.158   1_545 S
O747   H845    0.991   .     S
O747   C832    1.389   .     S
O748   H954    0.991   1_545 S
O748   C941    1.389   1_545 S
C757   O804    1.295   .     A
C757   C778    1.438   .     S
C757   O799    1.292   .     A
C758   C760    1.387   .     A
C758   H786    1.086   .     S
C758   C769    1.387   .     A
C759   C782    1.387   .     A
C759   C781    1.440   .     S
C759   C761    1.399   .     A
C760   C780    1.440   .     S
C760   C762    1.399   .     A
C761   C763    1.419   .     A
C761   O810    1.378   .     S
C762   O800    1.378   .     S
C762   C764    1.419   .     A
C763   C765    1.428   .     A
C763   C770    1.422   .     A
C764   C766    1.428   .     A
C764   C771    1.422   .     A
C765   C767    1.411   .     A
C765   C820    1.408   .     S
C766   C769    1.411   .     A
C766   C819    1.408   1_455 S
C767   C782    1.387   .     A
C767   C777    1.395   .     A
C768   O805    1.295   .     A
C768   C779    1.438   .     S
C768   O803    1.292   .     A
C769   C776    1.395   .     A
C770   C772    1.446   .     S
C770   C830    1.392   .     S
C771   C773    1.446   .     S
C771   C831    1.392   1_455 S
C773   N904    1.158   .     S
C774   N797    1.158   .     T
C774   N145    1.386   1_556 S
C775   N798    1.158   .     T
C776   H787    1.086   .     S
C776   C824    1.392   1_455 S
C777   H788    1.086   .     S
C777   C825    1.392   .     S
C779   C886    1.348   .     S
C779   O910    1.389   .     S
C780   O808    1.296   .     A
C780   O806    1.297   .     A
C781   O807    1.297   .     A
C781   O809    1.296   .     A
C782   H785    1.086   .     S
Cu783  O809    1.949   .     S
Cu783  O799    1.961   .     S
Cu783  Cu784   2.705   .     S
Cu783  O806    1.957   .     S
Cu783  N794    2.033   .     S
Cu783  O805    1.956   .     S
Cu784  O803    1.961   .     S
Cu784  O808    1.949   .     S
Cu784  N793    2.033   .     S
Cu784  O807    1.957   .     S
Cu784  O804    1.956   .     S
H789   O810    0.992   .     S
H790   O800    0.992   .     S
H792   O910    0.991   .     S
N794   N145    1.294   1_556 S
N794   C127    1.386   1_556 S
N795   C880    1.158   .     S
O801   H899    0.991   .     S
O801   C886    1.389   .     S
C811   O858    1.295   .     A
C811   C832    1.438   .     S
C811   O853    1.292   .     A
C812   C814    1.387   .     A
C812   H840    1.086   .     S
C812   C823    1.387   .     A
C813   C836    1.387   .     A
C813   C835    1.440   .     S
C813   C815    1.399   .     A
C814   C834    1.440   .     S
C814   C816    1.399   .     A
C815   C817    1.419   .     A
C815   O864    1.378   .     S
C816   O854    1.378   .     S
C816   C818    1.419   .     A
C817   C819    1.428   .     A
C817   C824    1.422   .     A
C818   C820    1.428   .     A
C818   C825    1.422   .     A
C819   C821    1.411   .     A
C819   C766    1.408   1_655 S
C820   C823    1.411   .     A
C821   C836    1.387   .     A
C821   C831    1.395   .     A
C822   O859    1.295   .     A
C822   C833    1.438   .     S
C822   O857    1.292   .     A
C823   C830    1.395   .     A
C824   C826    1.446   .     S
C824   C776    1.392   1_655 S
C825   C827    1.446   .     S
C827   N958    1.158   .     S
C828   N851    1.158   .     T
C828   N199    1.386   1_556 S
C829   N852    1.158   .     T
C830   H841    1.086   .     S
C831   H842    1.086   .     S
C831   C771    1.392   1_655 S
C833   C940    1.348   .     S
C833   O964    1.389   .     S
C834   O862    1.296   .     A
C834   O860    1.297   .     A
C835   O861    1.297   .     A
C835   O863    1.296   .     A
C836   H839    1.086   .     S
Cu837  O863    1.949   .     S
Cu837  O853    1.961   .     S
Cu837  Cu838   2.705   .     S
Cu837  O860    1.957   .     S
Cu837  N848    2.033   .     S
Cu837  O859    1.956   .     S
Cu838  O857    1.961   .     S
Cu838  O862    1.949   .     S
Cu838  N847    2.033   .     S
Cu838  O861    1.957   .     S
Cu838  O858    1.956   .     S
H843   O864    0.992   .     S
H844   O854    0.992   .     S
H846   O964    0.991   .     S
N848   N199    1.294   1_556 S
N848   C181    1.386   1_556 S
N849   C934    1.158   .     S
O855   H953    0.991   .     S
O855   C940    1.389   .     S
C865   O912    1.295   .     A
C865   C886    1.438   .     S
C865   O907    1.292   .     A
C866   C868    1.387   .     A
C866   H894    1.086   .     S
C866   C877    1.387   .     A
C867   C890    1.387   .     A
C867   C889    1.440   .     S
C867   C869    1.399   .     A
C868   C888    1.440   .     S
C868   C870    1.399   .     A
C869   C871    1.419   .     A
C869   O918    1.378   .     S
C870   O908    1.378   .     S
C870   C872    1.419   .     A
C871   C873    1.428   .     A
C871   C878    1.422   .     A
C872   C874    1.428   .     A
C872   C879    1.422   .     A
C873   C875    1.411   .     A
C873   C928    1.408   .     S
C874   C877    1.411   .     A
C874   C927    1.408   1_455 S
C875   C890    1.387   .     A
C875   C885    1.395   .     A
C876   O913    1.295   .     A
C876   C887    1.438   .     S
C876   O911    1.292   .     A
C877   C884    1.395   .     A
C878   C880    1.446   .     S
C878   C938    1.392   .     S
C879   C881    1.446   .     S
C879   C939    1.392   1_455 S
C881   N688    1.158   1_565 S
C882   N905    1.158   .     T
C882   N253    1.386   1_556 S
C883   N906    1.158   .     T
C884   H895    1.086   .     S
C884   C932    1.392   1_455 S
C885   H896    1.086   .     S
C885   C933    1.392   .     S
C887   C670    1.348   1_565 S
C887   O694    1.389   1_565 S
C888   O916    1.296   .     A
C888   O914    1.297   .     A
C889   O915    1.297   .     A
C889   O917    1.296   .     A
C890   H893    1.086   .     S
Cu891  O917    1.949   .     S
Cu891  O907    1.961   .     S
Cu891  Cu892   2.705   .     S
Cu891  O914    1.957   .     S
Cu891  N902    2.033   .     S
Cu891  O913    1.956   .     S
Cu892  O911    1.961   .     S
Cu892  O916    1.949   .     S
Cu892  N901    2.033   .     S
Cu892  O915    1.957   .     S
Cu892  O912    1.956   .     S
H897   O918    0.992   .     S
H898   O908    0.992   .     S
H900   O694    0.991   1_565 S
N902   N253    1.294   1_556 S
N902   C235    1.386   1_556 S
N903   C664    1.158   1_565 S
O909   H683    0.991   1_565 S
O909   C670    1.389   1_565 S
C919   O966    1.295   .     A
C919   C940    1.438   .     S
C919   O961    1.292   .     A
C920   C922    1.387   .     A
C920   H948    1.086   .     S
C920   C931    1.387   .     A
C921   C944    1.387   .     A
C921   C943    1.440   .     S
C921   C923    1.399   .     A
C922   C942    1.440   .     S
C922   C924    1.399   .     A
C923   C925    1.419   .     A
C923   O972    1.378   .     S
C924   O962    1.378   .     S
C924   C926    1.419   .     A
C925   C927    1.428   .     A
C925   C932    1.422   .     A
C926   C928    1.428   .     A
C926   C933    1.422   .     A
C927   C929    1.411   .     A
C927   C874    1.408   1_655 S
C928   C931    1.411   .     A
C929   C944    1.387   .     A
C929   C939    1.395   .     A
C930   O967    1.295   .     A
C930   C941    1.438   .     S
C930   O965    1.292   .     A
C931   C938    1.395   .     A
C932   C934    1.446   .     S
C932   C884    1.392   1_655 S
C933   C935    1.446   .     S
C935   N742    1.158   1_565 S
C936   N959    1.158   .     T
C936   N307    1.386   1_556 S
C937   N960    1.158   .     T
C938   H949    1.086   .     S
C939   H950    1.086   .     S
C939   C879    1.392   1_655 S
C941   C724    1.348   1_565 S
C941   O748    1.389   1_565 S
C942   O970    1.296   .     A
C942   O968    1.297   .     A
C943   O969    1.297   .     A
C943   O971    1.296   .     A
C944   H947    1.086   .     S
Cu945  O971    1.949   .     S
Cu945  O961    1.961   .     S
Cu945  Cu946   2.705   .     S
Cu945  O968    1.957   .     S
Cu945  N956    2.033   .     S
Cu945  O967    1.956   .     S
Cu946  O965    1.961   .     S
Cu946  O970    1.949   .     S
Cu946  N955    2.033   .     S
Cu946  O969    1.957   .     S
Cu946  O966    1.956   .     S
H951   O972    0.992   .     S
H952   O962    0.992   .     S
H954   O748    0.991   1_565 S
N956   N307    1.294   1_556 S
N956   C289    1.386   1_556 S
N957   C718    1.158   1_565 S
O963   H737    0.991   1_565 S
O963   C724    1.389   1_565 S
