data_str_m3_o1_o18_pcu_sym.81
_audit_creation_date              2020-01-03
_audit_creation_method            'Materials Studio'
_symmetry_space_group_name_H-M    'P1'
_symmetry_Int_Tables_number       1
_symmetry_cell_setting            triclinic
loop_
_symmetry_equiv_pos_as_xyz
  x,y,z
_cell_length_a                    29.5977
_cell_length_b                    32.1407
_cell_length_c                    30.7960
_cell_angle_alpha                 89.7526
_cell_angle_beta                  67.9760
_cell_angle_gamma                 89.9766
loop_
_atom_site_label
_atom_site_type_symbol
_atom_site_fract_x
_atom_site_fract_y
_atom_site_fract_z
_atom_site_U_iso_or_equiv
_atom_site_adp_type
_atom_site_occupancy
C1     C     0.16652   0.24668   0.25037   0.00000  Uiso   1.00
C2     C     0.12839   0.31206   0.24381   0.00000  Uiso   1.00
C3     C     0.16633   0.04248   0.25074   0.00000  Uiso   1.00
C4     C     0.16620   0.29083   0.25102   0.00000  Uiso   1.00
C5     C     0.31619   0.13363   0.23260   0.00000  Uiso   1.00
C6     C     0.01716   0.19970   0.26739   0.00000  Uiso   1.00
C7     C     0.03073   0.13363   0.23262   0.00000  Uiso   1.00
C8     C     0.30271   0.19975   0.26719   0.00000  Uiso   1.00
C9     C     0.13627   0.16624   0.33789   0.00000  Uiso   1.00
C10    C     0.19684   0.17005   0.16204   0.00000  Uiso   1.00
C11    C     0.11732   0.16138   0.38828   0.00000  Uiso   1.00
C12    C     0.16659   0.08665   0.25017   0.00000  Uiso   1.00
C13    C     0.21465   0.17875   0.11153   0.00000  Uiso   1.00
C14    C     0.07332   0.11940   0.45622   0.00000  Uiso   1.00
C15    C     0.27954   0.18457   0.03464   0.00000  Uiso   1.00
C16    C     0.08511   0.12881   0.40914   0.00000  Uiso   1.00
C17    C     0.26445   0.17785   0.08310   0.00000  Uiso   1.00
C18    C     0.13842   0.18421   0.41412   0.00000  Uiso   1.00
C19    C     0.18079   0.18743   0.09073   0.00000  Uiso   1.00
C20    C     0.13599   0.16799   0.45736   0.00000  Uiso   1.00
C21    C     0.19514   0.18169   0.04271   0.00000  Uiso   1.00
C22    C     0.09879   0.13863   0.48118   0.00000  Uiso   1.00
C23    C     0.12018   0.14543   0.04923   0.00000  Uiso   1.00
C24    C     0.24464   0.18735   0.01363   0.00000  Uiso   1.00
C25    C     0.17166   0.17738   0.47589   0.00000  Uiso   1.00
C26    C     0.16114   0.16976   0.02335   0.00000  Uiso   1.00
C27    C     0.21948   0.18928   0.44720   0.00000  Uiso   1.00
C28    C     0.09035   0.12804   0.02814   0.00000  Uiso   1.00
C29    C     0.25623   0.19391   0.46514   0.00000  Uiso   1.00
C30    C     0.20376   0.31197   0.25869   0.00000  Uiso   1.00
C31    C     0.12849   0.02132   0.24360   0.00000  Uiso   1.00
C32    C     0.20385   0.02126   0.25852   0.00000  Uiso   1.00
H33    H     0.11466   0.13595   0.08457   0.00000  Uiso   1.00
H34    H     0.28778   0.26850   0.40873   0.00000  Uiso   1.00
H35    H     0.08479   0.26179   0.09672   0.00000  Uiso   1.00
H36    H     0.16982   0.29169   0.43122   0.00000  Uiso   1.00
H37    H     0.29156   0.17286   0.09836   0.00000  Uiso   1.00
H38    H     0.06928   0.11056   0.38890   0.00000  Uiso   1.00
H39    H     0.04706   0.09493   0.47133   0.00000  Uiso   1.00
H40    H     0.31812   0.18419   0.01412   0.00000  Uiso   1.00
H41    H     0.05429   0.10726   0.21844   0.00000  Uiso   1.00
H42    H     0.27951   0.22640   0.28066   0.00000  Uiso   1.00
H43    H     0.22987   0.19144   0.40974   0.00000  Uiso   1.00
H44    H     0.23291   0.29572   0.26483   0.00000  Uiso   1.00
H45    H     0.09930   0.03753   0.23748   0.00000  Uiso   1.00
H46    H     0.23307   0.03744   0.26453   0.00000  Uiso   1.00
H47    H     0.09908   0.29592   0.23790   0.00000  Uiso   1.00
H48    H     0.30366   0.10721   0.21857   0.00000  Uiso   1.00
H49    H     0.02971   0.22615   0.28138   0.00000  Uiso   1.00
H50    H     0.01342   0.07108   0.13308   0.00000  Uiso   1.00
N51    N     0.04759   0.16668   0.25001   0.00000  Uiso   1.00
N52    N     0.28574   0.16666   0.24999   0.00000  Uiso   1.00
O53    O     0.12846   0.22775   0.25001   0.00000  Uiso   1.00
O54    O     0.06185   0.04870   0.04191   0.00000  Uiso   1.00
O55    O     0.03820   0.09269   0.11778   0.00000  Uiso   1.00
O56    O     0.01277   0.22817   0.44771   0.00000  Uiso   1.00
O57    O     0.00526   0.17284   0.39613   0.00000  Uiso   1.00
O58    O     0.30607   0.24562   0.38814   0.00000  Uiso   1.00
O59    O     0.08483   0.19200   0.14576   0.00000  Uiso   1.00
O60    O     0.13769   0.24834   0.15232   0.00000  Uiso   1.00
O61    O     0.11512   0.24656   0.07878   0.00000  Uiso   1.00
O62    O     0.20542   0.23851   0.35907   0.00000  Uiso   1.00
O63    O     0.11965   0.25651   0.38042   0.00000  Uiso   1.00
O64    O     0.20488   0.10558   0.25000   0.00000  Uiso   1.00
O65    O     0.15693   0.26392   0.44398   0.00000  Uiso   1.00
O66    O     0.20490   0.22774   0.25000   0.00000  Uiso   1.00
O67    O     0.12843   0.10559   0.25000   0.00000  Uiso   1.00
O68    O     0.10661   0.16667   0.31613   0.00000  Uiso   1.00
O69    O     0.22672   0.16666   0.18388   0.00000  Uiso   1.00
O70    O     0.18305   0.16666   0.31612   0.00000  Uiso   1.00
O71    O     0.15028   0.16667   0.18388   0.00000  Uiso   1.00
O72    O     0.33091   0.10089   0.05677   0.00000  Uiso   1.00
S73    S     0.04551   0.09145   0.06092   0.00000  Uiso   1.00
S74    S     0.31404   0.20989   0.42468   0.00000  Uiso   1.00
S75    S     0.12803   0.21878   0.11911   0.00000  Uiso   1.00
S76    S     0.15593   0.23687   0.39770   0.00000  Uiso   1.00
Zn77   Zn    0.11562   0.16667   0.25000   0.00000  Uiso   1.00
Zn78   Zn    0.21771   0.16666   0.25000   0.00000  Uiso   1.00
C79    C     0.49986   0.24668   0.25037   0.00000  Uiso   1.00
C80    C     0.46172   0.31206   0.24381   0.00000  Uiso   1.00
C81    C     0.49967   0.04248   0.25074   0.00000  Uiso   1.00
C82    C     0.49953   0.29083   0.25102   0.00000  Uiso   1.00
C83    C     0.64952   0.13363   0.23260   0.00000  Uiso   1.00
C84    C     0.35049   0.19970   0.26739   0.00000  Uiso   1.00
C85    C     0.36407   0.13363   0.23262   0.00000  Uiso   1.00
C86    C     0.63604   0.19975   0.26719   0.00000  Uiso   1.00
C87    C     0.46961   0.16624   0.33789   0.00000  Uiso   1.00
C88    C     0.53017   0.17005   0.16204   0.00000  Uiso   1.00
C89    C     0.45065   0.16138   0.38828   0.00000  Uiso   1.00
C90    C     0.49992   0.08665   0.25017   0.00000  Uiso   1.00
C91    C     0.54798   0.17875   0.11153   0.00000  Uiso   1.00
C92    C     0.40666   0.11940   0.45622   0.00000  Uiso   1.00
C93    C     0.61287   0.18457   0.03464   0.00000  Uiso   1.00
C94    C     0.41845   0.12881   0.40914   0.00000  Uiso   1.00
C95    C     0.59778   0.17785   0.08310   0.00000  Uiso   1.00
C96    C     0.47176   0.18421   0.41412   0.00000  Uiso   1.00
C97    C     0.51412   0.18743   0.09073   0.00000  Uiso   1.00
C98    C     0.46932   0.16799   0.45736   0.00000  Uiso   1.00
C99    C     0.52847   0.18169   0.04271   0.00000  Uiso   1.00
C100   C     0.43212   0.13863   0.48118   0.00000  Uiso   1.00
C101   C     0.45351   0.14543   0.04923   0.00000  Uiso   1.00
C102   C     0.57797   0.18735   0.01363   0.00000  Uiso   1.00
C103   C     0.50500   0.17738   0.47589   0.00000  Uiso   1.00
C104   C     0.49447   0.16976   0.02335   0.00000  Uiso   1.00
C105   C     0.55282   0.18928   0.44720   0.00000  Uiso   1.00
C106   C     0.42368   0.12804   0.02814   0.00000  Uiso   1.00
C107   C     0.58957   0.19391   0.46514   0.00000  Uiso   1.00
C108   C     0.53709   0.31197   0.25869   0.00000  Uiso   1.00
C109   C     0.46183   0.02132   0.24360   0.00000  Uiso   1.00
C110   C     0.53718   0.02126   0.25852   0.00000  Uiso   1.00
H111   H     0.44799   0.13595   0.08457   0.00000  Uiso   1.00
H112   H     0.62111   0.26850   0.40873   0.00000  Uiso   1.00
H113   H     0.41812   0.26179   0.09672   0.00000  Uiso   1.00
H114   H     0.50316   0.29169   0.43122   0.00000  Uiso   1.00
H115   H     0.62490   0.17286   0.09836   0.00000  Uiso   1.00
H116   H     0.40262   0.11056   0.38890   0.00000  Uiso   1.00
H117   H     0.38039   0.09493   0.47133   0.00000  Uiso   1.00
H118   H     0.65145   0.18419   0.01412   0.00000  Uiso   1.00
H119   H     0.38762   0.10726   0.21844   0.00000  Uiso   1.00
H120   H     0.61284   0.22640   0.28066   0.00000  Uiso   1.00
H121   H     0.56320   0.19144   0.40974   0.00000  Uiso   1.00
H122   H     0.56625   0.29572   0.26483   0.00000  Uiso   1.00
H123   H     0.43264   0.03753   0.23748   0.00000  Uiso   1.00
H124   H     0.56640   0.03744   0.26453   0.00000  Uiso   1.00
H125   H     0.43241   0.29592   0.23790   0.00000  Uiso   1.00
H126   H     0.63699   0.10721   0.21857   0.00000  Uiso   1.00
H127   H     0.36304   0.22615   0.28138   0.00000  Uiso   1.00
H128   H     0.34675   0.07108   0.13308   0.00000  Uiso   1.00
N129   N     0.38093   0.16668   0.25001   0.00000  Uiso   1.00
N130   N     0.61907   0.16666   0.24999   0.00000  Uiso   1.00
O131   O     0.46179   0.22775   0.25001   0.00000  Uiso   1.00
O132   O     0.39518   0.04870   0.04191   0.00000  Uiso   1.00
O133   O     0.37153   0.09269   0.11778   0.00000  Uiso   1.00
O134   O     0.34610   0.22817   0.44771   0.00000  Uiso   1.00
O135   O     0.33859   0.17284   0.39613   0.00000  Uiso   1.00
O136   O     0.63940   0.24562   0.38814   0.00000  Uiso   1.00
O137   O     0.41816   0.19200   0.14576   0.00000  Uiso   1.00
O138   O     0.47103   0.24834   0.15232   0.00000  Uiso   1.00
O139   O     0.44846   0.24656   0.07878   0.00000  Uiso   1.00
O140   O     0.53875   0.23851   0.35907   0.00000  Uiso   1.00
O141   O     0.45298   0.25651   0.38042   0.00000  Uiso   1.00
O142   O     0.53821   0.10558   0.25000   0.00000  Uiso   1.00
O143   O     0.49026   0.26392   0.44398   0.00000  Uiso   1.00
O144   O     0.53823   0.22774   0.25000   0.00000  Uiso   1.00
O145   O     0.46177   0.10559   0.25000   0.00000  Uiso   1.00
O146   O     0.43994   0.16667   0.31613   0.00000  Uiso   1.00
O147   O     0.56006   0.16666   0.18388   0.00000  Uiso   1.00
O148   O     0.51639   0.16666   0.31612   0.00000  Uiso   1.00
O149   O     0.48361   0.16667   0.18388   0.00000  Uiso   1.00
O150   O     0.66424   0.10089   0.05677   0.00000  Uiso   1.00
S151   S     0.37884   0.09145   0.06092   0.00000  Uiso   1.00
S152   S     0.64738   0.20989   0.42468   0.00000  Uiso   1.00
S153   S     0.46136   0.21878   0.11911   0.00000  Uiso   1.00
S154   S     0.48927   0.23687   0.39770   0.00000  Uiso   1.00
Zn155  Zn    0.44896   0.16667   0.25000   0.00000  Uiso   1.00
Zn156  Zn    0.55104   0.16666   0.25000   0.00000  Uiso   1.00
C157   C     0.83319   0.24668   0.25037   0.00000  Uiso   1.00
C158   C     0.79505   0.31206   0.24381   0.00000  Uiso   1.00
C159   C     0.83300   0.04248   0.25074   0.00000  Uiso   1.00
C160   C     0.83287   0.29083   0.25102   0.00000  Uiso   1.00
C161   C     0.98286   0.13363   0.23260   0.00000  Uiso   1.00
C162   C     0.68383   0.19970   0.26739   0.00000  Uiso   1.00
C163   C     0.69740   0.13363   0.23262   0.00000  Uiso   1.00
C164   C     0.96938   0.19975   0.26719   0.00000  Uiso   1.00
C165   C     0.80294   0.16624   0.33789   0.00000  Uiso   1.00
C166   C     0.86350   0.17005   0.16204   0.00000  Uiso   1.00
C167   C     0.78398   0.16138   0.38828   0.00000  Uiso   1.00
C168   C     0.83326   0.08665   0.25017   0.00000  Uiso   1.00
C169   C     0.88131   0.17875   0.11153   0.00000  Uiso   1.00
C170   C     0.73999   0.11940   0.45622   0.00000  Uiso   1.00
C171   C     0.94621   0.18457   0.03464   0.00000  Uiso   1.00
C172   C     0.75178   0.12881   0.40914   0.00000  Uiso   1.00
C173   C     0.93112   0.17785   0.08310   0.00000  Uiso   1.00
C174   C     0.80509   0.18421   0.41412   0.00000  Uiso   1.00
C175   C     0.84745   0.18743   0.09073   0.00000  Uiso   1.00
C176   C     0.80265   0.16799   0.45736   0.00000  Uiso   1.00
C177   C     0.86181   0.18169   0.04271   0.00000  Uiso   1.00
C178   C     0.76546   0.13863   0.48118   0.00000  Uiso   1.00
C179   C     0.78684   0.14543   0.04923   0.00000  Uiso   1.00
C180   C     0.91131   0.18735   0.01363   0.00000  Uiso   1.00
C181   C     0.83833   0.17738   0.47589   0.00000  Uiso   1.00
C182   C     0.82781   0.16976   0.02335   0.00000  Uiso   1.00
C183   C     0.88615   0.18928   0.44720   0.00000  Uiso   1.00
C184   C     0.75701   0.12804   0.02814   0.00000  Uiso   1.00
C185   C     0.92290   0.19391   0.46514   0.00000  Uiso   1.00
C186   C     0.87043   0.31197   0.25869   0.00000  Uiso   1.00
C187   C     0.79516   0.02132   0.24360   0.00000  Uiso   1.00
C188   C     0.87051   0.02126   0.25852   0.00000  Uiso   1.00
H189   H     0.78133   0.13595   0.08457   0.00000  Uiso   1.00
H190   H     0.95444   0.26850   0.40873   0.00000  Uiso   1.00
H191   H     0.75146   0.26179   0.09672   0.00000  Uiso   1.00
H192   H     0.83649   0.29169   0.43122   0.00000  Uiso   1.00
H193   H     0.95823   0.17286   0.09836   0.00000  Uiso   1.00
H194   H     0.73595   0.11056   0.38890   0.00000  Uiso   1.00
H195   H     0.71373   0.09493   0.47133   0.00000  Uiso   1.00
H196   H     0.98479   0.18419   0.01412   0.00000  Uiso   1.00
H197   H     0.72095   0.10726   0.21844   0.00000  Uiso   1.00
H198   H     0.94618   0.22640   0.28066   0.00000  Uiso   1.00
H199   H     0.89654   0.19144   0.40974   0.00000  Uiso   1.00
H200   H     0.89958   0.29572   0.26483   0.00000  Uiso   1.00
H201   H     0.76597   0.03753   0.23748   0.00000  Uiso   1.00
H202   H     0.89974   0.03744   0.26453   0.00000  Uiso   1.00
H203   H     0.76575   0.29592   0.23790   0.00000  Uiso   1.00
H204   H     0.97032   0.10721   0.21857   0.00000  Uiso   1.00
H205   H     0.69637   0.22615   0.28138   0.00000  Uiso   1.00
H206   H     0.68008   0.07108   0.13308   0.00000  Uiso   1.00
N207   N     0.71426   0.16668   0.25001   0.00000  Uiso   1.00
N208   N     0.95241   0.16666   0.24999   0.00000  Uiso   1.00
O209   O     0.79512   0.22775   0.25001   0.00000  Uiso   1.00
O210   O     0.72851   0.04870   0.04191   0.00000  Uiso   1.00
O211   O     0.70487   0.09269   0.11778   0.00000  Uiso   1.00
O212   O     0.67943   0.22817   0.44771   0.00000  Uiso   1.00
O213   O     0.67193   0.17284   0.39613   0.00000  Uiso   1.00
O214   O     0.97273   0.24562   0.38814   0.00000  Uiso   1.00
O215   O     0.75149   0.19200   0.14576   0.00000  Uiso   1.00
O216   O     0.80436   0.24834   0.15232   0.00000  Uiso   1.00
O217   O     0.78179   0.24656   0.07878   0.00000  Uiso   1.00
O218   O     0.87208   0.23851   0.35907   0.00000  Uiso   1.00
O219   O     0.78632   0.25651   0.38042   0.00000  Uiso   1.00
O220   O     0.87154   0.10558   0.25000   0.00000  Uiso   1.00
O221   O     0.82359   0.26392   0.44398   0.00000  Uiso   1.00
O222   O     0.87157   0.22774   0.25000   0.00000  Uiso   1.00
O223   O     0.79510   0.10559   0.25000   0.00000  Uiso   1.00
O224   O     0.77328   0.16667   0.31613   0.00000  Uiso   1.00
O225   O     0.89339   0.16666   0.18388   0.00000  Uiso   1.00
O226   O     0.84972   0.16666   0.31612   0.00000  Uiso   1.00
O227   O     0.81695   0.16667   0.18388   0.00000  Uiso   1.00
O228   O     0.99758   0.10089   0.05677   0.00000  Uiso   1.00
S229   S     0.71217   0.09145   0.06092   0.00000  Uiso   1.00
S230   S     0.98071   0.20989   0.42468   0.00000  Uiso   1.00
S231   S     0.79469   0.21878   0.11911   0.00000  Uiso   1.00
S232   S     0.82260   0.23687   0.39770   0.00000  Uiso   1.00
Zn233  Zn    0.78229   0.16667   0.25000   0.00000  Uiso   1.00
Zn234  Zn    0.88438   0.16666   0.25000   0.00000  Uiso   1.00
C235   C     0.16652   0.58001   0.25037   0.00000  Uiso   1.00
C236   C     0.12839   0.64539   0.24381   0.00000  Uiso   1.00
C237   C     0.16633   0.37581   0.25074   0.00000  Uiso   1.00
C238   C     0.16620   0.62416   0.25102   0.00000  Uiso   1.00
C239   C     0.31619   0.46696   0.23260   0.00000  Uiso   1.00
C240   C     0.01716   0.53303   0.26739   0.00000  Uiso   1.00
C241   C     0.03073   0.46697   0.23262   0.00000  Uiso   1.00
C242   C     0.30271   0.53309   0.26719   0.00000  Uiso   1.00
C243   C     0.13627   0.49957   0.33789   0.00000  Uiso   1.00
C244   C     0.19684   0.50338   0.16204   0.00000  Uiso   1.00
C245   C     0.11732   0.49471   0.38828   0.00000  Uiso   1.00
C246   C     0.16659   0.41998   0.25017   0.00000  Uiso   1.00
C247   C     0.21465   0.51209   0.11153   0.00000  Uiso   1.00
C248   C     0.07332   0.45273   0.45622   0.00000  Uiso   1.00
C249   C     0.27954   0.51791   0.03464   0.00000  Uiso   1.00
C250   C     0.08511   0.46214   0.40914   0.00000  Uiso   1.00
C251   C     0.26445   0.51118   0.08310   0.00000  Uiso   1.00
C252   C     0.13842   0.51754   0.41412   0.00000  Uiso   1.00
C253   C     0.18079   0.52076   0.09073   0.00000  Uiso   1.00
C254   C     0.13599   0.50132   0.45736   0.00000  Uiso   1.00
C255   C     0.19514   0.51502   0.04271   0.00000  Uiso   1.00
C256   C     0.09879   0.47196   0.48118   0.00000  Uiso   1.00
C257   C     0.12018   0.47876   0.04923   0.00000  Uiso   1.00
C258   C     0.24464   0.52068   0.01363   0.00000  Uiso   1.00
C259   C     0.17166   0.51071   0.47589   0.00000  Uiso   1.00
C260   C     0.16114   0.50309   0.02335   0.00000  Uiso   1.00
C261   C     0.21948   0.52262   0.44720   0.00000  Uiso   1.00
C262   C     0.09035   0.46138   0.02814   0.00000  Uiso   1.00
C263   C     0.25623   0.52724   0.46514   0.00000  Uiso   1.00
C264   C     0.20376   0.64530   0.25869   0.00000  Uiso   1.00
C265   C     0.12849   0.35466   0.24360   0.00000  Uiso   1.00
C266   C     0.20385   0.35459   0.25852   0.00000  Uiso   1.00
H267   H     0.11466   0.46929   0.08457   0.00000  Uiso   1.00
H268   H     0.28778   0.60184   0.40873   0.00000  Uiso   1.00
H269   H     0.08479   0.59512   0.09672   0.00000  Uiso   1.00
H270   H     0.16982   0.62503   0.43122   0.00000  Uiso   1.00
H271   H     0.29156   0.50619   0.09836   0.00000  Uiso   1.00
H272   H     0.06928   0.44390   0.38890   0.00000  Uiso   1.00
H273   H     0.04706   0.42827   0.47133   0.00000  Uiso   1.00
H274   H     0.31812   0.51752   0.01412   0.00000  Uiso   1.00
H275   H     0.05429   0.44060   0.21844   0.00000  Uiso   1.00
H276   H     0.27951   0.55973   0.28066   0.00000  Uiso   1.00
H277   H     0.22987   0.52477   0.40974   0.00000  Uiso   1.00
H278   H     0.23291   0.62905   0.26483   0.00000  Uiso   1.00
H279   H     0.09930   0.37086   0.23748   0.00000  Uiso   1.00
H280   H     0.23307   0.37078   0.26453   0.00000  Uiso   1.00
H281   H     0.09908   0.62925   0.23790   0.00000  Uiso   1.00
H282   H     0.30366   0.44054   0.21857   0.00000  Uiso   1.00
H283   H     0.02971   0.55948   0.28138   0.00000  Uiso   1.00
H284   H     0.01342   0.40441   0.13308   0.00000  Uiso   1.00
N285   N     0.04759   0.50001   0.25001   0.00000  Uiso   1.00
N286   N     0.28574   0.49999   0.24999   0.00000  Uiso   1.00
O287   O     0.12846   0.56108   0.25001   0.00000  Uiso   1.00
O288   O     0.06185   0.38203   0.04191   0.00000  Uiso   1.00
O289   O     0.03820   0.42602   0.11778   0.00000  Uiso   1.00
O290   O     0.01277   0.56151   0.44771   0.00000  Uiso   1.00
O291   O     0.00526   0.50617   0.39613   0.00000  Uiso   1.00
O292   O     0.30607   0.57895   0.38814   0.00000  Uiso   1.00
O293   O     0.08483   0.52533   0.14576   0.00000  Uiso   1.00
O294   O     0.13769   0.58168   0.15232   0.00000  Uiso   1.00
O295   O     0.11512   0.57989   0.07878   0.00000  Uiso   1.00
O296   O     0.20542   0.57185   0.35907   0.00000  Uiso   1.00
O297   O     0.11965   0.58985   0.38042   0.00000  Uiso   1.00
O298   O     0.20488   0.43892   0.25000   0.00000  Uiso   1.00
O299   O     0.15693   0.59725   0.44398   0.00000  Uiso   1.00
O300   O     0.20490   0.56107   0.25000   0.00000  Uiso   1.00
O301   O     0.12843   0.43893   0.25000   0.00000  Uiso   1.00
O302   O     0.10661   0.50001   0.31613   0.00000  Uiso   1.00
O303   O     0.22672   0.49999   0.18388   0.00000  Uiso   1.00
O304   O     0.18305   0.50000   0.31612   0.00000  Uiso   1.00
O305   O     0.15028   0.50000   0.18388   0.00000  Uiso   1.00
O306   O     0.33091   0.43422   0.05677   0.00000  Uiso   1.00
S307   S     0.04551   0.42479   0.06092   0.00000  Uiso   1.00
S308   S     0.31404   0.54322   0.42468   0.00000  Uiso   1.00
S309   S     0.12803   0.55211   0.11911   0.00000  Uiso   1.00
S310   S     0.15593   0.57020   0.39770   0.00000  Uiso   1.00
Zn311  Zn    0.11562   0.50001   0.25000   0.00000  Uiso   1.00
Zn312  Zn    0.21771   0.49999   0.25000   0.00000  Uiso   1.00
C313   C     0.49986   0.58001   0.25037   0.00000  Uiso   1.00
C314   C     0.46172   0.64539   0.24381   0.00000  Uiso   1.00
C315   C     0.49967   0.37581   0.25074   0.00000  Uiso   1.00
C316   C     0.49953   0.62416   0.25102   0.00000  Uiso   1.00
C317   C     0.64952   0.46696   0.23260   0.00000  Uiso   1.00
C318   C     0.35049   0.53303   0.26739   0.00000  Uiso   1.00
C319   C     0.36407   0.46697   0.23262   0.00000  Uiso   1.00
C320   C     0.63604   0.53309   0.26719   0.00000  Uiso   1.00
C321   C     0.46961   0.49957   0.33789   0.00000  Uiso   1.00
C322   C     0.53017   0.50338   0.16204   0.00000  Uiso   1.00
C323   C     0.45065   0.49471   0.38828   0.00000  Uiso   1.00
C324   C     0.49992   0.41998   0.25017   0.00000  Uiso   1.00
C325   C     0.54798   0.51209   0.11153   0.00000  Uiso   1.00
C326   C     0.40666   0.45273   0.45622   0.00000  Uiso   1.00
C327   C     0.61287   0.51791   0.03464   0.00000  Uiso   1.00
C328   C     0.41845   0.46214   0.40914   0.00000  Uiso   1.00
C329   C     0.59778   0.51118   0.08310   0.00000  Uiso   1.00
C330   C     0.47176   0.51754   0.41412   0.00000  Uiso   1.00
C331   C     0.51412   0.52076   0.09073   0.00000  Uiso   1.00
C332   C     0.46932   0.50132   0.45736   0.00000  Uiso   1.00
C333   C     0.52847   0.51502   0.04271   0.00000  Uiso   1.00
C334   C     0.43212   0.47196   0.48118   0.00000  Uiso   1.00
C335   C     0.45351   0.47876   0.04923   0.00000  Uiso   1.00
C336   C     0.57797   0.52068   0.01363   0.00000  Uiso   1.00
C337   C     0.50500   0.51071   0.47589   0.00000  Uiso   1.00
C338   C     0.49447   0.50309   0.02335   0.00000  Uiso   1.00
C339   C     0.55282   0.52262   0.44720   0.00000  Uiso   1.00
C340   C     0.42368   0.46138   0.02814   0.00000  Uiso   1.00
C341   C     0.58957   0.52724   0.46514   0.00000  Uiso   1.00
C342   C     0.53709   0.64530   0.25869   0.00000  Uiso   1.00
C343   C     0.46183   0.35466   0.24360   0.00000  Uiso   1.00
C344   C     0.53718   0.35459   0.25852   0.00000  Uiso   1.00
H345   H     0.44799   0.46929   0.08457   0.00000  Uiso   1.00
H346   H     0.62111   0.60184   0.40873   0.00000  Uiso   1.00
H347   H     0.41812   0.59512   0.09672   0.00000  Uiso   1.00
H348   H     0.50316   0.62503   0.43122   0.00000  Uiso   1.00
H349   H     0.62490   0.50619   0.09836   0.00000  Uiso   1.00
H350   H     0.40262   0.44390   0.38890   0.00000  Uiso   1.00
H351   H     0.38039   0.42827   0.47133   0.00000  Uiso   1.00
H352   H     0.65145   0.51752   0.01412   0.00000  Uiso   1.00
H353   H     0.38762   0.44060   0.21844   0.00000  Uiso   1.00
H354   H     0.61284   0.55973   0.28066   0.00000  Uiso   1.00
H355   H     0.56320   0.52477   0.40974   0.00000  Uiso   1.00
H356   H     0.56625   0.62905   0.26483   0.00000  Uiso   1.00
H357   H     0.43264   0.37086   0.23748   0.00000  Uiso   1.00
H358   H     0.56640   0.37078   0.26453   0.00000  Uiso   1.00
H359   H     0.43241   0.62925   0.23790   0.00000  Uiso   1.00
H360   H     0.63699   0.44054   0.21857   0.00000  Uiso   1.00
H361   H     0.36304   0.55948   0.28138   0.00000  Uiso   1.00
H362   H     0.34675   0.40441   0.13308   0.00000  Uiso   1.00
N363   N     0.38093   0.50001   0.25001   0.00000  Uiso   1.00
N364   N     0.61907   0.49999   0.24999   0.00000  Uiso   1.00
O365   O     0.46179   0.56108   0.25001   0.00000  Uiso   1.00
O366   O     0.39518   0.38203   0.04191   0.00000  Uiso   1.00
O367   O     0.37153   0.42602   0.11778   0.00000  Uiso   1.00
O368   O     0.34610   0.56151   0.44771   0.00000  Uiso   1.00
O369   O     0.33859   0.50617   0.39613   0.00000  Uiso   1.00
O370   O     0.63940   0.57895   0.38814   0.00000  Uiso   1.00
O371   O     0.41816   0.52533   0.14576   0.00000  Uiso   1.00
O372   O     0.47103   0.58168   0.15232   0.00000  Uiso   1.00
O373   O     0.44846   0.57989   0.07878   0.00000  Uiso   1.00
O374   O     0.53875   0.57185   0.35907   0.00000  Uiso   1.00
O375   O     0.45298   0.58985   0.38042   0.00000  Uiso   1.00
O376   O     0.53821   0.43892   0.25000   0.00000  Uiso   1.00
O377   O     0.49026   0.59725   0.44398   0.00000  Uiso   1.00
O378   O     0.53823   0.56107   0.25000   0.00000  Uiso   1.00
O379   O     0.46177   0.43893   0.25000   0.00000  Uiso   1.00
O380   O     0.43994   0.50001   0.31613   0.00000  Uiso   1.00
O381   O     0.56006   0.49999   0.18388   0.00000  Uiso   1.00
O382   O     0.51639   0.50000   0.31612   0.00000  Uiso   1.00
O383   O     0.48361   0.50000   0.18388   0.00000  Uiso   1.00
O384   O     0.66424   0.43422   0.05677   0.00000  Uiso   1.00
S385   S     0.37884   0.42479   0.06092   0.00000  Uiso   1.00
S386   S     0.64738   0.54322   0.42468   0.00000  Uiso   1.00
S387   S     0.46136   0.55211   0.11911   0.00000  Uiso   1.00
S388   S     0.48927   0.57020   0.39770   0.00000  Uiso   1.00
Zn389  Zn    0.44896   0.50001   0.25000   0.00000  Uiso   1.00
Zn390  Zn    0.55104   0.49999   0.25000   0.00000  Uiso   1.00
C391   C     0.83319   0.58001   0.25037   0.00000  Uiso   1.00
C392   C     0.79505   0.64539   0.24381   0.00000  Uiso   1.00
C393   C     0.83300   0.37581   0.25074   0.00000  Uiso   1.00
C394   C     0.83287   0.62416   0.25102   0.00000  Uiso   1.00
C395   C     0.98286   0.46696   0.23260   0.00000  Uiso   1.00
C396   C     0.68383   0.53303   0.26739   0.00000  Uiso   1.00
C397   C     0.69740   0.46697   0.23262   0.00000  Uiso   1.00
C398   C     0.96938   0.53309   0.26719   0.00000  Uiso   1.00
C399   C     0.80294   0.49957   0.33789   0.00000  Uiso   1.00
C400   C     0.86350   0.50338   0.16204   0.00000  Uiso   1.00
C401   C     0.78398   0.49471   0.38828   0.00000  Uiso   1.00
C402   C     0.83326   0.41998   0.25017   0.00000  Uiso   1.00
C403   C     0.88131   0.51209   0.11153   0.00000  Uiso   1.00
C404   C     0.73999   0.45273   0.45622   0.00000  Uiso   1.00
C405   C     0.94621   0.51791   0.03464   0.00000  Uiso   1.00
C406   C     0.75178   0.46214   0.40914   0.00000  Uiso   1.00
C407   C     0.93112   0.51118   0.08310   0.00000  Uiso   1.00
C408   C     0.80509   0.51754   0.41412   0.00000  Uiso   1.00
C409   C     0.84745   0.52076   0.09073   0.00000  Uiso   1.00
C410   C     0.80265   0.50132   0.45736   0.00000  Uiso   1.00
C411   C     0.86181   0.51502   0.04271   0.00000  Uiso   1.00
C412   C     0.76546   0.47196   0.48118   0.00000  Uiso   1.00
C413   C     0.78684   0.47876   0.04923   0.00000  Uiso   1.00
C414   C     0.91131   0.52068   0.01363   0.00000  Uiso   1.00
C415   C     0.83833   0.51071   0.47589   0.00000  Uiso   1.00
C416   C     0.82781   0.50309   0.02335   0.00000  Uiso   1.00
C417   C     0.88615   0.52262   0.44720   0.00000  Uiso   1.00
C418   C     0.75701   0.46138   0.02814   0.00000  Uiso   1.00
C419   C     0.92290   0.52724   0.46514   0.00000  Uiso   1.00
C420   C     0.87043   0.64530   0.25869   0.00000  Uiso   1.00
C421   C     0.79516   0.35466   0.24360   0.00000  Uiso   1.00
C422   C     0.87051   0.35459   0.25852   0.00000  Uiso   1.00
H423   H     0.78133   0.46929   0.08457   0.00000  Uiso   1.00
H424   H     0.95444   0.60184   0.40873   0.00000  Uiso   1.00
H425   H     0.75146   0.59512   0.09672   0.00000  Uiso   1.00
H426   H     0.83649   0.62503   0.43122   0.00000  Uiso   1.00
H427   H     0.95823   0.50619   0.09836   0.00000  Uiso   1.00
H428   H     0.73595   0.44390   0.38890   0.00000  Uiso   1.00
H429   H     0.71373   0.42827   0.47133   0.00000  Uiso   1.00
H430   H     0.98479   0.51752   0.01412   0.00000  Uiso   1.00
H431   H     0.72095   0.44060   0.21844   0.00000  Uiso   1.00
H432   H     0.94618   0.55973   0.28066   0.00000  Uiso   1.00
H433   H     0.89654   0.52477   0.40974   0.00000  Uiso   1.00
H434   H     0.89958   0.62905   0.26483   0.00000  Uiso   1.00
H435   H     0.76597   0.37086   0.23748   0.00000  Uiso   1.00
H436   H     0.89974   0.37078   0.26453   0.00000  Uiso   1.00
H437   H     0.76575   0.62925   0.23790   0.00000  Uiso   1.00
H438   H     0.97032   0.44054   0.21857   0.00000  Uiso   1.00
H439   H     0.69637   0.55948   0.28138   0.00000  Uiso   1.00
H440   H     0.68008   0.40441   0.13308   0.00000  Uiso   1.00
N441   N     0.71426   0.50001   0.25001   0.00000  Uiso   1.00
N442   N     0.95241   0.49999   0.24999   0.00000  Uiso   1.00
O443   O     0.79512   0.56108   0.25001   0.00000  Uiso   1.00
O444   O     0.72851   0.38203   0.04191   0.00000  Uiso   1.00
O445   O     0.70487   0.42602   0.11778   0.00000  Uiso   1.00
O446   O     0.67943   0.56151   0.44771   0.00000  Uiso   1.00
O447   O     0.67193   0.50617   0.39613   0.00000  Uiso   1.00
O448   O     0.97273   0.57895   0.38814   0.00000  Uiso   1.00
O449   O     0.75149   0.52533   0.14576   0.00000  Uiso   1.00
O450   O     0.80436   0.58168   0.15232   0.00000  Uiso   1.00
O451   O     0.78179   0.57989   0.07878   0.00000  Uiso   1.00
O452   O     0.87208   0.57185   0.35907   0.00000  Uiso   1.00
O453   O     0.78632   0.58985   0.38042   0.00000  Uiso   1.00
O454   O     0.87154   0.43892   0.25000   0.00000  Uiso   1.00
O455   O     0.82359   0.59725   0.44398   0.00000  Uiso   1.00
O456   O     0.87157   0.56107   0.25000   0.00000  Uiso   1.00
O457   O     0.79510   0.43893   0.25000   0.00000  Uiso   1.00
O458   O     0.77328   0.50001   0.31613   0.00000  Uiso   1.00
O459   O     0.89339   0.49999   0.18388   0.00000  Uiso   1.00
O460   O     0.84972   0.50000   0.31612   0.00000  Uiso   1.00
O461   O     0.81695   0.50000   0.18388   0.00000  Uiso   1.00
O462   O     0.99758   0.43422   0.05677   0.00000  Uiso   1.00
S463   S     0.71217   0.42479   0.06092   0.00000  Uiso   1.00
S464   S     0.98071   0.54322   0.42468   0.00000  Uiso   1.00
S465   S     0.79469   0.55211   0.11911   0.00000  Uiso   1.00
S466   S     0.82260   0.57020   0.39770   0.00000  Uiso   1.00
Zn467  Zn    0.78229   0.50001   0.25000   0.00000  Uiso   1.00
Zn468  Zn    0.88438   0.49999   0.25000   0.00000  Uiso   1.00
C469   C     0.16652   0.91335   0.25037   0.00000  Uiso   1.00
C470   C     0.12839   0.97873   0.24381   0.00000  Uiso   1.00
C471   C     0.16633   0.70914   0.25074   0.00000  Uiso   1.00
C472   C     0.16620   0.95750   0.25102   0.00000  Uiso   1.00
C473   C     0.31619   0.80030   0.23260   0.00000  Uiso   1.00
C474   C     0.01716   0.86637   0.26739   0.00000  Uiso   1.00
C475   C     0.03073   0.80030   0.23262   0.00000  Uiso   1.00
C476   C     0.30271   0.86642   0.26719   0.00000  Uiso   1.00
C477   C     0.13627   0.83290   0.33789   0.00000  Uiso   1.00
C478   C     0.19684   0.83672   0.16204   0.00000  Uiso   1.00
C479   C     0.11732   0.82804   0.38828   0.00000  Uiso   1.00
C480   C     0.16659   0.75331   0.25017   0.00000  Uiso   1.00
C481   C     0.21465   0.84542   0.11153   0.00000  Uiso   1.00
C482   C     0.07332   0.78606   0.45622   0.00000  Uiso   1.00
C483   C     0.27954   0.85124   0.03464   0.00000  Uiso   1.00
C484   C     0.08511   0.79547   0.40914   0.00000  Uiso   1.00
C485   C     0.26445   0.84451   0.08310   0.00000  Uiso   1.00
C486   C     0.13842   0.85088   0.41412   0.00000  Uiso   1.00
C487   C     0.18079   0.85409   0.09073   0.00000  Uiso   1.00
C488   C     0.13599   0.83466   0.45736   0.00000  Uiso   1.00
C489   C     0.19514   0.84836   0.04271   0.00000  Uiso   1.00
C490   C     0.09879   0.80529   0.48118   0.00000  Uiso   1.00
C491   C     0.12018   0.81210   0.04923   0.00000  Uiso   1.00
C492   C     0.24464   0.85401   0.01363   0.00000  Uiso   1.00
C493   C     0.17166   0.84405   0.47589   0.00000  Uiso   1.00
C494   C     0.16114   0.83642   0.02335   0.00000  Uiso   1.00
C495   C     0.21948   0.85595   0.44720   0.00000  Uiso   1.00
C496   C     0.09035   0.79471   0.02814   0.00000  Uiso   1.00
C497   C     0.25623   0.86057   0.46514   0.00000  Uiso   1.00
C498   C     0.20376   0.97863   0.25869   0.00000  Uiso   1.00
C499   C     0.12849   0.68799   0.24360   0.00000  Uiso   1.00
C500   C     0.20385   0.68792   0.25852   0.00000  Uiso   1.00
H501   H     0.11466   0.80262   0.08457   0.00000  Uiso   1.00
H502   H     0.28778   0.93517   0.40873   0.00000  Uiso   1.00
H503   H     0.08479   0.92845   0.09672   0.00000  Uiso   1.00
H504   H     0.16982   0.95836   0.43122   0.00000  Uiso   1.00
H505   H     0.29156   0.83953   0.09836   0.00000  Uiso   1.00
H506   H     0.06928   0.77723   0.38890   0.00000  Uiso   1.00
H507   H     0.04706   0.76160   0.47133   0.00000  Uiso   1.00
H508   H     0.31812   0.85085   0.01412   0.00000  Uiso   1.00
H509   H     0.05429   0.77393   0.21844   0.00000  Uiso   1.00
H510   H     0.27951   0.89307   0.28066   0.00000  Uiso   1.00
H511   H     0.22987   0.85811   0.40974   0.00000  Uiso   1.00
H512   H     0.23291   0.96239   0.26483   0.00000  Uiso   1.00
H513   H     0.09930   0.70420   0.23748   0.00000  Uiso   1.00
H514   H     0.23307   0.70411   0.26453   0.00000  Uiso   1.00
H515   H     0.09908   0.96259   0.23790   0.00000  Uiso   1.00
H516   H     0.30366   0.77388   0.21857   0.00000  Uiso   1.00
H517   H     0.02971   0.89282   0.28138   0.00000  Uiso   1.00
H518   H     0.01342   0.73775   0.13308   0.00000  Uiso   1.00
N519   N     0.04759   0.83334   0.25001   0.00000  Uiso   1.00
N520   N     0.28574   0.83332   0.24999   0.00000  Uiso   1.00
O521   O     0.12846   0.89442   0.25001   0.00000  Uiso   1.00
O522   O     0.06185   0.71537   0.04191   0.00000  Uiso   1.00
O523   O     0.03820   0.75936   0.11778   0.00000  Uiso   1.00
O524   O     0.01277   0.89484   0.44771   0.00000  Uiso   1.00
O525   O     0.00526   0.83950   0.39613   0.00000  Uiso   1.00
O526   O     0.30607   0.91229   0.38814   0.00000  Uiso   1.00
O527   O     0.08483   0.85866   0.14576   0.00000  Uiso   1.00
O528   O     0.13769   0.91501   0.15232   0.00000  Uiso   1.00
O529   O     0.11512   0.91322   0.07878   0.00000  Uiso   1.00
O530   O     0.20542   0.90518   0.35907   0.00000  Uiso   1.00
O531   O     0.11965   0.92318   0.38042   0.00000  Uiso   1.00
O532   O     0.20488   0.77225   0.25000   0.00000  Uiso   1.00
O533   O     0.15693   0.93059   0.44398   0.00000  Uiso   1.00
O534   O     0.20490   0.89441   0.25000   0.00000  Uiso   1.00
O535   O     0.12843   0.77226   0.25000   0.00000  Uiso   1.00
O536   O     0.10661   0.83334   0.31613   0.00000  Uiso   1.00
O537   O     0.22672   0.83333   0.18388   0.00000  Uiso   1.00
O538   O     0.18305   0.83333   0.31612   0.00000  Uiso   1.00
O539   O     0.15028   0.83334   0.18388   0.00000  Uiso   1.00
O540   O     0.33091   0.76755   0.05677   0.00000  Uiso   1.00
S541   S     0.04551   0.75812   0.06092   0.00000  Uiso   1.00
S542   S     0.31404   0.87655   0.42468   0.00000  Uiso   1.00
S543   S     0.12803   0.88545   0.11911   0.00000  Uiso   1.00
S544   S     0.15593   0.90354   0.39770   0.00000  Uiso   1.00
Zn545  Zn    0.11562   0.83334   0.25000   0.00000  Uiso   1.00
Zn546  Zn    0.21771   0.83333   0.25000   0.00000  Uiso   1.00
C547   C     0.49986   0.91335   0.25037   0.00000  Uiso   1.00
C548   C     0.46172   0.97873   0.24381   0.00000  Uiso   1.00
C549   C     0.49967   0.70914   0.25074   0.00000  Uiso   1.00
C550   C     0.49953   0.95750   0.25102   0.00000  Uiso   1.00
C551   C     0.64952   0.80030   0.23260   0.00000  Uiso   1.00
C552   C     0.35049   0.86637   0.26739   0.00000  Uiso   1.00
C553   C     0.36407   0.80030   0.23262   0.00000  Uiso   1.00
C554   C     0.63604   0.86642   0.26719   0.00000  Uiso   1.00
C555   C     0.46961   0.83290   0.33789   0.00000  Uiso   1.00
C556   C     0.53017   0.83672   0.16204   0.00000  Uiso   1.00
C557   C     0.45065   0.82804   0.38828   0.00000  Uiso   1.00
C558   C     0.49992   0.75331   0.25017   0.00000  Uiso   1.00
C559   C     0.54798   0.84542   0.11153   0.00000  Uiso   1.00
C560   C     0.40666   0.78606   0.45622   0.00000  Uiso   1.00
C561   C     0.61287   0.85124   0.03464   0.00000  Uiso   1.00
C562   C     0.41845   0.79547   0.40914   0.00000  Uiso   1.00
C563   C     0.59778   0.84451   0.08310   0.00000  Uiso   1.00
C564   C     0.47176   0.85088   0.41412   0.00000  Uiso   1.00
C565   C     0.51412   0.85409   0.09073   0.00000  Uiso   1.00
C566   C     0.46932   0.83466   0.45736   0.00000  Uiso   1.00
C567   C     0.52847   0.84836   0.04271   0.00000  Uiso   1.00
C568   C     0.43212   0.80529   0.48118   0.00000  Uiso   1.00
C569   C     0.45351   0.81210   0.04923   0.00000  Uiso   1.00
C570   C     0.57797   0.85401   0.01363   0.00000  Uiso   1.00
C571   C     0.50500   0.84405   0.47589   0.00000  Uiso   1.00
C572   C     0.49447   0.83642   0.02335   0.00000  Uiso   1.00
C573   C     0.55282   0.85595   0.44720   0.00000  Uiso   1.00
C574   C     0.42368   0.79471   0.02814   0.00000  Uiso   1.00
C575   C     0.58957   0.86057   0.46514   0.00000  Uiso   1.00
C576   C     0.53709   0.97863   0.25869   0.00000  Uiso   1.00
C577   C     0.46183   0.68799   0.24360   0.00000  Uiso   1.00
C578   C     0.53718   0.68792   0.25852   0.00000  Uiso   1.00
H579   H     0.44799   0.80262   0.08457   0.00000  Uiso   1.00
H580   H     0.62111   0.93517   0.40873   0.00000  Uiso   1.00
H581   H     0.41812   0.92845   0.09672   0.00000  Uiso   1.00
H582   H     0.50316   0.95836   0.43122   0.00000  Uiso   1.00
H583   H     0.62490   0.83953   0.09836   0.00000  Uiso   1.00
H584   H     0.40262   0.77723   0.38890   0.00000  Uiso   1.00
H585   H     0.38039   0.76160   0.47133   0.00000  Uiso   1.00
H586   H     0.65145   0.85085   0.01412   0.00000  Uiso   1.00
H587   H     0.38762   0.77393   0.21844   0.00000  Uiso   1.00
H588   H     0.61284   0.89307   0.28066   0.00000  Uiso   1.00
H589   H     0.56320   0.85811   0.40974   0.00000  Uiso   1.00
H590   H     0.56625   0.96239   0.26483   0.00000  Uiso   1.00
H591   H     0.43264   0.70420   0.23748   0.00000  Uiso   1.00
H592   H     0.56640   0.70411   0.26453   0.00000  Uiso   1.00
H593   H     0.43241   0.96259   0.23790   0.00000  Uiso   1.00
H594   H     0.63699   0.77388   0.21857   0.00000  Uiso   1.00
H595   H     0.36304   0.89282   0.28138   0.00000  Uiso   1.00
H596   H     0.34675   0.73775   0.13308   0.00000  Uiso   1.00
N597   N     0.38093   0.83334   0.25001   0.00000  Uiso   1.00
N598   N     0.61907   0.83332   0.24999   0.00000  Uiso   1.00
O599   O     0.46179   0.89442   0.25001   0.00000  Uiso   1.00
O600   O     0.39518   0.71537   0.04191   0.00000  Uiso   1.00
O601   O     0.37153   0.75936   0.11778   0.00000  Uiso   1.00
O602   O     0.34610   0.89484   0.44771   0.00000  Uiso   1.00
O603   O     0.33859   0.83950   0.39613   0.00000  Uiso   1.00
O604   O     0.63940   0.91229   0.38814   0.00000  Uiso   1.00
O605   O     0.41816   0.85866   0.14576   0.00000  Uiso   1.00
O606   O     0.47103   0.91501   0.15232   0.00000  Uiso   1.00
O607   O     0.44846   0.91322   0.07878   0.00000  Uiso   1.00
O608   O     0.53875   0.90518   0.35907   0.00000  Uiso   1.00
O609   O     0.45298   0.92318   0.38042   0.00000  Uiso   1.00
O610   O     0.53821   0.77225   0.25000   0.00000  Uiso   1.00
O611   O     0.49026   0.93059   0.44398   0.00000  Uiso   1.00
O612   O     0.53823   0.89441   0.25000   0.00000  Uiso   1.00
O613   O     0.46177   0.77226   0.25000   0.00000  Uiso   1.00
O614   O     0.43994   0.83334   0.31613   0.00000  Uiso   1.00
O615   O     0.56006   0.83333   0.18388   0.00000  Uiso   1.00
O616   O     0.51639   0.83333   0.31612   0.00000  Uiso   1.00
O617   O     0.48361   0.83334   0.18388   0.00000  Uiso   1.00
O618   O     0.66424   0.76755   0.05677   0.00000  Uiso   1.00
S619   S     0.37884   0.75812   0.06092   0.00000  Uiso   1.00
S620   S     0.64738   0.87655   0.42468   0.00000  Uiso   1.00
S621   S     0.46136   0.88545   0.11911   0.00000  Uiso   1.00
S622   S     0.48927   0.90354   0.39770   0.00000  Uiso   1.00
Zn623  Zn    0.44896   0.83334   0.25000   0.00000  Uiso   1.00
Zn624  Zn    0.55104   0.83333   0.25000   0.00000  Uiso   1.00
C625   C     0.83319   0.91335   0.25037   0.00000  Uiso   1.00
C626   C     0.79505   0.97873   0.24381   0.00000  Uiso   1.00
C627   C     0.83300   0.70914   0.25074   0.00000  Uiso   1.00
C628   C     0.83287   0.95750   0.25102   0.00000  Uiso   1.00
C629   C     0.98286   0.80030   0.23260   0.00000  Uiso   1.00
C630   C     0.68383   0.86637   0.26739   0.00000  Uiso   1.00
C631   C     0.69740   0.80030   0.23262   0.00000  Uiso   1.00
C632   C     0.96938   0.86642   0.26719   0.00000  Uiso   1.00
C633   C     0.80294   0.83290   0.33789   0.00000  Uiso   1.00
C634   C     0.86350   0.83672   0.16204   0.00000  Uiso   1.00
C635   C     0.78398   0.82804   0.38828   0.00000  Uiso   1.00
C636   C     0.83326   0.75331   0.25017   0.00000  Uiso   1.00
C637   C     0.88131   0.84542   0.11153   0.00000  Uiso   1.00
C638   C     0.73999   0.78606   0.45622   0.00000  Uiso   1.00
C639   C     0.94621   0.85124   0.03464   0.00000  Uiso   1.00
C640   C     0.75178   0.79547   0.40914   0.00000  Uiso   1.00
C641   C     0.93112   0.84451   0.08310   0.00000  Uiso   1.00
C642   C     0.80509   0.85088   0.41412   0.00000  Uiso   1.00
C643   C     0.84745   0.85409   0.09073   0.00000  Uiso   1.00
C644   C     0.80265   0.83466   0.45736   0.00000  Uiso   1.00
C645   C     0.86181   0.84836   0.04271   0.00000  Uiso   1.00
C646   C     0.76546   0.80529   0.48118   0.00000  Uiso   1.00
C647   C     0.78684   0.81210   0.04923   0.00000  Uiso   1.00
C648   C     0.91131   0.85401   0.01363   0.00000  Uiso   1.00
C649   C     0.83833   0.84405   0.47589   0.00000  Uiso   1.00
C650   C     0.82781   0.83642   0.02335   0.00000  Uiso   1.00
C651   C     0.88615   0.85595   0.44720   0.00000  Uiso   1.00
C652   C     0.75701   0.79471   0.02814   0.00000  Uiso   1.00
C653   C     0.92290   0.86057   0.46514   0.00000  Uiso   1.00
C654   C     0.87043   0.97863   0.25869   0.00000  Uiso   1.00
C655   C     0.79516   0.68799   0.24360   0.00000  Uiso   1.00
C656   C     0.87051   0.68792   0.25852   0.00000  Uiso   1.00
H657   H     0.78133   0.80262   0.08457   0.00000  Uiso   1.00
H658   H     0.95444   0.93517   0.40873   0.00000  Uiso   1.00
H659   H     0.75146   0.92845   0.09672   0.00000  Uiso   1.00
H660   H     0.83649   0.95836   0.43122   0.00000  Uiso   1.00
H661   H     0.95823   0.83953   0.09836   0.00000  Uiso   1.00
H662   H     0.73595   0.77723   0.38890   0.00000  Uiso   1.00
H663   H     0.71373   0.76160   0.47133   0.00000  Uiso   1.00
H664   H     0.98479   0.85085   0.01412   0.00000  Uiso   1.00
H665   H     0.72095   0.77393   0.21844   0.00000  Uiso   1.00
H666   H     0.94618   0.89307   0.28066   0.00000  Uiso   1.00
H667   H     0.89654   0.85811   0.40974   0.00000  Uiso   1.00
H668   H     0.89958   0.96239   0.26483   0.00000  Uiso   1.00
H669   H     0.76597   0.70420   0.23748   0.00000  Uiso   1.00
H670   H     0.89974   0.70411   0.26453   0.00000  Uiso   1.00
H671   H     0.76575   0.96259   0.23790   0.00000  Uiso   1.00
H672   H     0.97032   0.77388   0.21857   0.00000  Uiso   1.00
H673   H     0.69637   0.89282   0.28138   0.00000  Uiso   1.00
H674   H     0.68008   0.73775   0.13308   0.00000  Uiso   1.00
N675   N     0.71426   0.83334   0.25001   0.00000  Uiso   1.00
N676   N     0.95241   0.83332   0.24999   0.00000  Uiso   1.00
O677   O     0.79512   0.89442   0.25001   0.00000  Uiso   1.00
O678   O     0.72851   0.71537   0.04191   0.00000  Uiso   1.00
O679   O     0.70487   0.75936   0.11778   0.00000  Uiso   1.00
O680   O     0.67943   0.89484   0.44771   0.00000  Uiso   1.00
O681   O     0.67193   0.83950   0.39613   0.00000  Uiso   1.00
O682   O     0.97273   0.91229   0.38814   0.00000  Uiso   1.00
O683   O     0.75149   0.85866   0.14576   0.00000  Uiso   1.00
O684   O     0.80436   0.91501   0.15232   0.00000  Uiso   1.00
O685   O     0.78179   0.91322   0.07878   0.00000  Uiso   1.00
O686   O     0.87208   0.90518   0.35907   0.00000  Uiso   1.00
O687   O     0.78632   0.92318   0.38042   0.00000  Uiso   1.00
O688   O     0.87154   0.77225   0.25000   0.00000  Uiso   1.00
O689   O     0.82359   0.93059   0.44398   0.00000  Uiso   1.00
O690   O     0.87157   0.89441   0.25000   0.00000  Uiso   1.00
O691   O     0.79510   0.77226   0.25000   0.00000  Uiso   1.00
O692   O     0.77328   0.83334   0.31613   0.00000  Uiso   1.00
O693   O     0.89339   0.83333   0.18388   0.00000  Uiso   1.00
O694   O     0.84972   0.83333   0.31612   0.00000  Uiso   1.00
O695   O     0.81695   0.83334   0.18388   0.00000  Uiso   1.00
O696   O     0.99758   0.76755   0.05677   0.00000  Uiso   1.00
S697   S     0.71217   0.75812   0.06092   0.00000  Uiso   1.00
S698   S     0.98071   0.87655   0.42468   0.00000  Uiso   1.00
S699   S     0.79469   0.88545   0.11911   0.00000  Uiso   1.00
S700   S     0.82260   0.90354   0.39770   0.00000  Uiso   1.00
Zn701  Zn    0.78229   0.83334   0.25000   0.00000  Uiso   1.00
Zn702  Zn    0.88438   0.83333   0.25000   0.00000  Uiso   1.00
C703   C     0.16652   0.24668   0.75037   0.00000  Uiso   1.00
C704   C     0.12839   0.31206   0.74381   0.00000  Uiso   1.00
C705   C     0.16633   0.04248   0.75074   0.00000  Uiso   1.00
C706   C     0.16620   0.29083   0.75102   0.00000  Uiso   1.00
C707   C     0.31619   0.13363   0.73260   0.00000  Uiso   1.00
C708   C     0.01716   0.19970   0.76739   0.00000  Uiso   1.00
C709   C     0.03073   0.13363   0.73262   0.00000  Uiso   1.00
C710   C     0.30271   0.19975   0.76719   0.00000  Uiso   1.00
C711   C     0.13627   0.16624   0.83789   0.00000  Uiso   1.00
C712   C     0.19684   0.17005   0.66204   0.00000  Uiso   1.00
C713   C     0.11732   0.16138   0.88828   0.00000  Uiso   1.00
C714   C     0.16659   0.08665   0.75017   0.00000  Uiso   1.00
C715   C     0.21465   0.17875   0.61153   0.00000  Uiso   1.00
C716   C     0.07332   0.11940   0.95622   0.00000  Uiso   1.00
C717   C     0.27954   0.18457   0.53464   0.00000  Uiso   1.00
C718   C     0.08511   0.12881   0.90914   0.00000  Uiso   1.00
C719   C     0.26445   0.17785   0.58310   0.00000  Uiso   1.00
C720   C     0.13842   0.18421   0.91412   0.00000  Uiso   1.00
C721   C     0.18079   0.18743   0.59073   0.00000  Uiso   1.00
C722   C     0.13599   0.16799   0.95736   0.00000  Uiso   1.00
C723   C     0.19514   0.18169   0.54271   0.00000  Uiso   1.00
C724   C     0.09879   0.13863   0.98118   0.00000  Uiso   1.00
C725   C     0.12018   0.14543   0.54923   0.00000  Uiso   1.00
C726   C     0.24464   0.18735   0.51363   0.00000  Uiso   1.00
C727   C     0.17166   0.17738   0.97589   0.00000  Uiso   1.00
C728   C     0.16114   0.16976   0.52335   0.00000  Uiso   1.00
C729   C     0.21948   0.18928   0.94720   0.00000  Uiso   1.00
C730   C     0.09035   0.12804   0.52814   0.00000  Uiso   1.00
C731   C     0.25623   0.19391   0.96514   0.00000  Uiso   1.00
C732   C     0.20376   0.31197   0.75869   0.00000  Uiso   1.00
C733   C     0.12849   0.02132   0.74360   0.00000  Uiso   1.00
C734   C     0.20385   0.02126   0.75852   0.00000  Uiso   1.00
H735   H     0.11466   0.13595   0.58457   0.00000  Uiso   1.00
H736   H     0.28778   0.26850   0.90873   0.00000  Uiso   1.00
H737   H     0.08479   0.26179   0.59672   0.00000  Uiso   1.00
H738   H     0.16982   0.29169   0.93122   0.00000  Uiso   1.00
H739   H     0.29156   0.17286   0.59836   0.00000  Uiso   1.00
H740   H     0.06928   0.11056   0.88890   0.00000  Uiso   1.00
H741   H     0.04706   0.09493   0.97133   0.00000  Uiso   1.00
H742   H     0.31812   0.18419   0.51412   0.00000  Uiso   1.00
H743   H     0.05429   0.10726   0.71844   0.00000  Uiso   1.00
H744   H     0.27951   0.22640   0.78066   0.00000  Uiso   1.00
H745   H     0.22987   0.19144   0.90974   0.00000  Uiso   1.00
H746   H     0.23291   0.29572   0.76483   0.00000  Uiso   1.00
H747   H     0.09930   0.03753   0.73748   0.00000  Uiso   1.00
H748   H     0.23307   0.03744   0.76453   0.00000  Uiso   1.00
H749   H     0.09908   0.29592   0.73790   0.00000  Uiso   1.00
H750   H     0.30366   0.10721   0.71857   0.00000  Uiso   1.00
H751   H     0.02971   0.22615   0.78138   0.00000  Uiso   1.00
H752   H     0.01342   0.07108   0.63308   0.00000  Uiso   1.00
N753   N     0.04759   0.16668   0.75001   0.00000  Uiso   1.00
N754   N     0.28574   0.16666   0.74999   0.00000  Uiso   1.00
O755   O     0.12846   0.22775   0.75001   0.00000  Uiso   1.00
O756   O     0.06185   0.04870   0.54191   0.00000  Uiso   1.00
O757   O     0.03820   0.09269   0.61778   0.00000  Uiso   1.00
O758   O     0.01277   0.22817   0.94771   0.00000  Uiso   1.00
O759   O     0.00526   0.17284   0.89613   0.00000  Uiso   1.00
O760   O     0.30607   0.24562   0.88814   0.00000  Uiso   1.00
O761   O     0.08483   0.19200   0.64576   0.00000  Uiso   1.00
O762   O     0.13769   0.24834   0.65232   0.00000  Uiso   1.00
O763   O     0.11512   0.24656   0.57878   0.00000  Uiso   1.00
O764   O     0.20542   0.23851   0.85907   0.00000  Uiso   1.00
O765   O     0.11965   0.25651   0.88042   0.00000  Uiso   1.00
O766   O     0.20488   0.10558   0.75000   0.00000  Uiso   1.00
O767   O     0.15693   0.26392   0.94398   0.00000  Uiso   1.00
O768   O     0.20490   0.22774   0.75000   0.00000  Uiso   1.00
O769   O     0.12843   0.10559   0.75000   0.00000  Uiso   1.00
O770   O     0.10661   0.16667   0.81613   0.00000  Uiso   1.00
O771   O     0.22672   0.16666   0.68388   0.00000  Uiso   1.00
O772   O     0.18305   0.16666   0.81612   0.00000  Uiso   1.00
O773   O     0.15028   0.16667   0.68388   0.00000  Uiso   1.00
O774   O     0.33091   0.10089   0.55677   0.00000  Uiso   1.00
S775   S     0.04551   0.09145   0.56092   0.00000  Uiso   1.00
S776   S     0.31404   0.20989   0.92468   0.00000  Uiso   1.00
S777   S     0.12803   0.21878   0.61911   0.00000  Uiso   1.00
S778   S     0.15593   0.23687   0.89770   0.00000  Uiso   1.00
Zn779  Zn    0.11562   0.16667   0.75000   0.00000  Uiso   1.00
Zn780  Zn    0.21771   0.16666   0.75000   0.00000  Uiso   1.00
C781   C     0.49986   0.24668   0.75037   0.00000  Uiso   1.00
C782   C     0.46172   0.31206   0.74381   0.00000  Uiso   1.00
C783   C     0.49967   0.04248   0.75074   0.00000  Uiso   1.00
C784   C     0.49953   0.29083   0.75102   0.00000  Uiso   1.00
C785   C     0.64952   0.13363   0.73260   0.00000  Uiso   1.00
C786   C     0.35049   0.19970   0.76739   0.00000  Uiso   1.00
C787   C     0.36407   0.13363   0.73262   0.00000  Uiso   1.00
C788   C     0.63604   0.19975   0.76719   0.00000  Uiso   1.00
C789   C     0.46961   0.16624   0.83789   0.00000  Uiso   1.00
C790   C     0.53017   0.17005   0.66204   0.00000  Uiso   1.00
C791   C     0.45065   0.16138   0.88828   0.00000  Uiso   1.00
C792   C     0.49992   0.08665   0.75017   0.00000  Uiso   1.00
C793   C     0.54798   0.17875   0.61153   0.00000  Uiso   1.00
C794   C     0.40666   0.11940   0.95622   0.00000  Uiso   1.00
C795   C     0.61287   0.18457   0.53464   0.00000  Uiso   1.00
C796   C     0.41845   0.12881   0.90914   0.00000  Uiso   1.00
C797   C     0.59778   0.17785   0.58310   0.00000  Uiso   1.00
C798   C     0.47176   0.18421   0.91412   0.00000  Uiso   1.00
C799   C     0.51412   0.18743   0.59073   0.00000  Uiso   1.00
C800   C     0.46932   0.16799   0.95736   0.00000  Uiso   1.00
C801   C     0.52847   0.18169   0.54271   0.00000  Uiso   1.00
C802   C     0.43212   0.13863   0.98118   0.00000  Uiso   1.00
C803   C     0.45351   0.14543   0.54923   0.00000  Uiso   1.00
C804   C     0.57797   0.18735   0.51363   0.00000  Uiso   1.00
C805   C     0.50500   0.17738   0.97589   0.00000  Uiso   1.00
C806   C     0.49447   0.16976   0.52335   0.00000  Uiso   1.00
C807   C     0.55282   0.18928   0.94720   0.00000  Uiso   1.00
C808   C     0.42368   0.12804   0.52814   0.00000  Uiso   1.00
C809   C     0.58957   0.19391   0.96514   0.00000  Uiso   1.00
C810   C     0.53709   0.31197   0.75869   0.00000  Uiso   1.00
C811   C     0.46183   0.02132   0.74360   0.00000  Uiso   1.00
C812   C     0.53718   0.02126   0.75852   0.00000  Uiso   1.00
H813   H     0.44799   0.13595   0.58457   0.00000  Uiso   1.00
H814   H     0.62111   0.26850   0.90873   0.00000  Uiso   1.00
H815   H     0.41812   0.26179   0.59672   0.00000  Uiso   1.00
H816   H     0.50316   0.29169   0.93122   0.00000  Uiso   1.00
H817   H     0.62490   0.17286   0.59836   0.00000  Uiso   1.00
H818   H     0.40262   0.11056   0.88890   0.00000  Uiso   1.00
H819   H     0.38039   0.09493   0.97133   0.00000  Uiso   1.00
H820   H     0.65145   0.18419   0.51412   0.00000  Uiso   1.00
H821   H     0.38762   0.10726   0.71844   0.00000  Uiso   1.00
H822   H     0.61284   0.22640   0.78066   0.00000  Uiso   1.00
H823   H     0.56320   0.19144   0.90974   0.00000  Uiso   1.00
H824   H     0.56625   0.29572   0.76483   0.00000  Uiso   1.00
H825   H     0.43264   0.03753   0.73748   0.00000  Uiso   1.00
H826   H     0.56640   0.03744   0.76453   0.00000  Uiso   1.00
H827   H     0.43241   0.29592   0.73790   0.00000  Uiso   1.00
H828   H     0.63699   0.10721   0.71857   0.00000  Uiso   1.00
H829   H     0.36304   0.22615   0.78138   0.00000  Uiso   1.00
H830   H     0.34675   0.07108   0.63308   0.00000  Uiso   1.00
N831   N     0.38093   0.16668   0.75001   0.00000  Uiso   1.00
N832   N     0.61907   0.16666   0.74999   0.00000  Uiso   1.00
O833   O     0.46179   0.22775   0.75001   0.00000  Uiso   1.00
O834   O     0.39518   0.04870   0.54191   0.00000  Uiso   1.00
O835   O     0.37153   0.09269   0.61778   0.00000  Uiso   1.00
O836   O     0.34610   0.22817   0.94771   0.00000  Uiso   1.00
O837   O     0.33859   0.17284   0.89613   0.00000  Uiso   1.00
O838   O     0.63940   0.24562   0.88814   0.00000  Uiso   1.00
O839   O     0.41816   0.19200   0.64576   0.00000  Uiso   1.00
O840   O     0.47103   0.24834   0.65232   0.00000  Uiso   1.00
O841   O     0.44846   0.24656   0.57878   0.00000  Uiso   1.00
O842   O     0.53875   0.23851   0.85907   0.00000  Uiso   1.00
O843   O     0.45298   0.25651   0.88042   0.00000  Uiso   1.00
O844   O     0.53821   0.10558   0.75000   0.00000  Uiso   1.00
O845   O     0.49026   0.26392   0.94398   0.00000  Uiso   1.00
O846   O     0.53823   0.22774   0.75000   0.00000  Uiso   1.00
O847   O     0.46177   0.10559   0.75000   0.00000  Uiso   1.00
O848   O     0.43994   0.16667   0.81613   0.00000  Uiso   1.00
O849   O     0.56006   0.16666   0.68388   0.00000  Uiso   1.00
O850   O     0.51639   0.16666   0.81612   0.00000  Uiso   1.00
O851   O     0.48361   0.16667   0.68388   0.00000  Uiso   1.00
O852   O     0.66424   0.10089   0.55677   0.00000  Uiso   1.00
S853   S     0.37884   0.09145   0.56092   0.00000  Uiso   1.00
S854   S     0.64738   0.20989   0.92468   0.00000  Uiso   1.00
S855   S     0.46136   0.21878   0.61911   0.00000  Uiso   1.00
S856   S     0.48927   0.23687   0.89770   0.00000  Uiso   1.00
Zn857  Zn    0.44896   0.16667   0.75000   0.00000  Uiso   1.00
Zn858  Zn    0.55104   0.16666   0.75000   0.00000  Uiso   1.00
C859   C     0.83319   0.24668   0.75037   0.00000  Uiso   1.00
C860   C     0.79505   0.31206   0.74381   0.00000  Uiso   1.00
C861   C     0.83300   0.04248   0.75074   0.00000  Uiso   1.00
C862   C     0.83287   0.29083   0.75102   0.00000  Uiso   1.00
C863   C     0.98286   0.13363   0.73260   0.00000  Uiso   1.00
C864   C     0.68383   0.19970   0.76739   0.00000  Uiso   1.00
C865   C     0.69740   0.13363   0.73262   0.00000  Uiso   1.00
C866   C     0.96938   0.19975   0.76719   0.00000  Uiso   1.00
C867   C     0.80294   0.16624   0.83789   0.00000  Uiso   1.00
C868   C     0.86350   0.17005   0.66204   0.00000  Uiso   1.00
C869   C     0.78398   0.16138   0.88828   0.00000  Uiso   1.00
C870   C     0.83326   0.08665   0.75017   0.00000  Uiso   1.00
C871   C     0.88131   0.17875   0.61153   0.00000  Uiso   1.00
C872   C     0.73999   0.11940   0.95622   0.00000  Uiso   1.00
C873   C     0.94621   0.18457   0.53464   0.00000  Uiso   1.00
C874   C     0.75178   0.12881   0.90914   0.00000  Uiso   1.00
C875   C     0.93112   0.17785   0.58310   0.00000  Uiso   1.00
C876   C     0.80509   0.18421   0.91412   0.00000  Uiso   1.00
C877   C     0.84745   0.18743   0.59073   0.00000  Uiso   1.00
C878   C     0.80265   0.16799   0.95736   0.00000  Uiso   1.00
C879   C     0.86181   0.18169   0.54271   0.00000  Uiso   1.00
C880   C     0.76546   0.13863   0.98118   0.00000  Uiso   1.00
C881   C     0.78684   0.14543   0.54923   0.00000  Uiso   1.00
C882   C     0.91131   0.18735   0.51363   0.00000  Uiso   1.00
C883   C     0.83833   0.17738   0.97589   0.00000  Uiso   1.00
C884   C     0.82781   0.16976   0.52335   0.00000  Uiso   1.00
C885   C     0.88615   0.18928   0.94720   0.00000  Uiso   1.00
C886   C     0.75701   0.12804   0.52814   0.00000  Uiso   1.00
C887   C     0.92290   0.19391   0.96514   0.00000  Uiso   1.00
C888   C     0.87043   0.31197   0.75869   0.00000  Uiso   1.00
C889   C     0.79516   0.02132   0.74360   0.00000  Uiso   1.00
C890   C     0.87051   0.02126   0.75852   0.00000  Uiso   1.00
H891   H     0.78133   0.13595   0.58457   0.00000  Uiso   1.00
H892   H     0.95444   0.26850   0.90873   0.00000  Uiso   1.00
H893   H     0.75146   0.26179   0.59672   0.00000  Uiso   1.00
H894   H     0.83649   0.29169   0.93122   0.00000  Uiso   1.00
H895   H     0.95823   0.17286   0.59836   0.00000  Uiso   1.00
H896   H     0.73595   0.11056   0.88890   0.00000  Uiso   1.00
H897   H     0.71373   0.09493   0.97133   0.00000  Uiso   1.00
H898   H     0.98479   0.18419   0.51412   0.00000  Uiso   1.00
H899   H     0.72095   0.10726   0.71844   0.00000  Uiso   1.00
H900   H     0.94618   0.22640   0.78066   0.00000  Uiso   1.00
H901   H     0.89654   0.19144   0.90974   0.00000  Uiso   1.00
H902   H     0.89958   0.29572   0.76483   0.00000  Uiso   1.00
H903   H     0.76597   0.03753   0.73748   0.00000  Uiso   1.00
H904   H     0.89974   0.03744   0.76453   0.00000  Uiso   1.00
H905   H     0.76575   0.29592   0.73790   0.00000  Uiso   1.00
H906   H     0.97032   0.10721   0.71857   0.00000  Uiso   1.00
H907   H     0.69637   0.22615   0.78138   0.00000  Uiso   1.00
H908   H     0.68008   0.07108   0.63308   0.00000  Uiso   1.00
N909   N     0.71426   0.16668   0.75001   0.00000  Uiso   1.00
N910   N     0.95241   0.16666   0.74999   0.00000  Uiso   1.00
O911   O     0.79512   0.22775   0.75001   0.00000  Uiso   1.00
O912   O     0.72851   0.04870   0.54191   0.00000  Uiso   1.00
O913   O     0.70487   0.09269   0.61778   0.00000  Uiso   1.00
O914   O     0.67943   0.22817   0.94771   0.00000  Uiso   1.00
O915   O     0.67193   0.17284   0.89613   0.00000  Uiso   1.00
O916   O     0.97273   0.24562   0.88814   0.00000  Uiso   1.00
O917   O     0.75149   0.19200   0.64576   0.00000  Uiso   1.00
O918   O     0.80436   0.24834   0.65232   0.00000  Uiso   1.00
O919   O     0.78179   0.24656   0.57878   0.00000  Uiso   1.00
O920   O     0.87208   0.23851   0.85907   0.00000  Uiso   1.00
O921   O     0.78632   0.25651   0.88042   0.00000  Uiso   1.00
O922   O     0.87154   0.10558   0.75000   0.00000  Uiso   1.00
O923   O     0.82359   0.26392   0.94398   0.00000  Uiso   1.00
O924   O     0.87157   0.22774   0.75000   0.00000  Uiso   1.00
O925   O     0.79510   0.10559   0.75000   0.00000  Uiso   1.00
O926   O     0.77328   0.16667   0.81613   0.00000  Uiso   1.00
O927   O     0.89339   0.16666   0.68388   0.00000  Uiso   1.00
O928   O     0.84972   0.16666   0.81612   0.00000  Uiso   1.00
O929   O     0.81695   0.16667   0.68388   0.00000  Uiso   1.00
O930   O     0.99758   0.10089   0.55677   0.00000  Uiso   1.00
S931   S     0.71217   0.09145   0.56092   0.00000  Uiso   1.00
S932   S     0.98071   0.20989   0.92468   0.00000  Uiso   1.00
S933   S     0.79469   0.21878   0.61911   0.00000  Uiso   1.00
S934   S     0.82260   0.23687   0.89770   0.00000  Uiso   1.00
Zn935  Zn    0.78229   0.16667   0.75000   0.00000  Uiso   1.00
Zn936  Zn    0.88438   0.16666   0.75000   0.00000  Uiso   1.00
C937   C     0.16652   0.58001   0.75037   0.00000  Uiso   1.00
C938   C     0.12839   0.64539   0.74381   0.00000  Uiso   1.00
C939   C     0.16633   0.37581   0.75074   0.00000  Uiso   1.00
C940   C     0.16620   0.62416   0.75102   0.00000  Uiso   1.00
C941   C     0.31619   0.46696   0.73260   0.00000  Uiso   1.00
C942   C     0.01716   0.53303   0.76739   0.00000  Uiso   1.00
C943   C     0.03073   0.46697   0.73262   0.00000  Uiso   1.00
C944   C     0.30271   0.53309   0.76719   0.00000  Uiso   1.00
C945   C     0.13627   0.49957   0.83789   0.00000  Uiso   1.00
C946   C     0.19684   0.50338   0.66204   0.00000  Uiso   1.00
C947   C     0.11732   0.49471   0.88828   0.00000  Uiso   1.00
C948   C     0.16659   0.41998   0.75017   0.00000  Uiso   1.00
C949   C     0.21465   0.51209   0.61153   0.00000  Uiso   1.00
C950   C     0.07332   0.45273   0.95622   0.00000  Uiso   1.00
C951   C     0.27954   0.51791   0.53464   0.00000  Uiso   1.00
C952   C     0.08511   0.46214   0.90914   0.00000  Uiso   1.00
C953   C     0.26445   0.51118   0.58310   0.00000  Uiso   1.00
C954   C     0.13842   0.51754   0.91412   0.00000  Uiso   1.00
C955   C     0.18079   0.52076   0.59073   0.00000  Uiso   1.00
C956   C     0.13599   0.50132   0.95736   0.00000  Uiso   1.00
C957   C     0.19514   0.51502   0.54271   0.00000  Uiso   1.00
C958   C     0.09879   0.47196   0.98118   0.00000  Uiso   1.00
C959   C     0.12018   0.47876   0.54923   0.00000  Uiso   1.00
C960   C     0.24464   0.52068   0.51363   0.00000  Uiso   1.00
C961   C     0.17166   0.51071   0.97589   0.00000  Uiso   1.00
C962   C     0.16114   0.50309   0.52335   0.00000  Uiso   1.00
C963   C     0.21948   0.52262   0.94720   0.00000  Uiso   1.00
C964   C     0.09035   0.46138   0.52814   0.00000  Uiso   1.00
C965   C     0.25623   0.52724   0.96514   0.00000  Uiso   1.00
C966   C     0.20376   0.64530   0.75869   0.00000  Uiso   1.00
C967   C     0.12849   0.35466   0.74360   0.00000  Uiso   1.00
C968   C     0.20385   0.35459   0.75852   0.00000  Uiso   1.00
H969   H     0.11466   0.46929   0.58457   0.00000  Uiso   1.00
H970   H     0.28778   0.60184   0.90873   0.00000  Uiso   1.00
H971   H     0.08479   0.59512   0.59672   0.00000  Uiso   1.00
H972   H     0.16982   0.62503   0.93122   0.00000  Uiso   1.00
H973   H     0.29156   0.50619   0.59836   0.00000  Uiso   1.00
H974   H     0.06928   0.44390   0.88890   0.00000  Uiso   1.00
H975   H     0.04706   0.42827   0.97133   0.00000  Uiso   1.00
H976   H     0.31812   0.51752   0.51412   0.00000  Uiso   1.00
H977   H     0.05429   0.44060   0.71844   0.00000  Uiso   1.00
H978   H     0.27951   0.55973   0.78066   0.00000  Uiso   1.00
H979   H     0.22987   0.52477   0.90974   0.00000  Uiso   1.00
H980   H     0.23291   0.62905   0.76483   0.00000  Uiso   1.00
H981   H     0.09930   0.37086   0.73748   0.00000  Uiso   1.00
H982   H     0.23307   0.37078   0.76453   0.00000  Uiso   1.00
H983   H     0.09908   0.62925   0.73790   0.00000  Uiso   1.00
H984   H     0.30366   0.44054   0.71857   0.00000  Uiso   1.00
H985   H     0.02971   0.55948   0.78138   0.00000  Uiso   1.00
H986   H     0.01342   0.40441   0.63308   0.00000  Uiso   1.00
N987   N     0.04759   0.50001   0.75001   0.00000  Uiso   1.00
N988   N     0.28574   0.49999   0.74999   0.00000  Uiso   1.00
O989   O     0.12846   0.56108   0.75001   0.00000  Uiso   1.00
O990   O     0.06185   0.38203   0.54191   0.00000  Uiso   1.00
O991   O     0.03820   0.42602   0.61778   0.00000  Uiso   1.00
O992   O     0.01277   0.56151   0.94771   0.00000  Uiso   1.00
O993   O     0.00526   0.50617   0.89613   0.00000  Uiso   1.00
O994   O     0.30607   0.57895   0.88814   0.00000  Uiso   1.00
O995   O     0.08483   0.52533   0.64576   0.00000  Uiso   1.00
O996   O     0.13769   0.58168   0.65232   0.00000  Uiso   1.00
O997   O     0.11512   0.57989   0.57878   0.00000  Uiso   1.00
O998   O     0.20542   0.57185   0.85907   0.00000  Uiso   1.00
O999   O     0.11965   0.58985   0.88042   0.00000  Uiso   1.00
O1000  O     0.20488   0.43892   0.75000   0.00000  Uiso   1.00
O1001  O     0.15693   0.59725   0.94398   0.00000  Uiso   1.00
O1002  O     0.20490   0.56107   0.75000   0.00000  Uiso   1.00
O1003  O     0.12843   0.43893   0.75000   0.00000  Uiso   1.00
O1004  O     0.10661   0.50001   0.81613   0.00000  Uiso   1.00
O1005  O     0.22672   0.49999   0.68388   0.00000  Uiso   1.00
O1006  O     0.18305   0.50000   0.81612   0.00000  Uiso   1.00
O1007  O     0.15028   0.50000   0.68388   0.00000  Uiso   1.00
O1008  O     0.33091   0.43422   0.55677   0.00000  Uiso   1.00
S1009  S     0.04551   0.42479   0.56092   0.00000  Uiso   1.00
S1010  S     0.31404   0.54322   0.92468   0.00000  Uiso   1.00
S1011  S     0.12803   0.55211   0.61911   0.00000  Uiso   1.00
S1012  S     0.15593   0.57020   0.89770   0.00000  Uiso   1.00
Zn1013 Zn    0.11562   0.50001   0.75000   0.00000  Uiso   1.00
Zn1014 Zn    0.21771   0.49999   0.75000   0.00000  Uiso   1.00
C1015  C     0.49986   0.58001   0.75037   0.00000  Uiso   1.00
C1016  C     0.46172   0.64539   0.74381   0.00000  Uiso   1.00
C1017  C     0.49967   0.37581   0.75074   0.00000  Uiso   1.00
C1018  C     0.49953   0.62416   0.75102   0.00000  Uiso   1.00
C1019  C     0.64952   0.46696   0.73260   0.00000  Uiso   1.00
C1020  C     0.35049   0.53303   0.76739   0.00000  Uiso   1.00
C1021  C     0.36407   0.46697   0.73262   0.00000  Uiso   1.00
C1022  C     0.63604   0.53309   0.76719   0.00000  Uiso   1.00
C1023  C     0.46961   0.49957   0.83789   0.00000  Uiso   1.00
C1024  C     0.53017   0.50338   0.66204   0.00000  Uiso   1.00
C1025  C     0.45065   0.49471   0.88828   0.00000  Uiso   1.00
C1026  C     0.49992   0.41998   0.75017   0.00000  Uiso   1.00
C1027  C     0.54798   0.51209   0.61153   0.00000  Uiso   1.00
C1028  C     0.40666   0.45273   0.95622   0.00000  Uiso   1.00
C1029  C     0.61287   0.51791   0.53464   0.00000  Uiso   1.00
C1030  C     0.41845   0.46214   0.90914   0.00000  Uiso   1.00
C1031  C     0.59778   0.51118   0.58310   0.00000  Uiso   1.00
C1032  C     0.47176   0.51754   0.91412   0.00000  Uiso   1.00
C1033  C     0.51412   0.52076   0.59073   0.00000  Uiso   1.00
C1034  C     0.46932   0.50132   0.95736   0.00000  Uiso   1.00
C1035  C     0.52847   0.51502   0.54271   0.00000  Uiso   1.00
C1036  C     0.43212   0.47196   0.98118   0.00000  Uiso   1.00
C1037  C     0.45351   0.47876   0.54923   0.00000  Uiso   1.00
C1038  C     0.57797   0.52068   0.51363   0.00000  Uiso   1.00
C1039  C     0.50500   0.51071   0.97589   0.00000  Uiso   1.00
C1040  C     0.49447   0.50309   0.52335   0.00000  Uiso   1.00
C1041  C     0.55282   0.52262   0.94720   0.00000  Uiso   1.00
C1042  C     0.42368   0.46138   0.52814   0.00000  Uiso   1.00
C1043  C     0.58957   0.52724   0.96514   0.00000  Uiso   1.00
C1044  C     0.53709   0.64530   0.75869   0.00000  Uiso   1.00
C1045  C     0.46183   0.35466   0.74360   0.00000  Uiso   1.00
C1046  C     0.53718   0.35459   0.75852   0.00000  Uiso   1.00
H1047  H     0.44799   0.46929   0.58457   0.00000  Uiso   1.00
H1048  H     0.62111   0.60184   0.90873   0.00000  Uiso   1.00
H1049  H     0.41812   0.59512   0.59672   0.00000  Uiso   1.00
H1050  H     0.50316   0.62503   0.93122   0.00000  Uiso   1.00
H1051  H     0.62490   0.50619   0.59836   0.00000  Uiso   1.00
H1052  H     0.40262   0.44390   0.88890   0.00000  Uiso   1.00
H1053  H     0.38039   0.42827   0.97133   0.00000  Uiso   1.00
H1054  H     0.65145   0.51752   0.51412   0.00000  Uiso   1.00
H1055  H     0.38762   0.44060   0.71844   0.00000  Uiso   1.00
H1056  H     0.61284   0.55973   0.78066   0.00000  Uiso   1.00
H1057  H     0.56320   0.52477   0.90974   0.00000  Uiso   1.00
H1058  H     0.56625   0.62905   0.76483   0.00000  Uiso   1.00
H1059  H     0.43264   0.37086   0.73748   0.00000  Uiso   1.00
H1060  H     0.56640   0.37078   0.76453   0.00000  Uiso   1.00
H1061  H     0.43241   0.62925   0.73790   0.00000  Uiso   1.00
H1062  H     0.63699   0.44054   0.71857   0.00000  Uiso   1.00
H1063  H     0.36304   0.55948   0.78138   0.00000  Uiso   1.00
H1064  H     0.34675   0.40441   0.63308   0.00000  Uiso   1.00
N1065  N     0.38093   0.50001   0.75001   0.00000  Uiso   1.00
N1066  N     0.61907   0.49999   0.74999   0.00000  Uiso   1.00
O1067  O     0.46179   0.56108   0.75001   0.00000  Uiso   1.00
O1068  O     0.39518   0.38203   0.54191   0.00000  Uiso   1.00
O1069  O     0.37153   0.42602   0.61778   0.00000  Uiso   1.00
O1070  O     0.34610   0.56151   0.94771   0.00000  Uiso   1.00
O1071  O     0.33859   0.50617   0.89613   0.00000  Uiso   1.00
O1072  O     0.63940   0.57895   0.88814   0.00000  Uiso   1.00
O1073  O     0.41816   0.52533   0.64576   0.00000  Uiso   1.00
O1074  O     0.47103   0.58168   0.65232   0.00000  Uiso   1.00
O1075  O     0.44846   0.57989   0.57878   0.00000  Uiso   1.00
O1076  O     0.53875   0.57185   0.85907   0.00000  Uiso   1.00
O1077  O     0.45298   0.58985   0.88042   0.00000  Uiso   1.00
O1078  O     0.53821   0.43892   0.75000   0.00000  Uiso   1.00
O1079  O     0.49026   0.59725   0.94398   0.00000  Uiso   1.00
O1080  O     0.53823   0.56107   0.75000   0.00000  Uiso   1.00
O1081  O     0.46177   0.43893   0.75000   0.00000  Uiso   1.00
O1082  O     0.43994   0.50001   0.81613   0.00000  Uiso   1.00
O1083  O     0.56006   0.49999   0.68388   0.00000  Uiso   1.00
O1084  O     0.51639   0.50000   0.81612   0.00000  Uiso   1.00
O1085  O     0.48361   0.50000   0.68388   0.00000  Uiso   1.00
O1086  O     0.66424   0.43422   0.55677   0.00000  Uiso   1.00
S1087  S     0.37884   0.42479   0.56092   0.00000  Uiso   1.00
S1088  S     0.64738   0.54322   0.92468   0.00000  Uiso   1.00
S1089  S     0.46136   0.55211   0.61911   0.00000  Uiso   1.00
S1090  S     0.48927   0.57020   0.89770   0.00000  Uiso   1.00
Zn1091 Zn    0.44896   0.50001   0.75000   0.00000  Uiso   1.00
Zn1092 Zn    0.55104   0.49999   0.75000   0.00000  Uiso   1.00
C1093  C     0.83319   0.58001   0.75037   0.00000  Uiso   1.00
C1094  C     0.79505   0.64539   0.74381   0.00000  Uiso   1.00
C1095  C     0.83300   0.37581   0.75074   0.00000  Uiso   1.00
C1096  C     0.83287   0.62416   0.75102   0.00000  Uiso   1.00
C1097  C     0.98286   0.46696   0.73260   0.00000  Uiso   1.00
C1098  C     0.68383   0.53303   0.76739   0.00000  Uiso   1.00
C1099  C     0.69740   0.46697   0.73262   0.00000  Uiso   1.00
C1100  C     0.96938   0.53309   0.76719   0.00000  Uiso   1.00
C1101  C     0.80294   0.49957   0.83789   0.00000  Uiso   1.00
C1102  C     0.86350   0.50338   0.66204   0.00000  Uiso   1.00
C1103  C     0.78398   0.49471   0.88828   0.00000  Uiso   1.00
C1104  C     0.83326   0.41998   0.75017   0.00000  Uiso   1.00
C1105  C     0.88131   0.51209   0.61153   0.00000  Uiso   1.00
C1106  C     0.73999   0.45273   0.95622   0.00000  Uiso   1.00
C1107  C     0.94621   0.51791   0.53464   0.00000  Uiso   1.00
C1108  C     0.75178   0.46214   0.90914   0.00000  Uiso   1.00
C1109  C     0.93112   0.51118   0.58310   0.00000  Uiso   1.00
C1110  C     0.80509   0.51754   0.91412   0.00000  Uiso   1.00
C1111  C     0.84745   0.52076   0.59073   0.00000  Uiso   1.00
C1112  C     0.80265   0.50132   0.95736   0.00000  Uiso   1.00
C1113  C     0.86181   0.51502   0.54271   0.00000  Uiso   1.00
C1114  C     0.76546   0.47196   0.98118   0.00000  Uiso   1.00
C1115  C     0.78684   0.47876   0.54923   0.00000  Uiso   1.00
C1116  C     0.91131   0.52068   0.51363   0.00000  Uiso   1.00
C1117  C     0.83833   0.51071   0.97589   0.00000  Uiso   1.00
C1118  C     0.82781   0.50309   0.52335   0.00000  Uiso   1.00
C1119  C     0.88615   0.52262   0.94720   0.00000  Uiso   1.00
C1120  C     0.75701   0.46138   0.52814   0.00000  Uiso   1.00
C1121  C     0.92290   0.52724   0.96514   0.00000  Uiso   1.00
C1122  C     0.87043   0.64530   0.75869   0.00000  Uiso   1.00
C1123  C     0.79516   0.35466   0.74360   0.00000  Uiso   1.00
C1124  C     0.87051   0.35459   0.75852   0.00000  Uiso   1.00
H1125  H     0.78133   0.46929   0.58457   0.00000  Uiso   1.00
H1126  H     0.95444   0.60184   0.90873   0.00000  Uiso   1.00
H1127  H     0.75146   0.59512   0.59672   0.00000  Uiso   1.00
H1128  H     0.83649   0.62503   0.93122   0.00000  Uiso   1.00
H1129  H     0.95823   0.50619   0.59836   0.00000  Uiso   1.00
H1130  H     0.73595   0.44390   0.88890   0.00000  Uiso   1.00
H1131  H     0.71373   0.42827   0.97133   0.00000  Uiso   1.00
H1132  H     0.98479   0.51752   0.51412   0.00000  Uiso   1.00
H1133  H     0.72095   0.44060   0.71844   0.00000  Uiso   1.00
H1134  H     0.94618   0.55973   0.78066   0.00000  Uiso   1.00
H1135  H     0.89654   0.52477   0.90974   0.00000  Uiso   1.00
H1136  H     0.89958   0.62905   0.76483   0.00000  Uiso   1.00
H1137  H     0.76597   0.37086   0.73748   0.00000  Uiso   1.00
H1138  H     0.89974   0.37078   0.76453   0.00000  Uiso   1.00
H1139  H     0.76575   0.62925   0.73790   0.00000  Uiso   1.00
H1140  H     0.97032   0.44054   0.71857   0.00000  Uiso   1.00
H1141  H     0.69637   0.55948   0.78138   0.00000  Uiso   1.00
H1142  H     0.68008   0.40441   0.63308   0.00000  Uiso   1.00
N1143  N     0.71426   0.50001   0.75001   0.00000  Uiso   1.00
N1144  N     0.95241   0.49999   0.74999   0.00000  Uiso   1.00
O1145  O     0.79512   0.56108   0.75001   0.00000  Uiso   1.00
O1146  O     0.72851   0.38203   0.54191   0.00000  Uiso   1.00
O1147  O     0.70487   0.42602   0.61778   0.00000  Uiso   1.00
O1148  O     0.67943   0.56151   0.94771   0.00000  Uiso   1.00
O1149  O     0.67193   0.50617   0.89613   0.00000  Uiso   1.00
O1150  O     0.97273   0.57895   0.88814   0.00000  Uiso   1.00
O1151  O     0.75149   0.52533   0.64576   0.00000  Uiso   1.00
O1152  O     0.80436   0.58168   0.65232   0.00000  Uiso   1.00
O1153  O     0.78179   0.57989   0.57878   0.00000  Uiso   1.00
O1154  O     0.87208   0.57185   0.85907   0.00000  Uiso   1.00
O1155  O     0.78632   0.58985   0.88042   0.00000  Uiso   1.00
O1156  O     0.87154   0.43892   0.75000   0.00000  Uiso   1.00
O1157  O     0.82359   0.59725   0.94398   0.00000  Uiso   1.00
O1158  O     0.87157   0.56107   0.75000   0.00000  Uiso   1.00
O1159  O     0.79510   0.43893   0.75000   0.00000  Uiso   1.00
O1160  O     0.77328   0.50001   0.81613   0.00000  Uiso   1.00
O1161  O     0.89339   0.49999   0.68388   0.00000  Uiso   1.00
O1162  O     0.84972   0.50000   0.81612   0.00000  Uiso   1.00
O1163  O     0.81695   0.50000   0.68388   0.00000  Uiso   1.00
O1164  O     0.99758   0.43422   0.55677   0.00000  Uiso   1.00
S1165  S     0.71217   0.42479   0.56092   0.00000  Uiso   1.00
S1166  S     0.98071   0.54322   0.92468   0.00000  Uiso   1.00
S1167  S     0.79469   0.55211   0.61911   0.00000  Uiso   1.00
S1168  S     0.82260   0.57020   0.89770   0.00000  Uiso   1.00
Zn1169 Zn    0.78229   0.50001   0.75000   0.00000  Uiso   1.00
Zn1170 Zn    0.88438   0.49999   0.75000   0.00000  Uiso   1.00
C1171  C     0.16652   0.91335   0.75037   0.00000  Uiso   1.00
C1172  C     0.12839   0.97873   0.74381   0.00000  Uiso   1.00
C1173  C     0.16633   0.70914   0.75074   0.00000  Uiso   1.00
C1174  C     0.16620   0.95750   0.75102   0.00000  Uiso   1.00
C1175  C     0.31619   0.80030   0.73260   0.00000  Uiso   1.00
C1176  C     0.01716   0.86637   0.76739   0.00000  Uiso   1.00
C1177  C     0.03073   0.80030   0.73262   0.00000  Uiso   1.00
C1178  C     0.30271   0.86642   0.76719   0.00000  Uiso   1.00
C1179  C     0.13627   0.83290   0.83789   0.00000  Uiso   1.00
C1180  C     0.19684   0.83672   0.66204   0.00000  Uiso   1.00
C1181  C     0.11732   0.82804   0.88828   0.00000  Uiso   1.00
C1182  C     0.16659   0.75331   0.75017   0.00000  Uiso   1.00
C1183  C     0.21465   0.84542   0.61153   0.00000  Uiso   1.00
C1184  C     0.07332   0.78606   0.95622   0.00000  Uiso   1.00
C1185  C     0.27954   0.85124   0.53464   0.00000  Uiso   1.00
C1186  C     0.08511   0.79547   0.90914   0.00000  Uiso   1.00
C1187  C     0.26445   0.84451   0.58310   0.00000  Uiso   1.00
C1188  C     0.13842   0.85088   0.91412   0.00000  Uiso   1.00
C1189  C     0.18079   0.85409   0.59073   0.00000  Uiso   1.00
C1190  C     0.13599   0.83466   0.95736   0.00000  Uiso   1.00
C1191  C     0.19514   0.84836   0.54271   0.00000  Uiso   1.00
C1192  C     0.09879   0.80529   0.98118   0.00000  Uiso   1.00
C1193  C     0.12018   0.81210   0.54923   0.00000  Uiso   1.00
C1194  C     0.24464   0.85401   0.51363   0.00000  Uiso   1.00
C1195  C     0.17166   0.84405   0.97589   0.00000  Uiso   1.00
C1196  C     0.16114   0.83642   0.52335   0.00000  Uiso   1.00
C1197  C     0.21948   0.85595   0.94720   0.00000  Uiso   1.00
C1198  C     0.09035   0.79471   0.52814   0.00000  Uiso   1.00
C1199  C     0.25623   0.86057   0.96514   0.00000  Uiso   1.00
C1200  C     0.20376   0.97863   0.75869   0.00000  Uiso   1.00
C1201  C     0.12849   0.68799   0.74360   0.00000  Uiso   1.00
C1202  C     0.20385   0.68792   0.75852   0.00000  Uiso   1.00
H1203  H     0.11466   0.80262   0.58457   0.00000  Uiso   1.00
H1204  H     0.28778   0.93517   0.90873   0.00000  Uiso   1.00
H1205  H     0.08479   0.92845   0.59672   0.00000  Uiso   1.00
H1206  H     0.16982   0.95836   0.93122   0.00000  Uiso   1.00
H1207  H     0.29156   0.83953   0.59836   0.00000  Uiso   1.00
H1208  H     0.06928   0.77723   0.88890   0.00000  Uiso   1.00
H1209  H     0.04706   0.76160   0.97133   0.00000  Uiso   1.00
H1210  H     0.31812   0.85085   0.51412   0.00000  Uiso   1.00
H1211  H     0.05429   0.77393   0.71844   0.00000  Uiso   1.00
H1212  H     0.27951   0.89307   0.78066   0.00000  Uiso   1.00
H1213  H     0.22987   0.85811   0.90974   0.00000  Uiso   1.00
H1214  H     0.23291   0.96239   0.76483   0.00000  Uiso   1.00
H1215  H     0.09930   0.70420   0.73748   0.00000  Uiso   1.00
H1216  H     0.23307   0.70411   0.76453   0.00000  Uiso   1.00
H1217  H     0.09908   0.96259   0.73790   0.00000  Uiso   1.00
H1218  H     0.30366   0.77388   0.71857   0.00000  Uiso   1.00
H1219  H     0.02971   0.89282   0.78138   0.00000  Uiso   1.00
H1220  H     0.01342   0.73775   0.63308   0.00000  Uiso   1.00
N1221  N     0.04759   0.83334   0.75001   0.00000  Uiso   1.00
N1222  N     0.28574   0.83332   0.74999   0.00000  Uiso   1.00
O1223  O     0.12846   0.89442   0.75001   0.00000  Uiso   1.00
O1224  O     0.06185   0.71537   0.54191   0.00000  Uiso   1.00
O1225  O     0.03820   0.75936   0.61778   0.00000  Uiso   1.00
O1226  O     0.01277   0.89484   0.94771   0.00000  Uiso   1.00
O1227  O     0.00526   0.83950   0.89613   0.00000  Uiso   1.00
O1228  O     0.30607   0.91229   0.88814   0.00000  Uiso   1.00
O1229  O     0.08483   0.85866   0.64576   0.00000  Uiso   1.00
O1230  O     0.13769   0.91501   0.65232   0.00000  Uiso   1.00
O1231  O     0.11512   0.91322   0.57878   0.00000  Uiso   1.00
O1232  O     0.20542   0.90518   0.85907   0.00000  Uiso   1.00
O1233  O     0.11965   0.92318   0.88042   0.00000  Uiso   1.00
O1234  O     0.20488   0.77225   0.75000   0.00000  Uiso   1.00
O1235  O     0.15693   0.93059   0.94398   0.00000  Uiso   1.00
O1236  O     0.20490   0.89441   0.75000   0.00000  Uiso   1.00
O1237  O     0.12843   0.77226   0.75000   0.00000  Uiso   1.00
O1238  O     0.10661   0.83334   0.81613   0.00000  Uiso   1.00
O1239  O     0.22672   0.83333   0.68388   0.00000  Uiso   1.00
O1240  O     0.18305   0.83333   0.81612   0.00000  Uiso   1.00
O1241  O     0.15028   0.83334   0.68388   0.00000  Uiso   1.00
O1242  O     0.33091   0.76755   0.55677   0.00000  Uiso   1.00
S1243  S     0.04551   0.75812   0.56092   0.00000  Uiso   1.00
S1244  S     0.31404   0.87655   0.92468   0.00000  Uiso   1.00
S1245  S     0.12803   0.88545   0.61911   0.00000  Uiso   1.00
S1246  S     0.15593   0.90354   0.89770   0.00000  Uiso   1.00
Zn1247 Zn    0.11562   0.83334   0.75000   0.00000  Uiso   1.00
Zn1248 Zn    0.21771   0.83333   0.75000   0.00000  Uiso   1.00
C1249  C     0.49986   0.91335   0.75037   0.00000  Uiso   1.00
C1250  C     0.46172   0.97873   0.74381   0.00000  Uiso   1.00
C1251  C     0.49967   0.70914   0.75074   0.00000  Uiso   1.00
C1252  C     0.49953   0.95750   0.75102   0.00000  Uiso   1.00
C1253  C     0.64952   0.80030   0.73260   0.00000  Uiso   1.00
C1254  C     0.35049   0.86637   0.76739   0.00000  Uiso   1.00
C1255  C     0.36407   0.80030   0.73262   0.00000  Uiso   1.00
C1256  C     0.63604   0.86642   0.76719   0.00000  Uiso   1.00
C1257  C     0.46961   0.83290   0.83789   0.00000  Uiso   1.00
C1258  C     0.53017   0.83672   0.66204   0.00000  Uiso   1.00
C1259  C     0.45065   0.82804   0.88828   0.00000  Uiso   1.00
C1260  C     0.49992   0.75331   0.75017   0.00000  Uiso   1.00
C1261  C     0.54798   0.84542   0.61153   0.00000  Uiso   1.00
C1262  C     0.40666   0.78606   0.95622   0.00000  Uiso   1.00
C1263  C     0.61287   0.85124   0.53464   0.00000  Uiso   1.00
C1264  C     0.41845   0.79547   0.90914   0.00000  Uiso   1.00
C1265  C     0.59778   0.84451   0.58310   0.00000  Uiso   1.00
C1266  C     0.47176   0.85088   0.91412   0.00000  Uiso   1.00
C1267  C     0.51412   0.85409   0.59073   0.00000  Uiso   1.00
C1268  C     0.46932   0.83466   0.95736   0.00000  Uiso   1.00
C1269  C     0.52847   0.84836   0.54271   0.00000  Uiso   1.00
C1270  C     0.43212   0.80529   0.98118   0.00000  Uiso   1.00
C1271  C     0.45351   0.81210   0.54923   0.00000  Uiso   1.00
C1272  C     0.57797   0.85401   0.51363   0.00000  Uiso   1.00
C1273  C     0.50500   0.84405   0.97589   0.00000  Uiso   1.00
C1274  C     0.49447   0.83642   0.52335   0.00000  Uiso   1.00
C1275  C     0.55282   0.85595   0.94720   0.00000  Uiso   1.00
C1276  C     0.42368   0.79471   0.52814   0.00000  Uiso   1.00
C1277  C     0.58957   0.86057   0.96514   0.00000  Uiso   1.00
C1278  C     0.53709   0.97863   0.75869   0.00000  Uiso   1.00
C1279  C     0.46183   0.68799   0.74360   0.00000  Uiso   1.00
C1280  C     0.53718   0.68792   0.75852   0.00000  Uiso   1.00
H1281  H     0.44799   0.80262   0.58457   0.00000  Uiso   1.00
H1282  H     0.62111   0.93517   0.90873   0.00000  Uiso   1.00
H1283  H     0.41812   0.92845   0.59672   0.00000  Uiso   1.00
H1284  H     0.50316   0.95836   0.93122   0.00000  Uiso   1.00
H1285  H     0.62490   0.83953   0.59836   0.00000  Uiso   1.00
H1286  H     0.40262   0.77723   0.88890   0.00000  Uiso   1.00
H1287  H     0.38039   0.76160   0.97133   0.00000  Uiso   1.00
H1288  H     0.65145   0.85085   0.51412   0.00000  Uiso   1.00
H1289  H     0.38762   0.77393   0.71844   0.00000  Uiso   1.00
H1290  H     0.61284   0.89307   0.78066   0.00000  Uiso   1.00
H1291  H     0.56320   0.85811   0.90974   0.00000  Uiso   1.00
H1292  H     0.56625   0.96239   0.76483   0.00000  Uiso   1.00
H1293  H     0.43264   0.70420   0.73748   0.00000  Uiso   1.00
H1294  H     0.56640   0.70411   0.76453   0.00000  Uiso   1.00
H1295  H     0.43241   0.96259   0.73790   0.00000  Uiso   1.00
H1296  H     0.63699   0.77388   0.71857   0.00000  Uiso   1.00
H1297  H     0.36304   0.89282   0.78138   0.00000  Uiso   1.00
H1298  H     0.34675   0.73775   0.63308   0.00000  Uiso   1.00
N1299  N     0.38093   0.83334   0.75001   0.00000  Uiso   1.00
N1300  N     0.61907   0.83332   0.74999   0.00000  Uiso   1.00
O1301  O     0.46179   0.89442   0.75001   0.00000  Uiso   1.00
O1302  O     0.39518   0.71537   0.54191   0.00000  Uiso   1.00
O1303  O     0.37153   0.75936   0.61778   0.00000  Uiso   1.00
O1304  O     0.34610   0.89484   0.94771   0.00000  Uiso   1.00
O1305  O     0.33859   0.83950   0.89613   0.00000  Uiso   1.00
O1306  O     0.63940   0.91229   0.88814   0.00000  Uiso   1.00
O1307  O     0.41816   0.85866   0.64576   0.00000  Uiso   1.00
O1308  O     0.47103   0.91501   0.65232   0.00000  Uiso   1.00
O1309  O     0.44846   0.91322   0.57878   0.00000  Uiso   1.00
O1310  O     0.53875   0.90518   0.85907   0.00000  Uiso   1.00
O1311  O     0.45298   0.92318   0.88042   0.00000  Uiso   1.00
O1312  O     0.53821   0.77225   0.75000   0.00000  Uiso   1.00
O1313  O     0.49026   0.93059   0.94398   0.00000  Uiso   1.00
O1314  O     0.53823   0.89441   0.75000   0.00000  Uiso   1.00
O1315  O     0.46177   0.77226   0.75000   0.00000  Uiso   1.00
O1316  O     0.43994   0.83334   0.81613   0.00000  Uiso   1.00
O1317  O     0.56006   0.83333   0.68388   0.00000  Uiso   1.00
O1318  O     0.51639   0.83333   0.81612   0.00000  Uiso   1.00
O1319  O     0.48361   0.83334   0.68388   0.00000  Uiso   1.00
O1320  O     0.66424   0.76755   0.55677   0.00000  Uiso   1.00
S1321  S     0.37884   0.75812   0.56092   0.00000  Uiso   1.00
S1322  S     0.64738   0.87655   0.92468   0.00000  Uiso   1.00
S1323  S     0.46136   0.88545   0.61911   0.00000  Uiso   1.00
S1324  S     0.48927   0.90354   0.89770   0.00000  Uiso   1.00
Zn1325 Zn    0.44896   0.83334   0.75000   0.00000  Uiso   1.00
Zn1326 Zn    0.55104   0.83333   0.75000   0.00000  Uiso   1.00
C1327  C     0.83319   0.91335   0.75037   0.00000  Uiso   1.00
C1328  C     0.79505   0.97873   0.74381   0.00000  Uiso   1.00
C1329  C     0.83300   0.70914   0.75074   0.00000  Uiso   1.00
C1330  C     0.83287   0.95750   0.75102   0.00000  Uiso   1.00
C1331  C     0.98286   0.80030   0.73260   0.00000  Uiso   1.00
C1332  C     0.68383   0.86637   0.76739   0.00000  Uiso   1.00
C1333  C     0.69740   0.80030   0.73262   0.00000  Uiso   1.00
C1334  C     0.96938   0.86642   0.76719   0.00000  Uiso   1.00
C1335  C     0.80294   0.83290   0.83789   0.00000  Uiso   1.00
C1336  C     0.86350   0.83672   0.66204   0.00000  Uiso   1.00
C1337  C     0.78398   0.82804   0.88828   0.00000  Uiso   1.00
C1338  C     0.83326   0.75331   0.75017   0.00000  Uiso   1.00
C1339  C     0.88131   0.84542   0.61153   0.00000  Uiso   1.00
C1340  C     0.73999   0.78606   0.95622   0.00000  Uiso   1.00
C1341  C     0.94621   0.85124   0.53464   0.00000  Uiso   1.00
C1342  C     0.75178   0.79547   0.90914   0.00000  Uiso   1.00
C1343  C     0.93112   0.84451   0.58310   0.00000  Uiso   1.00
C1344  C     0.80509   0.85088   0.91412   0.00000  Uiso   1.00
C1345  C     0.84745   0.85409   0.59073   0.00000  Uiso   1.00
C1346  C     0.80265   0.83466   0.95736   0.00000  Uiso   1.00
C1347  C     0.86181   0.84836   0.54271   0.00000  Uiso   1.00
C1348  C     0.76546   0.80529   0.98118   0.00000  Uiso   1.00
C1349  C     0.78684   0.81210   0.54923   0.00000  Uiso   1.00
C1350  C     0.91131   0.85401   0.51363   0.00000  Uiso   1.00
C1351  C     0.83833   0.84405   0.97589   0.00000  Uiso   1.00
C1352  C     0.82781   0.83642   0.52335   0.00000  Uiso   1.00
C1353  C     0.88615   0.85595   0.94720   0.00000  Uiso   1.00
C1354  C     0.75701   0.79471   0.52814   0.00000  Uiso   1.00
C1355  C     0.92290   0.86057   0.96514   0.00000  Uiso   1.00
C1356  C     0.87043   0.97863   0.75869   0.00000  Uiso   1.00
C1357  C     0.79516   0.68799   0.74360   0.00000  Uiso   1.00
C1358  C     0.87051   0.68792   0.75852   0.00000  Uiso   1.00
H1359  H     0.78133   0.80262   0.58457   0.00000  Uiso   1.00
H1360  H     0.95444   0.93517   0.90873   0.00000  Uiso   1.00
H1361  H     0.75146   0.92845   0.59672   0.00000  Uiso   1.00
H1362  H     0.83649   0.95836   0.93122   0.00000  Uiso   1.00
H1363  H     0.95823   0.83953   0.59836   0.00000  Uiso   1.00
H1364  H     0.73595   0.77723   0.88890   0.00000  Uiso   1.00
H1365  H     0.71373   0.76160   0.97133   0.00000  Uiso   1.00
H1366  H     0.98479   0.85085   0.51412   0.00000  Uiso   1.00
H1367  H     0.72095   0.77393   0.71844   0.00000  Uiso   1.00
H1368  H     0.94618   0.89307   0.78066   0.00000  Uiso   1.00
H1369  H     0.89654   0.85811   0.90974   0.00000  Uiso   1.00
H1370  H     0.89958   0.96239   0.76483   0.00000  Uiso   1.00
H1371  H     0.76597   0.70420   0.73748   0.00000  Uiso   1.00
H1372  H     0.89974   0.70411   0.76453   0.00000  Uiso   1.00
H1373  H     0.76575   0.96259   0.73790   0.00000  Uiso   1.00
H1374  H     0.97032   0.77388   0.71857   0.00000  Uiso   1.00
H1375  H     0.69637   0.89282   0.78138   0.00000  Uiso   1.00
H1376  H     0.68008   0.73775   0.63308   0.00000  Uiso   1.00
N1377  N     0.71426   0.83334   0.75001   0.00000  Uiso   1.00
N1378  N     0.95241   0.83332   0.74999   0.00000  Uiso   1.00
O1379  O     0.79512   0.89442   0.75001   0.00000  Uiso   1.00
O1380  O     0.72851   0.71537   0.54191   0.00000  Uiso   1.00
O1381  O     0.70487   0.75936   0.61778   0.00000  Uiso   1.00
O1382  O     0.67943   0.89484   0.94771   0.00000  Uiso   1.00
O1383  O     0.67193   0.83950   0.89613   0.00000  Uiso   1.00
O1384  O     0.97273   0.91229   0.88814   0.00000  Uiso   1.00
O1385  O     0.75149   0.85866   0.64576   0.00000  Uiso   1.00
O1386  O     0.80436   0.91501   0.65232   0.00000  Uiso   1.00
O1387  O     0.78179   0.91322   0.57878   0.00000  Uiso   1.00
O1388  O     0.87208   0.90518   0.85907   0.00000  Uiso   1.00
O1389  O     0.78632   0.92318   0.88042   0.00000  Uiso   1.00
O1390  O     0.87154   0.77225   0.75000   0.00000  Uiso   1.00
O1391  O     0.82359   0.93059   0.94398   0.00000  Uiso   1.00
O1392  O     0.87157   0.89441   0.75000   0.00000  Uiso   1.00
O1393  O     0.79510   0.77226   0.75000   0.00000  Uiso   1.00
O1394  O     0.77328   0.83334   0.81613   0.00000  Uiso   1.00
O1395  O     0.89339   0.83333   0.68388   0.00000  Uiso   1.00
O1396  O     0.84972   0.83333   0.81612   0.00000  Uiso   1.00
O1397  O     0.81695   0.83334   0.68388   0.00000  Uiso   1.00
O1398  O     0.99758   0.76755   0.55677   0.00000  Uiso   1.00
S1399  S     0.71217   0.75812   0.56092   0.00000  Uiso   1.00
S1400  S     0.98071   0.87655   0.92468   0.00000  Uiso   1.00
S1401  S     0.79469   0.88545   0.61911   0.00000  Uiso   1.00
S1402  S     0.82260   0.90354   0.89770   0.00000  Uiso   1.00
Zn1403 Zn    0.78229   0.83334   0.75000   0.00000  Uiso   1.00
Zn1404 Zn    0.88438   0.83333   0.75000   0.00000  Uiso   1.00
loop_
_geom_bond_atom_site_label_1
_geom_bond_atom_site_label_2
_geom_bond_distance
_geom_bond_site_symmetry_2
_ccdc_geom_bond_type
C1     O53     1.284   .     A
C1     O66     1.285   .     A
C1     C4      1.419   .     S
C2     C4      1.397   .     A
C2     H47     1.084   .     S
C2     C265    1.369   .     S
C3     C12     1.420   .     S
C3     C31     1.397   .     A
C3     C32     1.397   .     A
C4     C30     1.397   .     A
C5     N52     1.367   .     A
C5     H48     1.081   .     S
C5     C85     1.417   .     S
C6     N51     1.366   .     A
C6     H49     1.082   .     S
C6     C164    1.417   1_455 S
C7     N51     1.367   .     A
C7     H41     1.081   .     S
C7     C161    1.417   1_455 S
C8     H42     1.080   .     S
C8     N52     1.367   .     A
C8     C84     1.417   .     S
C9     O70     1.292   .     A
C9     C11     1.447   .     S
C9     O68     1.289   .     A
C10    O71     1.291   .     A
C10    C13     1.469   .     S
C10    O69     1.301   .     A
C11    C18     1.393   .     A
C11    C16     1.397   .     A
C12    O64     1.285   .     A
C12    O67     1.285   .     A
C13    C19     1.404   .     A
C13    C17     1.404   .     A
C14    H39     1.079   .     S
C14    C16     1.390   .     A
C14    C22     1.407   .     A
C15    C24     1.412   .     A
C15    C17     1.404   .     A
C15    H40     1.078   .     S
C16    H38     1.084   .     S
C17    H37     1.083   .     S
C18    S76     1.785   .     S
C18    C20     1.404   .     A
C19    C21     1.390   .     A
C19    S75     1.789   .     S
C20    C25     1.409   .     A
C20    C22     1.425   .     A
C21    C26     1.403   .     A
C21    C24     1.413   .     A
C22    C730    1.412   .     S
C23    C26     1.410   .     A
C23    H33     1.081   .     S
C23    C28     1.395   .     A
C24    C731    1.416   1_554 S
C25    C27     1.411   .     A
C25    C728    1.396   .     S
C26    C727    1.396   1_554 S
C27    C29     1.401   .     A
C27    H43     1.078   .     S
C28    S73     1.775   .     S
C28    C724    1.412   1_554 S
C29    S74     1.772   .     S
C29    C726    1.416   .     S
C30    H44     1.084   .     S
C30    C266    1.370   .     S
C31    H45     1.084   .     S
C31    C470    1.369   1_545 S
C32    H46     1.084   .     S
C32    C498    1.370   1_545 S
H34    O58     0.991   .     S
H35    O61     0.990   .     S
H36    O65     0.991   .     S
H50    O55     0.990   .     S
N51    Zn77    2.013   .     S
N52    Zn78    2.013   .     S
O53    Zn77    2.000   .     S
O54    S73     1.503   .     D
O55    S73     1.683   .     S
O56    S230    1.502   1_455 S
O57    S230    1.499   1_455 S
O58    S74     1.682   .     S
O59    S75     1.502   .     D
O60    S75     1.503   .     D
O61    S75     1.683   .     S
O62    S76     1.502   .     D
O63    S76     1.503   .     D
O64    Zn78    2.000   .     S
O65    S76     1.682   .     S
O66    Zn78    1.999   .     S
O67    Zn77    1.999   .     S
O68    Zn77    1.952   .     S
O69    Zn78    1.952   .     S
O70    Zn78    1.906   .     S
O71    Zn77    1.906   .     S
O72    S151    1.502   .     S
S73    O228    1.502   1_455 S
S74    O135    1.499   .     S
S74    O134    1.502   .     S
C79    O131    1.284   .     A
C79    O144    1.285   .     A
C79    C82     1.419   .     S
C80    C82     1.397   .     A
C80    H125    1.084   .     S
C80    C343    1.369   .     S
C81    C90     1.420   .     S
C81    C109    1.397   .     A
C81    C110    1.397   .     A
C82    C108    1.397   .     A
C83    N130    1.367   .     A
C83    H126    1.081   .     S
C83    C163    1.417   .     S
C84    N129    1.366   .     A
C84    H127    1.082   .     S
C85    N129    1.367   .     A
C85    H119    1.081   .     S
C86    H120    1.080   .     S
C86    N130    1.367   .     A
C86    C162    1.417   .     S
C87    O148    1.292   .     A
C87    C89     1.447   .     S
C87    O146    1.289   .     A
C88    O149    1.291   .     A
C88    C91     1.469   .     S
C88    O147    1.301   .     A
C89    C96     1.393   .     A
C89    C94     1.397   .     A
C90    O142    1.285   .     A
C90    O145    1.285   .     A
C91    C97     1.404   .     A
C91    C95     1.404   .     A
C92    H117    1.079   .     S
C92    C94     1.390   .     A
C92    C100    1.407   .     A
C93    C102    1.412   .     A
C93    C95     1.404   .     A
C93    H118    1.078   .     S
C94    H116    1.084   .     S
C95    H115    1.083   .     S
C96    S154    1.785   .     S
C96    C98     1.404   .     A
C97    C99     1.390   .     A
C97    S153    1.789   .     S
C98    C103    1.409   .     A
C98    C100    1.425   .     A
C99    C104    1.403   .     A
C99    C102    1.413   .     A
C100   C808    1.412   .     S
C101   C104    1.410   .     A
C101   H111    1.081   .     S
C101   C106    1.395   .     A
C102   C809    1.416   1_554 S
C103   C105    1.411   .     A
C103   C806    1.396   .     S
C104   C805    1.396   1_554 S
C105   C107    1.401   .     A
C105   H121    1.078   .     S
C106   S151    1.775   .     S
C106   C802    1.412   1_554 S
C107   S152    1.772   .     S
C107   C804    1.416   .     S
C108   H122    1.084   .     S
C108   C344    1.370   .     S
C109   H123    1.084   .     S
C109   C548    1.369   1_545 S
C110   H124    1.084   .     S
C110   C576    1.370   1_545 S
H112   O136    0.991   .     S
H113   O139    0.990   .     S
H114   O143    0.991   .     S
H128   O133    0.990   .     S
N129   Zn155   2.013   .     S
N130   Zn156   2.013   .     S
O131   Zn155   2.000   .     S
O132   S151    1.503   .     D
O133   S151    1.683   .     S
O136   S152    1.682   .     S
O137   S153    1.502   .     D
O138   S153    1.503   .     D
O139   S153    1.683   .     S
O140   S154    1.502   .     D
O141   S154    1.503   .     D
O142   Zn156   2.000   .     S
O143   S154    1.682   .     S
O144   Zn156   1.999   .     S
O145   Zn155   1.999   .     S
O146   Zn155   1.952   .     S
O147   Zn156   1.952   .     S
O148   Zn156   1.906   .     S
O149   Zn155   1.906   .     S
O150   S229    1.502   .     S
S152   O213    1.499   .     S
S152   O212    1.502   .     S
C157   O209    1.284   .     A
C157   O222    1.285   .     A
C157   C160    1.419   .     S
C158   C160    1.397   .     A
C158   H203    1.084   .     S
C158   C421    1.369   .     S
C159   C168    1.420   .     S
C159   C187    1.397   .     A
C159   C188    1.397   .     A
C160   C186    1.397   .     A
C161   N208    1.367   .     A
C161   H204    1.081   .     S
C161   C7      1.417   1_655 S
C162   N207    1.366   .     A
C162   H205    1.082   .     S
C163   N207    1.367   .     A
C163   H197    1.081   .     S
C164   H198    1.080   .     S
C164   N208    1.367   .     A
C164   C6      1.417   1_655 S
C165   O226    1.292   .     A
C165   C167    1.447   .     S
C165   O224    1.289   .     A
C166   O227    1.291   .     A
C166   C169    1.469   .     S
C166   O225    1.301   .     A
C167   C174    1.393   .     A
C167   C172    1.397   .     A
C168   O220    1.285   .     A
C168   O223    1.285   .     A
C169   C175    1.404   .     A
C169   C173    1.404   .     A
C170   H195    1.079   .     S
C170   C172    1.390   .     A
C170   C178    1.407   .     A
C171   C180    1.412   .     A
C171   C173    1.404   .     A
C171   H196    1.078   .     S
C172   H194    1.084   .     S
C173   H193    1.083   .     S
C174   S232    1.785   .     S
C174   C176    1.404   .     A
C175   C177    1.390   .     A
C175   S231    1.789   .     S
C176   C181    1.409   .     A
C176   C178    1.425   .     A
C177   C182    1.403   .     A
C177   C180    1.413   .     A
C178   C886    1.412   .     S
C179   C182    1.410   .     A
C179   H189    1.081   .     S
C179   C184    1.395   .     A
C180   C887    1.416   1_554 S
C181   C183    1.411   .     A
C181   C884    1.396   .     S
C182   C883    1.396   1_554 S
C183   C185    1.401   .     A
C183   H199    1.078   .     S
C184   S229    1.775   .     S
C184   C880    1.412   1_554 S
C185   S230    1.772   .     S
C185   C882    1.416   .     S
C186   H200    1.084   .     S
C186   C422    1.370   .     S
C187   H201    1.084   .     S
C187   C626    1.369   1_545 S
C188   H202    1.084   .     S
C188   C654    1.370   1_545 S
H190   O214    0.991   .     S
H191   O217    0.990   .     S
H192   O221    0.991   .     S
H206   O211    0.990   .     S
N207   Zn233   2.013   .     S
N208   Zn234   2.013   .     S
O209   Zn233   2.000   .     S
O210   S229    1.503   .     D
O211   S229    1.683   .     S
O214   S230    1.682   .     S
O215   S231    1.502   .     D
O216   S231    1.503   .     D
O217   S231    1.683   .     S
O218   S232    1.502   .     D
O219   S232    1.503   .     D
O220   Zn234   2.000   .     S
O221   S232    1.682   .     S
O222   Zn234   1.999   .     S
O223   Zn233   1.999   .     S
O224   Zn233   1.952   .     S
O225   Zn234   1.952   .     S
O226   Zn234   1.906   .     S
O227   Zn233   1.906   .     S
O228   S73     1.502   1_655 S
S230   O57     1.499   1_655 S
S230   O56     1.502   1_655 S
C235   O287    1.284   .     A
C235   O300    1.285   .     A
C235   C238    1.419   .     S
C236   C238    1.397   .     A
C236   H281    1.084   .     S
C236   C499    1.369   .     S
C237   C246    1.420   .     S
C237   C265    1.397   .     A
C237   C266    1.397   .     A
C238   C264    1.397   .     A
C239   N286    1.367   .     A
C239   H282    1.081   .     S
C239   C319    1.417   .     S
C240   N285    1.366   .     A
C240   H283    1.082   .     S
C240   C398    1.417   1_455 S
C241   N285    1.367   .     A
C241   H275    1.081   .     S
C241   C395    1.417   1_455 S
C242   H276    1.080   .     S
C242   N286    1.367   .     A
C242   C318    1.417   .     S
C243   O304    1.292   .     A
C243   C245    1.447   .     S
C243   O302    1.289   .     A
C244   O305    1.291   .     A
C244   C247    1.469   .     S
C244   O303    1.301   .     A
C245   C252    1.393   .     A
C245   C250    1.397   .     A
C246   O298    1.285   .     A
C246   O301    1.285   .     A
C247   C253    1.404   .     A
C247   C251    1.404   .     A
C248   H273    1.079   .     S
C248   C250    1.390   .     A
C248   C256    1.407   .     A
C249   C258    1.412   .     A
C249   C251    1.404   .     A
C249   H274    1.078   .     S
C250   H272    1.084   .     S
C251   H271    1.083   .     S
C252   S310    1.785   .     S
C252   C254    1.404   .     A
C253   C255    1.390   .     A
C253   S309    1.789   .     S
C254   C259    1.409   .     A
C254   C256    1.425   .     A
C255   C260    1.403   .     A
C255   C258    1.413   .     A
C256   C964    1.412   .     S
C257   C260    1.410   .     A
C257   H267    1.081   .     S
C257   C262    1.395   .     A
C258   C965    1.416   1_554 S
C259   C261    1.411   .     A
C259   C962    1.396   .     S
C260   C961    1.396   1_554 S
C261   C263    1.401   .     A
C261   H277    1.078   .     S
C262   S307    1.775   .     S
C262   C958    1.412   1_554 S
C263   S308    1.772   .     S
C263   C960    1.416   .     S
C264   H278    1.084   .     S
C264   C500    1.370   .     S
C265   H279    1.084   .     S
C266   H280    1.084   .     S
H268   O292    0.991   .     S
H269   O295    0.990   .     S
H270   O299    0.991   .     S
H284   O289    0.990   .     S
N285   Zn311   2.013   .     S
N286   Zn312   2.013   .     S
O287   Zn311   2.000   .     S
O288   S307    1.503   .     D
O289   S307    1.683   .     S
O290   S464    1.502   1_455 S
O291   S464    1.499   1_455 S
O292   S308    1.682   .     S
O293   S309    1.502   .     D
O294   S309    1.503   .     D
O295   S309    1.683   .     S
O296   S310    1.502   .     D
O297   S310    1.503   .     D
O298   Zn312   2.000   .     S
O299   S310    1.682   .     S
O300   Zn312   1.999   .     S
O301   Zn311   1.999   .     S
O302   Zn311   1.952   .     S
O303   Zn312   1.952   .     S
O304   Zn312   1.906   .     S
O305   Zn311   1.906   .     S
O306   S385    1.502   .     S
S307   O462    1.502   1_455 S
S308   O369    1.499   .     S
S308   O368    1.502   .     S
C313   O365    1.284   .     A
C313   O378    1.285   .     A
C313   C316    1.419   .     S
C314   C316    1.397   .     A
C314   H359    1.084   .     S
C314   C577    1.369   .     S
C315   C324    1.420   .     S
C315   C343    1.397   .     A
C315   C344    1.397   .     A
C316   C342    1.397   .     A
C317   N364    1.367   .     A
C317   H360    1.081   .     S
C317   C397    1.417   .     S
C318   N363    1.366   .     A
C318   H361    1.082   .     S
C319   N363    1.367   .     A
C319   H353    1.081   .     S
C320   H354    1.080   .     S
C320   N364    1.367   .     A
C320   C396    1.417   .     S
C321   O382    1.292   .     A
C321   C323    1.447   .     S
C321   O380    1.289   .     A
C322   O383    1.291   .     A
C322   C325    1.469   .     S
C322   O381    1.301   .     A
C323   C330    1.393   .     A
C323   C328    1.397   .     A
C324   O376    1.285   .     A
C324   O379    1.285   .     A
C325   C331    1.404   .     A
C325   C329    1.404   .     A
C326   H351    1.079   .     S
C326   C328    1.390   .     A
C326   C334    1.407   .     A
C327   C336    1.412   .     A
C327   C329    1.404   .     A
C327   H352    1.078   .     S
C328   H350    1.084   .     S
C329   H349    1.083   .     S
C330   S388    1.785   .     S
C330   C332    1.404   .     A
C331   C333    1.390   .     A
C331   S387    1.789   .     S
C332   C337    1.409   .     A
C332   C334    1.425   .     A
C333   C338    1.403   .     A
C333   C336    1.413   .     A
C334   C1042   1.412   .     S
C335   C338    1.410   .     A
C335   H345    1.081   .     S
C335   C340    1.395   .     A
C336   C1043   1.416   1_554 S
C337   C339    1.411   .     A
C337   C1040   1.396   .     S
C338   C1039   1.396   1_554 S
C339   C341    1.401   .     A
C339   H355    1.078   .     S
C340   S385    1.775   .     S
C340   C1036   1.412   1_554 S
C341   S386    1.772   .     S
C341   C1038   1.416   .     S
C342   H356    1.084   .     S
C342   C578    1.370   .     S
C343   H357    1.084   .     S
C344   H358    1.084   .     S
H346   O370    0.991   .     S
H347   O373    0.990   .     S
H348   O377    0.991   .     S
H362   O367    0.990   .     S
N363   Zn389   2.013   .     S
N364   Zn390   2.013   .     S
O365   Zn389   2.000   .     S
O366   S385    1.503   .     D
O367   S385    1.683   .     S
O370   S386    1.682   .     S
O371   S387    1.502   .     D
O372   S387    1.503   .     D
O373   S387    1.683   .     S
O374   S388    1.502   .     D
O375   S388    1.503   .     D
O376   Zn390   2.000   .     S
O377   S388    1.682   .     S
O378   Zn390   1.999   .     S
O379   Zn389   1.999   .     S
O380   Zn389   1.952   .     S
O381   Zn390   1.952   .     S
O382   Zn390   1.906   .     S
O383   Zn389   1.906   .     S
O384   S463    1.502   .     S
S386   O447    1.499   .     S
S386   O446    1.502   .     S
C391   O443    1.284   .     A
C391   O456    1.285   .     A
C391   C394    1.419   .     S
C392   C394    1.397   .     A
C392   H437    1.084   .     S
C392   C655    1.369   .     S
C393   C402    1.420   .     S
C393   C421    1.397   .     A
C393   C422    1.397   .     A
C394   C420    1.397   .     A
C395   N442    1.367   .     A
C395   H438    1.081   .     S
C395   C241    1.417   1_655 S
C396   N441    1.366   .     A
C396   H439    1.082   .     S
C397   N441    1.367   .     A
C397   H431    1.081   .     S
C398   H432    1.080   .     S
C398   N442    1.367   .     A
C398   C240    1.417   1_655 S
C399   O460    1.292   .     A
C399   C401    1.447   .     S
C399   O458    1.289   .     A
C400   O461    1.291   .     A
C400   C403    1.469   .     S
C400   O459    1.301   .     A
C401   C408    1.393   .     A
C401   C406    1.397   .     A
C402   O454    1.285   .     A
C402   O457    1.285   .     A
C403   C409    1.404   .     A
C403   C407    1.404   .     A
C404   H429    1.079   .     S
C404   C406    1.390   .     A
C404   C412    1.407   .     A
C405   C414    1.412   .     A
C405   C407    1.404   .     A
C405   H430    1.078   .     S
C406   H428    1.084   .     S
C407   H427    1.083   .     S
C408   S466    1.785   .     S
C408   C410    1.404   .     A
C409   C411    1.390   .     A
C409   S465    1.789   .     S
C410   C415    1.409   .     A
C410   C412    1.425   .     A
C411   C416    1.403   .     A
C411   C414    1.413   .     A
C412   C1120   1.412   .     S
C413   C416    1.410   .     A
C413   H423    1.081   .     S
C413   C418    1.395   .     A
C414   C1121   1.416   1_554 S
C415   C417    1.411   .     A
C415   C1118   1.396   .     S
C416   C1117   1.396   1_554 S
C417   C419    1.401   .     A
C417   H433    1.078   .     S
C418   S463    1.775   .     S
C418   C1114   1.412   1_554 S
C419   S464    1.772   .     S
C419   C1116   1.416   .     S
C420   H434    1.084   .     S
C420   C656    1.370   .     S
C421   H435    1.084   .     S
C422   H436    1.084   .     S
H424   O448    0.991   .     S
H425   O451    0.990   .     S
H426   O455    0.991   .     S
H440   O445    0.990   .     S
N441   Zn467   2.013   .     S
N442   Zn468   2.013   .     S
O443   Zn467   2.000   .     S
O444   S463    1.503   .     D
O445   S463    1.683   .     S
O448   S464    1.682   .     S
O449   S465    1.502   .     D
O450   S465    1.503   .     D
O451   S465    1.683   .     S
O452   S466    1.502   .     D
O453   S466    1.503   .     D
O454   Zn468   2.000   .     S
O455   S466    1.682   .     S
O456   Zn468   1.999   .     S
O457   Zn467   1.999   .     S
O458   Zn467   1.952   .     S
O459   Zn468   1.952   .     S
O460   Zn468   1.906   .     S
O461   Zn467   1.906   .     S
O462   S307    1.502   1_655 S
S464   O291    1.499   1_655 S
S464   O290    1.502   1_655 S
C469   O521    1.284   .     A
C469   O534    1.285   .     A
C469   C472    1.419   .     S
C470   C472    1.397   .     A
C470   H515    1.084   .     S
C470   C31     1.369   1_565 S
C471   C480    1.420   .     S
C471   C499    1.397   .     A
C471   C500    1.397   .     A
C472   C498    1.397   .     A
C473   N520    1.367   .     A
C473   H516    1.081   .     S
C473   C553    1.417   .     S
C474   N519    1.366   .     A
C474   H517    1.082   .     S
C474   C632    1.417   1_455 S
C475   N519    1.367   .     A
C475   H509    1.081   .     S
C475   C629    1.417   1_455 S
C476   H510    1.080   .     S
C476   N520    1.367   .     A
C476   C552    1.417   .     S
C477   O538    1.292   .     A
C477   C479    1.447   .     S
C477   O536    1.289   .     A
C478   O539    1.291   .     A
C478   C481    1.469   .     S
C478   O537    1.301   .     A
C479   C486    1.393   .     A
C479   C484    1.397   .     A
C480   O532    1.285   .     A
C480   O535    1.285   .     A
C481   C487    1.404   .     A
C481   C485    1.404   .     A
C482   H507    1.079   .     S
C482   C484    1.390   .     A
C482   C490    1.407   .     A
C483   C492    1.412   .     A
C483   C485    1.404   .     A
C483   H508    1.078   .     S
C484   H506    1.084   .     S
C485   H505    1.083   .     S
C486   S544    1.785   .     S
C486   C488    1.404   .     A
C487   C489    1.390   .     A
C487   S543    1.789   .     S
C488   C493    1.409   .     A
C488   C490    1.425   .     A
C489   C494    1.403   .     A
C489   C492    1.413   .     A
C490   C1198   1.412   .     S
C491   C494    1.410   .     A
C491   H501    1.081   .     S
C491   C496    1.395   .     A
C492   C1199   1.416   1_554 S
C493   C495    1.411   .     A
C493   C1196   1.396   .     S
C494   C1195   1.396   1_554 S
C495   C497    1.401   .     A
C495   H511    1.078   .     S
C496   S541    1.775   .     S
C496   C1192   1.412   1_554 S
C497   S542    1.772   .     S
C497   C1194   1.416   .     S
C498   H512    1.084   .     S
C498   C32     1.370   1_565 S
C499   H513    1.084   .     S
C500   H514    1.084   .     S
H502   O526    0.991   .     S
H503   O529    0.990   .     S
H504   O533    0.991   .     S
H518   O523    0.990   .     S
N519   Zn545   2.013   .     S
N520   Zn546   2.013   .     S
O521   Zn545   2.000   .     S
O522   S541    1.503   .     D
O523   S541    1.683   .     S
O524   S698    1.502   1_455 S
O525   S698    1.499   1_455 S
O526   S542    1.682   .     S
O527   S543    1.502   .     D
O528   S543    1.503   .     D
O529   S543    1.683   .     S
O530   S544    1.502   .     D
O531   S544    1.503   .     D
O532   Zn546   2.000   .     S
O533   S544    1.682   .     S
O534   Zn546   1.999   .     S
O535   Zn545   1.999   .     S
O536   Zn545   1.952   .     S
O537   Zn546   1.952   .     S
O538   Zn546   1.906   .     S
O539   Zn545   1.906   .     S
O540   S619    1.502   .     S
S541   O696    1.502   1_455 S
S542   O603    1.499   .     S
S542   O602    1.502   .     S
C547   O599    1.284   .     A
C547   O612    1.285   .     A
C547   C550    1.419   .     S
C548   C550    1.397   .     A
C548   H593    1.084   .     S
C548   C109    1.369   1_565 S
C549   C558    1.420   .     S
C549   C577    1.397   .     A
C549   C578    1.397   .     A
C550   C576    1.397   .     A
C551   N598    1.367   .     A
C551   H594    1.081   .     S
C551   C631    1.417   .     S
C552   N597    1.366   .     A
C552   H595    1.082   .     S
C553   N597    1.367   .     A
C553   H587    1.081   .     S
C554   H588    1.080   .     S
C554   N598    1.367   .     A
C554   C630    1.417   .     S
C555   O616    1.292   .     A
C555   C557    1.447   .     S
C555   O614    1.289   .     A
C556   O617    1.291   .     A
C556   C559    1.469   .     S
C556   O615    1.301   .     A
C557   C564    1.393   .     A
C557   C562    1.397   .     A
C558   O610    1.285   .     A
C558   O613    1.285   .     A
C559   C565    1.404   .     A
C559   C563    1.404   .     A
C560   H585    1.079   .     S
C560   C562    1.390   .     A
C560   C568    1.407   .     A
C561   C570    1.412   .     A
C561   C563    1.404   .     A
C561   H586    1.078   .     S
C562   H584    1.084   .     S
C563   H583    1.083   .     S
C564   S622    1.785   .     S
C564   C566    1.404   .     A
C565   C567    1.390   .     A
C565   S621    1.789   .     S
C566   C571    1.409   .     A
C566   C568    1.425   .     A
C567   C572    1.403   .     A
C567   C570    1.413   .     A
C568   C1276   1.412   .     S
C569   C572    1.410   .     A
C569   H579    1.081   .     S
C569   C574    1.395   .     A
C570   C1277   1.416   1_554 S
C571   C573    1.411   .     A
C571   C1274   1.396   .     S
C572   C1273   1.396   1_554 S
C573   C575    1.401   .     A
C573   H589    1.078   .     S
C574   S619    1.775   .     S
C574   C1270   1.412   1_554 S
C575   S620    1.772   .     S
C575   C1272   1.416   .     S
C576   H590    1.084   .     S
C576   C110    1.370   1_565 S
C577   H591    1.084   .     S
C578   H592    1.084   .     S
H580   O604    0.991   .     S
H581   O607    0.990   .     S
H582   O611    0.991   .     S
H596   O601    0.990   .     S
N597   Zn623   2.013   .     S
N598   Zn624   2.013   .     S
O599   Zn623   2.000   .     S
O600   S619    1.503   .     D
O601   S619    1.683   .     S
O604   S620    1.682   .     S
O605   S621    1.502   .     D
O606   S621    1.503   .     D
O607   S621    1.683   .     S
O608   S622    1.502   .     D
O609   S622    1.503   .     D
O610   Zn624   2.000   .     S
O611   S622    1.682   .     S
O612   Zn624   1.999   .     S
O613   Zn623   1.999   .     S
O614   Zn623   1.952   .     S
O615   Zn624   1.952   .     S
O616   Zn624   1.906   .     S
O617   Zn623   1.906   .     S
O618   S697    1.502   .     S
S620   O681    1.499   .     S
S620   O680    1.502   .     S
C625   O677    1.284   .     A
C625   O690    1.285   .     A
C625   C628    1.419   .     S
C626   C628    1.397   .     A
C626   H671    1.084   .     S
C626   C187    1.369   1_565 S
C627   C636    1.420   .     S
C627   C655    1.397   .     A
C627   C656    1.397   .     A
C628   C654    1.397   .     A
C629   N676    1.367   .     A
C629   H672    1.081   .     S
C629   C475    1.417   1_655 S
C630   N675    1.366   .     A
C630   H673    1.082   .     S
C631   N675    1.367   .     A
C631   H665    1.081   .     S
C632   H666    1.080   .     S
C632   N676    1.367   .     A
C632   C474    1.417   1_655 S
C633   O694    1.292   .     A
C633   C635    1.447   .     S
C633   O692    1.289   .     A
C634   O695    1.291   .     A
C634   C637    1.469   .     S
C634   O693    1.301   .     A
C635   C642    1.393   .     A
C635   C640    1.397   .     A
C636   O688    1.285   .     A
C636   O691    1.285   .     A
C637   C643    1.404   .     A
C637   C641    1.404   .     A
C638   H663    1.079   .     S
C638   C640    1.390   .     A
C638   C646    1.407   .     A
C639   C648    1.412   .     A
C639   C641    1.404   .     A
C639   H664    1.078   .     S
C640   H662    1.084   .     S
C641   H661    1.083   .     S
C642   S700    1.785   .     S
C642   C644    1.404   .     A
C643   C645    1.390   .     A
C643   S699    1.789   .     S
C644   C649    1.409   .     A
C644   C646    1.425   .     A
C645   C650    1.403   .     A
C645   C648    1.413   .     A
C646   C1354   1.412   .     S
C647   C650    1.410   .     A
C647   H657    1.081   .     S
C647   C652    1.395   .     A
C648   C1355   1.416   1_554 S
C649   C651    1.411   .     A
C649   C1352   1.396   .     S
C650   C1351   1.396   1_554 S
C651   C653    1.401   .     A
C651   H667    1.078   .     S
C652   S697    1.775   .     S
C652   C1348   1.412   1_554 S
C653   S698    1.772   .     S
C653   C1350   1.416   .     S
C654   H668    1.084   .     S
C654   C188    1.370   1_565 S
C655   H669    1.084   .     S
C656   H670    1.084   .     S
H658   O682    0.991   .     S
H659   O685    0.990   .     S
H660   O689    0.991   .     S
H674   O679    0.990   .     S
N675   Zn701   2.013   .     S
N676   Zn702   2.013   .     S
O677   Zn701   2.000   .     S
O678   S697    1.503   .     D
O679   S697    1.683   .     S
O682   S698    1.682   .     S
O683   S699    1.502   .     D
O684   S699    1.503   .     D
O685   S699    1.683   .     S
O686   S700    1.502   .     D
O687   S700    1.503   .     D
O688   Zn702   2.000   .     S
O689   S700    1.682   .     S
O690   Zn702   1.999   .     S
O691   Zn701   1.999   .     S
O692   Zn701   1.952   .     S
O693   Zn702   1.952   .     S
O694   Zn702   1.906   .     S
O695   Zn701   1.906   .     S
O696   S541    1.502   1_655 S
S698   O525    1.499   1_655 S
S698   O524    1.502   1_655 S
C703   O755    1.284   .     A
C703   O768    1.285   .     A
C703   C706    1.419   .     S
C704   C706    1.397   .     A
C704   H749    1.084   .     S
C704   C967    1.369   .     S
C705   C714    1.420   .     S
C705   C733    1.397   .     A
C705   C734    1.397   .     A
C706   C732    1.397   .     A
C707   N754    1.367   .     A
C707   H750    1.081   .     S
C707   C787    1.417   .     S
C708   N753    1.366   .     A
C708   H751    1.082   .     S
C708   C866    1.417   1_455 S
C709   N753    1.367   .     A
C709   H743    1.081   .     S
C709   C863    1.417   1_455 S
C710   H744    1.080   .     S
C710   N754    1.367   .     A
C710   C786    1.417   .     S
C711   O772    1.292   .     A
C711   C713    1.447   .     S
C711   O770    1.289   .     A
C712   O773    1.291   .     A
C712   C715    1.469   .     S
C712   O771    1.301   .     A
C713   C720    1.393   .     A
C713   C718    1.397   .     A
C714   O766    1.285   .     A
C714   O769    1.285   .     A
C715   C721    1.404   .     A
C715   C719    1.404   .     A
C716   H741    1.079   .     S
C716   C718    1.390   .     A
C716   C724    1.407   .     A
C717   C726    1.412   .     A
C717   C719    1.404   .     A
C717   H742    1.078   .     S
C718   H740    1.084   .     S
C719   H739    1.083   .     S
C720   S778    1.785   .     S
C720   C722    1.404   .     A
C721   C723    1.390   .     A
C721   S777    1.789   .     S
C722   C727    1.409   .     A
C722   C724    1.425   .     A
C723   C728    1.403   .     A
C723   C726    1.413   .     A
C724   C28     1.412   1_556 S
C725   C728    1.410   .     A
C725   H735    1.081   .     S
C725   C730    1.395   .     A
C727   C729    1.411   .     A
C727   C26     1.396   1_556 S
C729   C731    1.401   .     A
C729   H745    1.078   .     S
C730   S775    1.775   .     S
C731   S776    1.772   .     S
C731   C24     1.416   1_556 S
C732   H746    1.084   .     S
C732   C968    1.370   .     S
C733   H747    1.084   .     S
C733   C1172   1.369   1_545 S
C734   H748    1.084   .     S
C734   C1200   1.370   1_545 S
H736   O760    0.991   .     S
H737   O763    0.990   .     S
H738   O767    0.991   .     S
H752   O757    0.990   .     S
N753   Zn779   2.013   .     S
N754   Zn780   2.013   .     S
O755   Zn779   2.000   .     S
O756   S775    1.503   .     D
O757   S775    1.683   .     S
O758   S932    1.502   1_455 S
O759   S932    1.499   1_455 S
O760   S776    1.682   .     S
O761   S777    1.502   .     D
O762   S777    1.503   .     D
O763   S777    1.683   .     S
O764   S778    1.502   .     D
O765   S778    1.503   .     D
O766   Zn780   2.000   .     S
O767   S778    1.682   .     S
O768   Zn780   1.999   .     S
O769   Zn779   1.999   .     S
O770   Zn779   1.952   .     S
O771   Zn780   1.952   .     S
O772   Zn780   1.906   .     S
O773   Zn779   1.906   .     S
O774   S853    1.502   .     S
S775   O930    1.502   1_455 S
S776   O837    1.499   .     S
S776   O836    1.502   .     S
C781   O833    1.284   .     A
C781   O846    1.285   .     A
C781   C784    1.419   .     S
C782   C784    1.397   .     A
C782   H827    1.084   .     S
C782   C1045   1.369   .     S
C783   C792    1.420   .     S
C783   C811    1.397   .     A
C783   C812    1.397   .     A
C784   C810    1.397   .     A
C785   N832    1.367   .     A
C785   H828    1.081   .     S
C785   C865    1.417   .     S
C786   N831    1.366   .     A
C786   H829    1.082   .     S
C787   N831    1.367   .     A
C787   H821    1.081   .     S
C788   H822    1.080   .     S
C788   N832    1.367   .     A
C788   C864    1.417   .     S
C789   O850    1.292   .     A
C789   C791    1.447   .     S
C789   O848    1.289   .     A
C790   O851    1.291   .     A
C790   C793    1.469   .     S
C790   O849    1.301   .     A
C791   C798    1.393   .     A
C791   C796    1.397   .     A
C792   O844    1.285   .     A
C792   O847    1.285   .     A
C793   C799    1.404   .     A
C793   C797    1.404   .     A
C794   H819    1.079   .     S
C794   C796    1.390   .     A
C794   C802    1.407   .     A
C795   C804    1.412   .     A
C795   C797    1.404   .     A
C795   H820    1.078   .     S
C796   H818    1.084   .     S
C797   H817    1.083   .     S
C798   S856    1.785   .     S
C798   C800    1.404   .     A
C799   C801    1.390   .     A
C799   S855    1.789   .     S
C800   C805    1.409   .     A
C800   C802    1.425   .     A
C801   C806    1.403   .     A
C801   C804    1.413   .     A
C802   C106    1.412   1_556 S
C803   C806    1.410   .     A
C803   H813    1.081   .     S
C803   C808    1.395   .     A
C805   C807    1.411   .     A
C805   C104    1.396   1_556 S
C807   C809    1.401   .     A
C807   H823    1.078   .     S
C808   S853    1.775   .     S
C809   S854    1.772   .     S
C809   C102    1.416   1_556 S
C810   H824    1.084   .     S
C810   C1046   1.370   .     S
C811   H825    1.084   .     S
C811   C1250   1.369   1_545 S
C812   H826    1.084   .     S
C812   C1278   1.370   1_545 S
H814   O838    0.991   .     S
H815   O841    0.990   .     S
H816   O845    0.991   .     S
H830   O835    0.990   .     S
N831   Zn857   2.013   .     S
N832   Zn858   2.013   .     S
O833   Zn857   2.000   .     S
O834   S853    1.503   .     D
O835   S853    1.683   .     S
O838   S854    1.682   .     S
O839   S855    1.502   .     D
O840   S855    1.503   .     D
O841   S855    1.683   .     S
O842   S856    1.502   .     D
O843   S856    1.503   .     D
O844   Zn858   2.000   .     S
O845   S856    1.682   .     S
O846   Zn858   1.999   .     S
O847   Zn857   1.999   .     S
O848   Zn857   1.952   .     S
O849   Zn858   1.952   .     S
O850   Zn858   1.906   .     S
O851   Zn857   1.906   .     S
O852   S931    1.502   .     S
S854   O915    1.499   .     S
S854   O914    1.502   .     S
C859   O911    1.284   .     A
C859   O924    1.285   .     A
C859   C862    1.419   .     S
C860   C862    1.397   .     A
C860   H905    1.084   .     S
C860   C1123   1.369   .     S
C861   C870    1.420   .     S
C861   C889    1.397   .     A
C861   C890    1.397   .     A
C862   C888    1.397   .     A
C863   N910    1.367   .     A
C863   H906    1.081   .     S
C863   C709    1.417   1_655 S
C864   N909    1.366   .     A
C864   H907    1.082   .     S
C865   N909    1.367   .     A
C865   H899    1.081   .     S
C866   H900    1.080   .     S
C866   N910    1.367   .     A
C866   C708    1.417   1_655 S
C867   O928    1.292   .     A
C867   C869    1.447   .     S
C867   O926    1.289   .     A
C868   O929    1.291   .     A
C868   C871    1.469   .     S
C868   O927    1.301   .     A
C869   C876    1.393   .     A
C869   C874    1.397   .     A
C870   O922    1.285   .     A
C870   O925    1.285   .     A
C871   C877    1.404   .     A
C871   C875    1.404   .     A
C872   H897    1.079   .     S
C872   C874    1.390   .     A
C872   C880    1.407   .     A
C873   C882    1.412   .     A
C873   C875    1.404   .     A
C873   H898    1.078   .     S
C874   H896    1.084   .     S
C875   H895    1.083   .     S
C876   S934    1.785   .     S
C876   C878    1.404   .     A
C877   C879    1.390   .     A
C877   S933    1.789   .     S
C878   C883    1.409   .     A
C878   C880    1.425   .     A
C879   C884    1.403   .     A
C879   C882    1.413   .     A
C880   C184    1.412   1_556 S
C881   C884    1.410   .     A
C881   H891    1.081   .     S
C881   C886    1.395   .     A
C883   C885    1.411   .     A
C883   C182    1.396   1_556 S
C885   C887    1.401   .     A
C885   H901    1.078   .     S
C886   S931    1.775   .     S
C887   S932    1.772   .     S
C887   C180    1.416   1_556 S
C888   H902    1.084   .     S
C888   C1124   1.370   .     S
C889   H903    1.084   .     S
C889   C1328   1.369   1_545 S
C890   H904    1.084   .     S
C890   C1356   1.370   1_545 S
H892   O916    0.991   .     S
H893   O919    0.990   .     S
H894   O923    0.991   .     S
H908   O913    0.990   .     S
N909   Zn935   2.013   .     S
N910   Zn936   2.013   .     S
O911   Zn935   2.000   .     S
O912   S931    1.503   .     D
O913   S931    1.683   .     S
O916   S932    1.682   .     S
O917   S933    1.502   .     D
O918   S933    1.503   .     D
O919   S933    1.683   .     S
O920   S934    1.502   .     D
O921   S934    1.503   .     D
O922   Zn936   2.000   .     S
O923   S934    1.682   .     S
O924   Zn936   1.999   .     S
O925   Zn935   1.999   .     S
O926   Zn935   1.952   .     S
O927   Zn936   1.952   .     S
O928   Zn936   1.906   .     S
O929   Zn935   1.906   .     S
O930   S775    1.502   1_655 S
S932   O759    1.499   1_655 S
S932   O758    1.502   1_655 S
C937   O989    1.284   .     A
C937   O1002   1.285   .     A
C937   C940    1.419   .     S
C938   C940    1.397   .     A
C938   H983    1.084   .     S
C938   C1201   1.369   .     S
C939   C948    1.420   .     S
C939   C967    1.397   .     A
C939   C968    1.397   .     A
C940   C966    1.397   .     A
C941   N988    1.367   .     A
C941   H984    1.081   .     S
C941   C1021   1.417   .     S
C942   N987    1.366   .     A
C942   H985    1.082   .     S
C942   C1100   1.417   1_455 S
C943   N987    1.367   .     A
C943   H977    1.081   .     S
C943   C1097   1.417   1_455 S
C944   H978    1.080   .     S
C944   N988    1.367   .     A
C944   C1020   1.417   .     S
C945   O1006   1.292   .     A
C945   C947    1.447   .     S
C945   O1004   1.289   .     A
C946   O1007   1.291   .     A
C946   C949    1.469   .     S
C946   O1005   1.301   .     A
C947   C954    1.393   .     A
C947   C952    1.397   .     A
C948   O1000   1.285   .     A
C948   O1003   1.285   .     A
C949   C955    1.404   .     A
C949   C953    1.404   .     A
C950   H975    1.079   .     S
C950   C952    1.390   .     A
C950   C958    1.407   .     A
C951   C960    1.412   .     A
C951   C953    1.404   .     A
C951   H976    1.078   .     S
C952   H974    1.084   .     S
C953   H973    1.083   .     S
C954   S1012   1.785   .     S
C954   C956    1.404   .     A
C955   C957    1.390   .     A
C955   S1011   1.789   .     S
C956   C961    1.409   .     A
C956   C958    1.425   .     A
C957   C962    1.403   .     A
C957   C960    1.413   .     A
C958   C262    1.412   1_556 S
C959   C962    1.410   .     A
C959   H969    1.081   .     S
C959   C964    1.395   .     A
C961   C963    1.411   .     A
C961   C260    1.396   1_556 S
C963   C965    1.401   .     A
C963   H979    1.078   .     S
C964   S1009   1.775   .     S
C965   S1010   1.772   .     S
C965   C258    1.416   1_556 S
C966   H980    1.084   .     S
C966   C1202   1.370   .     S
C967   H981    1.084   .     S
C968   H982    1.084   .     S
H970   O994    0.991   .     S
H971   O997    0.990   .     S
H972   O1001   0.991   .     S
H986   O991    0.990   .     S
N987   Zn1013  2.013   .     S
N988   Zn1014  2.013   .     S
O989   Zn1013  2.000   .     S
O990   S1009   1.503   .     D
O991   S1009   1.683   .     S
O992   S1166   1.502   1_455 S
O993   S1166   1.499   1_455 S
O994   S1010   1.682   .     S
O995   S1011   1.502   .     D
O996   S1011   1.503   .     D
O997   S1011   1.683   .     S
O998   S1012   1.502   .     D
O999   S1012   1.503   .     D
O1000  Zn1014  2.000   .     S
O1001  S1012   1.682   .     S
O1002  Zn1014  1.999   .     S
O1003  Zn1013  1.999   .     S
O1004  Zn1013  1.952   .     S
O1005  Zn1014  1.952   .     S
O1006  Zn1014  1.906   .     S
O1007  Zn1013  1.906   .     S
O1008  S1087   1.502   .     S
S1009  O1164   1.502   1_455 S
S1010  O1071   1.499   .     S
S1010  O1070   1.502   .     S
C1015  O1067   1.284   .     A
C1015  O1080   1.285   .     A
C1015  C1018   1.419   .     S
C1016  C1018   1.397   .     A
C1016  H1061   1.084   .     S
C1016  C1279   1.369   .     S
C1017  C1026   1.420   .     S
C1017  C1045   1.397   .     A
C1017  C1046   1.397   .     A
C1018  C1044   1.397   .     A
C1019  N1066   1.367   .     A
C1019  H1062   1.081   .     S
C1019  C1099   1.417   .     S
C1020  N1065   1.366   .     A
C1020  H1063   1.082   .     S
C1021  N1065   1.367   .     A
C1021  H1055   1.081   .     S
C1022  H1056   1.080   .     S
C1022  N1066   1.367   .     A
C1022  C1098   1.417   .     S
C1023  O1084   1.292   .     A
C1023  C1025   1.447   .     S
C1023  O1082   1.289   .     A
C1024  O1085   1.291   .     A
C1024  C1027   1.469   .     S
C1024  O1083   1.301   .     A
C1025  C1032   1.393   .     A
C1025  C1030   1.397   .     A
C1026  O1078   1.285   .     A
C1026  O1081   1.285   .     A
C1027  C1033   1.404   .     A
C1027  C1031   1.404   .     A
C1028  H1053   1.079   .     S
C1028  C1030   1.390   .     A
C1028  C1036   1.407   .     A
C1029  C1038   1.412   .     A
C1029  C1031   1.404   .     A
C1029  H1054   1.078   .     S
C1030  H1052   1.084   .     S
C1031  H1051   1.083   .     S
C1032  S1090   1.785   .     S
C1032  C1034   1.404   .     A
C1033  C1035   1.390   .     A
C1033  S1089   1.789   .     S
C1034  C1039   1.409   .     A
C1034  C1036   1.425   .     A
C1035  C1040   1.403   .     A
C1035  C1038   1.413   .     A
C1036  C340    1.412   1_556 S
C1037  C1040   1.410   .     A
C1037  H1047   1.081   .     S
C1037  C1042   1.395   .     A
C1039  C1041   1.411   .     A
C1039  C338    1.396   1_556 S
C1041  C1043   1.401   .     A
C1041  H1057   1.078   .     S
C1042  S1087   1.775   .     S
C1043  S1088   1.772   .     S
C1043  C336    1.416   1_556 S
C1044  H1058   1.084   .     S
C1044  C1280   1.370   .     S
C1045  H1059   1.084   .     S
C1046  H1060   1.084   .     S
H1048  O1072   0.991   .     S
H1049  O1075   0.990   .     S
H1050  O1079   0.991   .     S
H1064  O1069   0.990   .     S
N1065  Zn1091  2.013   .     S
N1066  Zn1092  2.013   .     S
O1067  Zn1091  2.000   .     S
O1068  S1087   1.503   .     D
O1069  S1087   1.683   .     S
O1072  S1088   1.682   .     S
O1073  S1089   1.502   .     D
O1074  S1089   1.503   .     D
O1075  S1089   1.683   .     S
O1076  S1090   1.502   .     D
O1077  S1090   1.503   .     D
O1078  Zn1092  2.000   .     S
O1079  S1090   1.682   .     S
O1080  Zn1092  1.999   .     S
O1081  Zn1091  1.999   .     S
O1082  Zn1091  1.952   .     S
O1083  Zn1092  1.952   .     S
O1084  Zn1092  1.906   .     S
O1085  Zn1091  1.906   .     S
O1086  S1165   1.502   .     S
S1088  O1149   1.499   .     S
S1088  O1148   1.502   .     S
C1093  O1145   1.284   .     A
C1093  O1158   1.285   .     A
C1093  C1096   1.419   .     S
C1094  C1096   1.397   .     A
C1094  H1139   1.084   .     S
C1094  C1357   1.369   .     S
C1095  C1104   1.420   .     S
C1095  C1123   1.397   .     A
C1095  C1124   1.397   .     A
C1096  C1122   1.397   .     A
C1097  N1144   1.367   .     A
C1097  H1140   1.081   .     S
C1097  C943    1.417   1_655 S
C1098  N1143   1.366   .     A
C1098  H1141   1.082   .     S
C1099  N1143   1.367   .     A
C1099  H1133   1.081   .     S
C1100  H1134   1.080   .     S
C1100  N1144   1.367   .     A
C1100  C942    1.417   1_655 S
C1101  O1162   1.292   .     A
C1101  C1103   1.447   .     S
C1101  O1160   1.289   .     A
C1102  O1163   1.291   .     A
C1102  C1105   1.469   .     S
C1102  O1161   1.301   .     A
C1103  C1110   1.393   .     A
C1103  C1108   1.397   .     A
C1104  O1156   1.285   .     A
C1104  O1159   1.285   .     A
C1105  C1111   1.404   .     A
C1105  C1109   1.404   .     A
C1106  H1131   1.079   .     S
C1106  C1108   1.390   .     A
C1106  C1114   1.407   .     A
C1107  C1116   1.412   .     A
C1107  C1109   1.404   .     A
C1107  H1132   1.078   .     S
C1108  H1130   1.084   .     S
C1109  H1129   1.083   .     S
C1110  S1168   1.785   .     S
C1110  C1112   1.404   .     A
C1111  C1113   1.390   .     A
C1111  S1167   1.789   .     S
C1112  C1117   1.409   .     A
C1112  C1114   1.425   .     A
C1113  C1118   1.403   .     A
C1113  C1116   1.413   .     A
C1114  C418    1.412   1_556 S
C1115  C1118   1.410   .     A
C1115  H1125   1.081   .     S
C1115  C1120   1.395   .     A
C1117  C1119   1.411   .     A
C1117  C416    1.396   1_556 S
C1119  C1121   1.401   .     A
C1119  H1135   1.078   .     S
C1120  S1165   1.775   .     S
C1121  S1166   1.772   .     S
C1121  C414    1.416   1_556 S
C1122  H1136   1.084   .     S
C1122  C1358   1.370   .     S
C1123  H1137   1.084   .     S
C1124  H1138   1.084   .     S
H1126  O1150   0.991   .     S
H1127  O1153   0.990   .     S
H1128  O1157   0.991   .     S
H1142  O1147   0.990   .     S
N1143  Zn1169  2.013   .     S
N1144  Zn1170  2.013   .     S
O1145  Zn1169  2.000   .     S
O1146  S1165   1.503   .     D
O1147  S1165   1.683   .     S
O1150  S1166   1.682   .     S
O1151  S1167   1.502   .     D
O1152  S1167   1.503   .     D
O1153  S1167   1.683   .     S
O1154  S1168   1.502   .     D
O1155  S1168   1.503   .     D
O1156  Zn1170  2.000   .     S
O1157  S1168   1.682   .     S
O1158  Zn1170  1.999   .     S
O1159  Zn1169  1.999   .     S
O1160  Zn1169  1.952   .     S
O1161  Zn1170  1.952   .     S
O1162  Zn1170  1.906   .     S
O1163  Zn1169  1.906   .     S
O1164  S1009   1.502   1_655 S
S1166  O993    1.499   1_655 S
S1166  O992    1.502   1_655 S
C1171  O1223   1.284   .     A
C1171  O1236   1.285   .     A
C1171  C1174   1.419   .     S
C1172  C1174   1.397   .     A
C1172  H1217   1.084   .     S
C1172  C733    1.369   1_565 S
C1173  C1182   1.420   .     S
C1173  C1201   1.397   .     A
C1173  C1202   1.397   .     A
C1174  C1200   1.397   .     A
C1175  N1222   1.367   .     A
C1175  H1218   1.081   .     S
C1175  C1255   1.417   .     S
C1176  N1221   1.366   .     A
C1176  H1219   1.082   .     S
C1176  C1334   1.417   1_455 S
C1177  N1221   1.367   .     A
C1177  H1211   1.081   .     S
C1177  C1331   1.417   1_455 S
C1178  H1212   1.080   .     S
C1178  N1222   1.367   .     A
C1178  C1254   1.417   .     S
C1179  O1240   1.292   .     A
C1179  C1181   1.447   .     S
C1179  O1238   1.289   .     A
C1180  O1241   1.291   .     A
C1180  C1183   1.469   .     S
C1180  O1239   1.301   .     A
C1181  C1188   1.393   .     A
C1181  C1186   1.397   .     A
C1182  O1234   1.285   .     A
C1182  O1237   1.285   .     A
C1183  C1189   1.404   .     A
C1183  C1187   1.404   .     A
C1184  H1209   1.079   .     S
C1184  C1186   1.390   .     A
C1184  C1192   1.407   .     A
C1185  C1194   1.412   .     A
C1185  C1187   1.404   .     A
C1185  H1210   1.078   .     S
C1186  H1208   1.084   .     S
C1187  H1207   1.083   .     S
C1188  S1246   1.785   .     S
C1188  C1190   1.404   .     A
C1189  C1191   1.390   .     A
C1189  S1245   1.789   .     S
C1190  C1195   1.409   .     A
C1190  C1192   1.425   .     A
C1191  C1196   1.403   .     A
C1191  C1194   1.413   .     A
C1192  C496    1.412   1_556 S
C1193  C1196   1.410   .     A
C1193  H1203   1.081   .     S
C1193  C1198   1.395   .     A
C1195  C1197   1.411   .     A
C1195  C494    1.396   1_556 S
C1197  C1199   1.401   .     A
C1197  H1213   1.078   .     S
C1198  S1243   1.775   .     S
C1199  S1244   1.772   .     S
C1199  C492    1.416   1_556 S
C1200  H1214   1.084   .     S
C1200  C734    1.370   1_565 S
C1201  H1215   1.084   .     S
C1202  H1216   1.084   .     S
H1204  O1228   0.991   .     S
H1205  O1231   0.990   .     S
H1206  O1235   0.991   .     S
H1220  O1225   0.990   .     S
N1221  Zn1247  2.013   .     S
N1222  Zn1248  2.013   .     S
O1223  Zn1247  2.000   .     S
O1224  S1243   1.503   .     D
O1225  S1243   1.683   .     S
O1226  S1400   1.502   1_455 S
O1227  S1400   1.499   1_455 S
O1228  S1244   1.682   .     S
O1229  S1245   1.502   .     D
O1230  S1245   1.503   .     D
O1231  S1245   1.683   .     S
O1232  S1246   1.502   .     D
O1233  S1246   1.503   .     D
O1234  Zn1248  2.000   .     S
O1235  S1246   1.682   .     S
O1236  Zn1248  1.999   .     S
O1237  Zn1247  1.999   .     S
O1238  Zn1247  1.952   .     S
O1239  Zn1248  1.952   .     S
O1240  Zn1248  1.906   .     S
O1241  Zn1247  1.906   .     S
O1242  S1321   1.502   .     S
S1243  O1398   1.502   1_455 S
S1244  O1305   1.499   .     S
S1244  O1304   1.502   .     S
C1249  O1301   1.284   .     A
C1249  O1314   1.285   .     A
C1249  C1252   1.419   .     S
C1250  C1252   1.397   .     A
C1250  H1295   1.084   .     S
C1250  C811    1.369   1_565 S
C1251  C1260   1.420   .     S
C1251  C1279   1.397   .     A
C1251  C1280   1.397   .     A
C1252  C1278   1.397   .     A
C1253  N1300   1.367   .     A
C1253  H1296   1.081   .     S
C1253  C1333   1.417   .     S
C1254  N1299   1.366   .     A
C1254  H1297   1.082   .     S
C1255  N1299   1.367   .     A
C1255  H1289   1.081   .     S
C1256  H1290   1.080   .     S
C1256  N1300   1.367   .     A
C1256  C1332   1.417   .     S
C1257  O1318   1.292   .     A
C1257  C1259   1.447   .     S
C1257  O1316   1.289   .     A
C1258  O1319   1.291   .     A
C1258  C1261   1.469   .     S
C1258  O1317   1.301   .     A
C1259  C1266   1.393   .     A
C1259  C1264   1.397   .     A
C1260  O1312   1.285   .     A
C1260  O1315   1.285   .     A
C1261  C1267   1.404   .     A
C1261  C1265   1.404   .     A
C1262  H1287   1.079   .     S
C1262  C1264   1.390   .     A
C1262  C1270   1.407   .     A
C1263  C1272   1.412   .     A
C1263  C1265   1.404   .     A
C1263  H1288   1.078   .     S
C1264  H1286   1.084   .     S
C1265  H1285   1.083   .     S
C1266  S1324   1.785   .     S
C1266  C1268   1.404   .     A
C1267  C1269   1.390   .     A
C1267  S1323   1.789   .     S
C1268  C1273   1.409   .     A
C1268  C1270   1.425   .     A
C1269  C1274   1.403   .     A
C1269  C1272   1.413   .     A
C1270  C574    1.412   1_556 S
C1271  C1274   1.410   .     A
C1271  H1281   1.081   .     S
C1271  C1276   1.395   .     A
C1273  C1275   1.411   .     A
C1273  C572    1.396   1_556 S
C1275  C1277   1.401   .     A
C1275  H1291   1.078   .     S
C1276  S1321   1.775   .     S
C1277  S1322   1.772   .     S
C1277  C570    1.416   1_556 S
C1278  H1292   1.084   .     S
C1278  C812    1.370   1_565 S
C1279  H1293   1.084   .     S
C1280  H1294   1.084   .     S
H1282  O1306   0.991   .     S
H1283  O1309   0.990   .     S
H1284  O1313   0.991   .     S
H1298  O1303   0.990   .     S
N1299  Zn1325  2.013   .     S
N1300  Zn1326  2.013   .     S
O1301  Zn1325  2.000   .     S
O1302  S1321   1.503   .     D
O1303  S1321   1.683   .     S
O1306  S1322   1.682   .     S
O1307  S1323   1.502   .     D
O1308  S1323   1.503   .     D
O1309  S1323   1.683   .     S
O1310  S1324   1.502   .     D
O1311  S1324   1.503   .     D
O1312  Zn1326  2.000   .     S
O1313  S1324   1.682   .     S
O1314  Zn1326  1.999   .     S
O1315  Zn1325  1.999   .     S
O1316  Zn1325  1.952   .     S
O1317  Zn1326  1.952   .     S
O1318  Zn1326  1.906   .     S
O1319  Zn1325  1.906   .     S
O1320  S1399   1.502   .     S
S1322  O1383   1.499   .     S
S1322  O1382   1.502   .     S
C1327  O1379   1.284   .     A
C1327  O1392   1.285   .     A
C1327  C1330   1.419   .     S
C1328  C1330   1.397   .     A
C1328  H1373   1.084   .     S
C1328  C889    1.369   1_565 S
C1329  C1338   1.420   .     S
C1329  C1357   1.397   .     A
C1329  C1358   1.397   .     A
C1330  C1356   1.397   .     A
C1331  N1378   1.367   .     A
C1331  H1374   1.081   .     S
C1331  C1177   1.417   1_655 S
C1332  N1377   1.366   .     A
C1332  H1375   1.082   .     S
C1333  N1377   1.367   .     A
C1333  H1367   1.081   .     S
C1334  H1368   1.080   .     S
C1334  N1378   1.367   .     A
C1334  C1176   1.417   1_655 S
C1335  O1396   1.292   .     A
C1335  C1337   1.447   .     S
C1335  O1394   1.289   .     A
C1336  O1397   1.291   .     A
C1336  C1339   1.469   .     S
C1336  O1395   1.301   .     A
C1337  C1344   1.393   .     A
C1337  C1342   1.397   .     A
C1338  O1390   1.285   .     A
C1338  O1393   1.285   .     A
C1339  C1345   1.404   .     A
C1339  C1343   1.404   .     A
C1340  H1365   1.079   .     S
C1340  C1342   1.390   .     A
C1340  C1348   1.407   .     A
C1341  C1350   1.412   .     A
C1341  C1343   1.404   .     A
C1341  H1366   1.078   .     S
C1342  H1364   1.084   .     S
C1343  H1363   1.083   .     S
C1344  S1402   1.785   .     S
C1344  C1346   1.404   .     A
C1345  C1347   1.390   .     A
C1345  S1401   1.789   .     S
C1346  C1351   1.409   .     A
C1346  C1348   1.425   .     A
C1347  C1352   1.403   .     A
C1347  C1350   1.413   .     A
C1348  C652    1.412   1_556 S
C1349  C1352   1.410   .     A
C1349  H1359   1.081   .     S
C1349  C1354   1.395   .     A
C1351  C1353   1.411   .     A
C1351  C650    1.396   1_556 S
C1353  C1355   1.401   .     A
C1353  H1369   1.078   .     S
C1354  S1399   1.775   .     S
C1355  S1400   1.772   .     S
C1355  C648    1.416   1_556 S
C1356  H1370   1.084   .     S
C1356  C890    1.370   1_565 S
C1357  H1371   1.084   .     S
C1358  H1372   1.084   .     S
H1360  O1384   0.991   .     S
H1361  O1387   0.990   .     S
H1362  O1391   0.991   .     S
H1376  O1381   0.990   .     S
N1377  Zn1403  2.013   .     S
N1378  Zn1404  2.013   .     S
O1379  Zn1403  2.000   .     S
O1380  S1399   1.503   .     D
O1381  S1399   1.683   .     S
O1384  S1400   1.682   .     S
O1385  S1401   1.502   .     D
O1386  S1401   1.503   .     D
O1387  S1401   1.683   .     S
O1388  S1402   1.502   .     D
O1389  S1402   1.503   .     D
O1390  Zn1404  2.000   .     S
O1391  S1402   1.682   .     S
O1392  Zn1404  1.999   .     S
O1393  Zn1403  1.999   .     S
O1394  Zn1403  1.952   .     S
O1395  Zn1404  1.952   .     S
O1396  Zn1404  1.906   .     S
O1397  Zn1403  1.906   .     S
O1398  S1243   1.502   1_655 S
S1400  O1227   1.499   1_655 S
S1400  O1226   1.502   1_655 S
