data_str_m3_o1_o17_pcu_sym.203
_audit_creation_date              2020-01-03
_audit_creation_method            'Materials Studio'
_symmetry_space_group_name_H-M    'P1'
_symmetry_Int_Tables_number       1
_symmetry_cell_setting            triclinic
loop_
_symmetry_equiv_pos_as_xyz
  x,y,z
_cell_length_a                    32.7659
_cell_length_b                    29.7080
_cell_length_c                    29.9538
_cell_angle_alpha                 88.5064
_cell_angle_beta                  91.4325
_cell_angle_gamma                 87.1809
loop_
_atom_site_label
_atom_site_type_symbol
_atom_site_fract_x
_atom_site_fract_y
_atom_site_fract_z
_atom_site_U_iso_or_equiv
_atom_site_adp_type
_atom_site_occupancy
C1     C     0.08663   0.16765   0.25189   0.00000  Uiso   1.00
C2     C     0.24670   0.16565   0.24799   0.00000  Uiso   1.00
C3     C     0.09061   0.16506   0.02114   0.00000  Uiso   1.00
C4     C     0.23450   0.11919   0.47884   0.00000  Uiso   1.00
C5     C     0.02347   0.12915   0.26861   0.00000  Uiso   1.00
C6     C     0.31000   0.20361   0.23057   0.00000  Uiso   1.00
C7     C     0.31487   0.12583   0.26142   0.00000  Uiso   1.00
C8     C     0.01838   0.20761   0.23932   0.00000  Uiso   1.00
C9     C     0.29117   0.16396   0.24468   0.00000  Uiso   1.00
C10    C     0.04220   0.16915   0.25523   0.00000  Uiso   1.00
C11    C     0.18788   0.02180   0.28220   0.00000  Uiso   1.00
C12    C     0.14579   0.31172   0.21752   0.00000  Uiso   1.00
C13    C     0.14472   0.02626   0.21836   0.00000  Uiso   1.00
C14    C     0.18859   0.30720   0.28173   0.00000  Uiso   1.00
C15    C     0.16729   0.16675   0.16357   0.00000  Uiso   1.00
C16    C     0.16671   0.16622   0.33644   0.00000  Uiso   1.00
C17    C     0.20211   0.14860   0.40780   0.00000  Uiso   1.00
C18    C     0.13051   0.17322   0.09169   0.00000  Uiso   1.00
C19    C     0.16663   0.16464   0.38449   0.00000  Uiso   1.00
C20    C     0.16749   0.16473   0.11541   0.00000  Uiso   1.00
C21    C     0.13067   0.17668   0.40641   0.00000  Uiso   1.00
C22    C     0.20048   0.14134   0.09566   0.00000  Uiso   1.00
C23    C     0.12835   0.16634   0.45234   0.00000  Uiso   1.00
C24    C     0.20101   0.13835   0.04856   0.00000  Uiso   1.00
C25    C     0.16460   0.15205   0.47669   0.00000  Uiso   1.00
C26    C     0.16473   0.15155   0.02365   0.00000  Uiso   1.00
C27    C     0.20080   0.13959   0.45416   0.00000  Uiso   1.00
C28    C     0.12822   0.16393   0.04569   0.00000  Uiso   1.00
C29    C     0.09052   0.16725   0.47425   0.00000  Uiso   1.00
C30    C     0.23578   0.12134   0.02556   0.00000  Uiso   1.00
N31    N     0.16667   0.28573   0.25000   0.00000  Uiso   1.00
N32    N     0.16667   0.04760   0.25000   0.00000  Uiso   1.00
O33    O     0.10559   0.20487   0.25000   0.00000  Uiso   1.00
O34    O     0.22774   0.12846   0.25000   0.00000  Uiso   1.00
O35    O     0.22774   0.20487   0.25000   0.00000  Uiso   1.00
O36    O     0.10559   0.12846   0.24999   0.00000  Uiso   1.00
O37    O     0.16666   0.20489   0.18392   0.00000  Uiso   1.00
O38    O     0.16667   0.12844   0.31607   0.00000  Uiso   1.00
O39    O     0.16667   0.20489   0.31607   0.00000  Uiso   1.00
O40    O     0.16666   0.12844   0.18392   0.00000  Uiso   1.00
Zn41   Zn    0.16667   0.21771   0.25000   0.00000  Uiso   1.00
Zn42   Zn    0.16667   0.11563   0.25000   0.00000  Uiso   1.00
C43    C     0.24062   0.14970   0.38469   0.00000  Uiso   1.00
N44    N     0.27110   0.15098   0.36608   0.00000  Uiso   1.00
C45    C     0.09476   0.18814   0.11625   0.00000  Uiso   1.00
N46    N     0.06618   0.19915   0.13597   0.00000  Uiso   1.00
C47    C     0.09830   0.20599   0.38286   0.00000  Uiso   1.00
O48    O     0.08295   0.19459   0.34763   0.00000  Uiso   1.00
O49    O     0.08505   0.24648   0.40184   0.00000  Uiso   1.00
H50    H     0.06281   0.26341   0.38309   0.00000  Uiso   1.00
C51    C     0.23032   0.11477   0.12544   0.00000  Uiso   1.00
O52    O     0.25289   0.13397   0.15097   0.00000  Uiso   1.00
O53    O     0.23169   0.06769   0.12459   0.00000  Uiso   1.00
H54    H     0.25301   0.05324   0.14626   0.00000  Uiso   1.00
C55    C     0.05158   0.16286   0.44834   0.00000  Uiso   1.00
O56    O     0.02250   0.18949   0.45328   0.00000  Uiso   1.00
O57    O     0.04905   0.12894   0.41707   0.00000  Uiso   1.00
H58    H     0.02215   0.13082   0.39952   0.00000  Uiso   1.00
C59    C     0.27517   0.10902   0.04882   0.00000  Uiso   1.00
O60    O     0.29309   0.13797   0.06838   0.00000  Uiso   1.00
O61    O     0.29133   0.06456   0.04867   0.00000  Uiso   1.00
H62    H     0.31792   0.06009   0.06656   0.00000  Uiso   1.00
C63    C     0.05271   0.15508   0.04420   0.00000  Uiso   1.00
O64    O     0.02374   0.18262   0.04306   0.00000  Uiso   1.00
O65    O     0.05224   0.11567   0.07073   0.00000  Uiso   1.00
H66    H     0.02907   0.11595   0.09238   0.00000  Uiso   1.00
C67    C     0.26717   0.09190   0.45674   0.00000  Uiso   1.00
O68    O     0.30215   0.10421   0.45719   0.00000  Uiso   1.00
O69    O     0.25856   0.05143   0.43670   0.00000  Uiso   1.00
H70    H     0.22901   0.04360   0.43998   0.00000  Uiso   1.00
C71    C     0.04745   0.09066   0.29158   0.00000  Uiso   1.00
O72    O     0.06477   0.09645   0.32736   0.00000  Uiso   1.00
O73    O     0.05139   0.04835   0.27231   0.00000  Uiso   1.00
H74    H     0.03840   0.04800   0.24128   0.00000  Uiso   1.00
C75    C     0.28615   0.24049   0.20529   0.00000  Uiso   1.00
O76    O     0.28411   0.27869   0.21958   0.00000  Uiso   1.00
O77    O     0.26480   0.23072   0.16603   0.00000  Uiso   1.00
H78    H     0.24896   0.25808   0.15238   0.00000  Uiso   1.00
C79    C     0.29693   0.08167   0.27061   0.00000  Uiso   1.00
O80    O     0.30005   0.06425   0.30804   0.00000  Uiso   1.00
O81    O     0.27901   0.05881   0.23557   0.00000  Uiso   1.00
H82    H     0.26881   0.02866   0.24562   0.00000  Uiso   1.00
C83    C     0.03576   0.25267   0.23317   0.00000  Uiso   1.00
O84    O     0.05096   0.27097   0.26524   0.00000  Uiso   1.00
O85    O     0.03236   0.27524   0.19161   0.00000  Uiso   1.00
H86    H     0.04228   0.30699   0.19268   0.00000  Uiso   1.00
C87    C     0.20818   0.04326   0.31822   0.00000  Uiso   1.00
N88    N     0.22436   0.05965   0.34788   0.00000  Uiso   1.00
C89    C     0.12759   0.29128   0.17956   0.00000  Uiso   1.00
N90    N     0.11316   0.27674   0.14783   0.00000  Uiso   1.00
C91    C     0.11930   0.05269   0.18634   0.00000  Uiso   1.00
N92    N     0.09863   0.07347   0.16065   0.00000  Uiso   1.00
C93    C     0.21413   0.28095   0.31374   0.00000  Uiso   1.00
N94    N     0.23489   0.26032   0.33945   0.00000  Uiso   1.00
C95    C     0.41996   0.16765   0.25189   0.00000  Uiso   1.00
C96    C     0.58004   0.16565   0.24799   0.00000  Uiso   1.00
C97    C     0.42395   0.16506   0.02114   0.00000  Uiso   1.00
C98    C     0.56783   0.11919   0.47884   0.00000  Uiso   1.00
C99    C     0.35680   0.12915   0.26861   0.00000  Uiso   1.00
C100   C     0.64333   0.20361   0.23057   0.00000  Uiso   1.00
C101   C     0.64820   0.12583   0.26142   0.00000  Uiso   1.00
C102   C     0.35171   0.20761   0.23932   0.00000  Uiso   1.00
C103   C     0.62450   0.16396   0.24468   0.00000  Uiso   1.00
C104   C     0.37554   0.16915   0.25523   0.00000  Uiso   1.00
C105   C     0.52121   0.02180   0.28220   0.00000  Uiso   1.00
C106   C     0.47912   0.31172   0.21752   0.00000  Uiso   1.00
C107   C     0.47805   0.02626   0.21836   0.00000  Uiso   1.00
C108   C     0.52192   0.30720   0.28173   0.00000  Uiso   1.00
C109   C     0.50062   0.16675   0.16357   0.00000  Uiso   1.00
C110   C     0.50004   0.16622   0.33644   0.00000  Uiso   1.00
C111   C     0.53545   0.14860   0.40780   0.00000  Uiso   1.00
C112   C     0.46385   0.17322   0.09169   0.00000  Uiso   1.00
C113   C     0.49996   0.16464   0.38449   0.00000  Uiso   1.00
C114   C     0.50082   0.16473   0.11541   0.00000  Uiso   1.00
C115   C     0.46400   0.17668   0.40641   0.00000  Uiso   1.00
C116   C     0.53382   0.14134   0.09566   0.00000  Uiso   1.00
C117   C     0.46168   0.16634   0.45234   0.00000  Uiso   1.00
C118   C     0.53435   0.13835   0.04856   0.00000  Uiso   1.00
C119   C     0.49793   0.15205   0.47669   0.00000  Uiso   1.00
C120   C     0.49806   0.15155   0.02365   0.00000  Uiso   1.00
C121   C     0.53414   0.13959   0.45416   0.00000  Uiso   1.00
C122   C     0.46155   0.16393   0.04569   0.00000  Uiso   1.00
C123   C     0.42385   0.16725   0.47425   0.00000  Uiso   1.00
C124   C     0.56912   0.12134   0.02556   0.00000  Uiso   1.00
N125   N     0.50000   0.28573   0.25000   0.00000  Uiso   1.00
N126   N     0.50000   0.04760   0.25000   0.00000  Uiso   1.00
O127   O     0.43892   0.20487   0.25000   0.00000  Uiso   1.00
O128   O     0.56108   0.12846   0.25000   0.00000  Uiso   1.00
O129   O     0.56108   0.20487   0.25000   0.00000  Uiso   1.00
O130   O     0.43892   0.12846   0.24999   0.00000  Uiso   1.00
O131   O     0.49999   0.20489   0.18392   0.00000  Uiso   1.00
O132   O     0.50001   0.12844   0.31607   0.00000  Uiso   1.00
O133   O     0.50001   0.20489   0.31607   0.00000  Uiso   1.00
O134   O     0.49999   0.12844   0.18392   0.00000  Uiso   1.00
Zn135  Zn    0.50000   0.21771   0.25000   0.00000  Uiso   1.00
Zn136  Zn    0.50000   0.11563   0.25000   0.00000  Uiso   1.00
C137   C     0.57395   0.14970   0.38469   0.00000  Uiso   1.00
N138   N     0.60443   0.15098   0.36608   0.00000  Uiso   1.00
C139   C     0.42810   0.18814   0.11625   0.00000  Uiso   1.00
N140   N     0.39952   0.19915   0.13597   0.00000  Uiso   1.00
C141   C     0.43163   0.20599   0.38286   0.00000  Uiso   1.00
O142   O     0.41628   0.19459   0.34763   0.00000  Uiso   1.00
O143   O     0.41838   0.24648   0.40184   0.00000  Uiso   1.00
H144   H     0.39614   0.26341   0.38309   0.00000  Uiso   1.00
C145   C     0.56365   0.11477   0.12544   0.00000  Uiso   1.00
O146   O     0.58623   0.13397   0.15097   0.00000  Uiso   1.00
O147   O     0.56503   0.06769   0.12459   0.00000  Uiso   1.00
H148   H     0.58635   0.05324   0.14626   0.00000  Uiso   1.00
C149   C     0.38492   0.16286   0.44834   0.00000  Uiso   1.00
O150   O     0.35583   0.18949   0.45328   0.00000  Uiso   1.00
O151   O     0.38239   0.12894   0.41707   0.00000  Uiso   1.00
H152   H     0.35548   0.13082   0.39952   0.00000  Uiso   1.00
C153   C     0.60850   0.10902   0.04882   0.00000  Uiso   1.00
O154   O     0.62642   0.13797   0.06838   0.00000  Uiso   1.00
O155   O     0.62467   0.06456   0.04867   0.00000  Uiso   1.00
H156   H     0.65126   0.06009   0.06656   0.00000  Uiso   1.00
C157   C     0.38604   0.15508   0.04420   0.00000  Uiso   1.00
O158   O     0.35708   0.18262   0.04306   0.00000  Uiso   1.00
O159   O     0.38558   0.11567   0.07073   0.00000  Uiso   1.00
H160   H     0.36240   0.11595   0.09238   0.00000  Uiso   1.00
C161   C     0.60050   0.09190   0.45674   0.00000  Uiso   1.00
O162   O     0.63548   0.10421   0.45719   0.00000  Uiso   1.00
O163   O     0.59190   0.05143   0.43670   0.00000  Uiso   1.00
H164   H     0.56234   0.04360   0.43998   0.00000  Uiso   1.00
C165   C     0.38078   0.09066   0.29158   0.00000  Uiso   1.00
O166   O     0.39810   0.09645   0.32736   0.00000  Uiso   1.00
O167   O     0.38473   0.04835   0.27231   0.00000  Uiso   1.00
H168   H     0.37173   0.04800   0.24128   0.00000  Uiso   1.00
C169   C     0.61949   0.24049   0.20529   0.00000  Uiso   1.00
O170   O     0.61745   0.27869   0.21958   0.00000  Uiso   1.00
O171   O     0.59813   0.23072   0.16603   0.00000  Uiso   1.00
H172   H     0.58229   0.25808   0.15238   0.00000  Uiso   1.00
C173   C     0.63027   0.08167   0.27061   0.00000  Uiso   1.00
O174   O     0.63338   0.06425   0.30804   0.00000  Uiso   1.00
O175   O     0.61234   0.05881   0.23557   0.00000  Uiso   1.00
H176   H     0.60215   0.02866   0.24562   0.00000  Uiso   1.00
C177   C     0.36910   0.25267   0.23317   0.00000  Uiso   1.00
O178   O     0.38430   0.27097   0.26524   0.00000  Uiso   1.00
O179   O     0.36570   0.27524   0.19161   0.00000  Uiso   1.00
H180   H     0.37562   0.30699   0.19268   0.00000  Uiso   1.00
C181   C     0.54152   0.04326   0.31822   0.00000  Uiso   1.00
N182   N     0.55769   0.05965   0.34788   0.00000  Uiso   1.00
C183   C     0.46092   0.29128   0.17956   0.00000  Uiso   1.00
N184   N     0.44649   0.27674   0.14783   0.00000  Uiso   1.00
C185   C     0.45263   0.05269   0.18634   0.00000  Uiso   1.00
N186   N     0.43196   0.07347   0.16065   0.00000  Uiso   1.00
C187   C     0.54746   0.28095   0.31374   0.00000  Uiso   1.00
N188   N     0.56822   0.26032   0.33945   0.00000  Uiso   1.00
C189   C     0.75330   0.16765   0.25189   0.00000  Uiso   1.00
C190   C     0.91337   0.16565   0.24799   0.00000  Uiso   1.00
C191   C     0.75728   0.16506   0.02114   0.00000  Uiso   1.00
C192   C     0.90117   0.11919   0.47884   0.00000  Uiso   1.00
C193   C     0.69013   0.12915   0.26861   0.00000  Uiso   1.00
C194   C     0.97667   0.20361   0.23057   0.00000  Uiso   1.00
C195   C     0.98153   0.12583   0.26142   0.00000  Uiso   1.00
C196   C     0.68504   0.20761   0.23932   0.00000  Uiso   1.00
C197   C     0.95783   0.16396   0.24468   0.00000  Uiso   1.00
C198   C     0.70887   0.16915   0.25523   0.00000  Uiso   1.00
C199   C     0.85455   0.02180   0.28220   0.00000  Uiso   1.00
C200   C     0.81246   0.31172   0.21752   0.00000  Uiso   1.00
C201   C     0.81139   0.02626   0.21836   0.00000  Uiso   1.00
C202   C     0.85525   0.30720   0.28173   0.00000  Uiso   1.00
C203   C     0.83395   0.16675   0.16357   0.00000  Uiso   1.00
C204   C     0.83338   0.16622   0.33644   0.00000  Uiso   1.00
C205   C     0.86878   0.14860   0.40780   0.00000  Uiso   1.00
C206   C     0.79718   0.17322   0.09169   0.00000  Uiso   1.00
C207   C     0.83330   0.16464   0.38449   0.00000  Uiso   1.00
C208   C     0.83415   0.16473   0.11541   0.00000  Uiso   1.00
C209   C     0.79733   0.17668   0.40641   0.00000  Uiso   1.00
C210   C     0.86715   0.14134   0.09566   0.00000  Uiso   1.00
C211   C     0.79502   0.16634   0.45234   0.00000  Uiso   1.00
C212   C     0.86768   0.13835   0.04856   0.00000  Uiso   1.00
C213   C     0.83127   0.15205   0.47669   0.00000  Uiso   1.00
C214   C     0.83139   0.15155   0.02365   0.00000  Uiso   1.00
C215   C     0.86747   0.13959   0.45416   0.00000  Uiso   1.00
C216   C     0.79488   0.16393   0.04569   0.00000  Uiso   1.00
C217   C     0.75718   0.16725   0.47425   0.00000  Uiso   1.00
C218   C     0.90245   0.12134   0.02556   0.00000  Uiso   1.00
N219   N     0.83333   0.28573   0.25000   0.00000  Uiso   1.00
N220   N     0.83333   0.04760   0.25000   0.00000  Uiso   1.00
O221   O     0.77226   0.20487   0.25000   0.00000  Uiso   1.00
O222   O     0.89441   0.12846   0.25000   0.00000  Uiso   1.00
O223   O     0.89441   0.20487   0.25000   0.00000  Uiso   1.00
O224   O     0.77226   0.12846   0.24999   0.00000  Uiso   1.00
O225   O     0.83333   0.20489   0.18392   0.00000  Uiso   1.00
O226   O     0.83334   0.12844   0.31607   0.00000  Uiso   1.00
O227   O     0.83334   0.20489   0.31607   0.00000  Uiso   1.00
O228   O     0.83333   0.12844   0.18392   0.00000  Uiso   1.00
Zn229  Zn    0.83333   0.21771   0.25000   0.00000  Uiso   1.00
Zn230  Zn    0.83333   0.11563   0.25000   0.00000  Uiso   1.00
C231   C     0.90729   0.14970   0.38469   0.00000  Uiso   1.00
N232   N     0.93777   0.15098   0.36608   0.00000  Uiso   1.00
C233   C     0.76143   0.18814   0.11625   0.00000  Uiso   1.00
N234   N     0.73285   0.19915   0.13597   0.00000  Uiso   1.00
C235   C     0.76497   0.20599   0.38286   0.00000  Uiso   1.00
O236   O     0.74961   0.19459   0.34763   0.00000  Uiso   1.00
O237   O     0.75171   0.24648   0.40184   0.00000  Uiso   1.00
H238   H     0.72948   0.26341   0.38309   0.00000  Uiso   1.00
C239   C     0.89699   0.11477   0.12544   0.00000  Uiso   1.00
O240   O     0.91956   0.13397   0.15097   0.00000  Uiso   1.00
O241   O     0.89836   0.06769   0.12459   0.00000  Uiso   1.00
H242   H     0.91968   0.05324   0.14626   0.00000  Uiso   1.00
C243   C     0.71825   0.16286   0.44834   0.00000  Uiso   1.00
O244   O     0.68917   0.18949   0.45328   0.00000  Uiso   1.00
O245   O     0.71572   0.12894   0.41707   0.00000  Uiso   1.00
H246   H     0.68882   0.13082   0.39952   0.00000  Uiso   1.00
C247   C     0.94184   0.10902   0.04882   0.00000  Uiso   1.00
O248   O     0.95975   0.13797   0.06838   0.00000  Uiso   1.00
O249   O     0.95800   0.06456   0.04867   0.00000  Uiso   1.00
H250   H     0.98459   0.06009   0.06656   0.00000  Uiso   1.00
C251   C     0.71938   0.15508   0.04420   0.00000  Uiso   1.00
O252   O     0.69041   0.18262   0.04306   0.00000  Uiso   1.00
O253   O     0.71891   0.11567   0.07073   0.00000  Uiso   1.00
H254   H     0.69574   0.11595   0.09238   0.00000  Uiso   1.00
C255   C     0.93384   0.09190   0.45674   0.00000  Uiso   1.00
O256   O     0.96882   0.10421   0.45719   0.00000  Uiso   1.00
O257   O     0.92523   0.05143   0.43670   0.00000  Uiso   1.00
H258   H     0.89567   0.04360   0.43998   0.00000  Uiso   1.00
C259   C     0.71412   0.09066   0.29158   0.00000  Uiso   1.00
O260   O     0.73143   0.09645   0.32736   0.00000  Uiso   1.00
O261   O     0.71806   0.04835   0.27231   0.00000  Uiso   1.00
H262   H     0.70506   0.04800   0.24128   0.00000  Uiso   1.00
C263   C     0.95282   0.24049   0.20529   0.00000  Uiso   1.00
O264   O     0.95078   0.27869   0.21958   0.00000  Uiso   1.00
O265   O     0.93147   0.23072   0.16603   0.00000  Uiso   1.00
H266   H     0.91562   0.25808   0.15238   0.00000  Uiso   1.00
C267   C     0.96360   0.08167   0.27061   0.00000  Uiso   1.00
O268   O     0.96672   0.06425   0.30804   0.00000  Uiso   1.00
O269   O     0.94567   0.05881   0.23557   0.00000  Uiso   1.00
H270   H     0.93548   0.02866   0.24562   0.00000  Uiso   1.00
C271   C     0.70243   0.25267   0.23317   0.00000  Uiso   1.00
O272   O     0.71763   0.27097   0.26524   0.00000  Uiso   1.00
O273   O     0.69903   0.27524   0.19161   0.00000  Uiso   1.00
H274   H     0.70895   0.30699   0.19268   0.00000  Uiso   1.00
C275   C     0.87485   0.04326   0.31822   0.00000  Uiso   1.00
N276   N     0.89103   0.05965   0.34788   0.00000  Uiso   1.00
C277   C     0.79425   0.29128   0.17956   0.00000  Uiso   1.00
N278   N     0.77982   0.27674   0.14783   0.00000  Uiso   1.00
C279   C     0.78596   0.05269   0.18634   0.00000  Uiso   1.00
N280   N     0.76529   0.07347   0.16065   0.00000  Uiso   1.00
C281   C     0.88079   0.28095   0.31374   0.00000  Uiso   1.00
N282   N     0.90156   0.26032   0.33945   0.00000  Uiso   1.00
C283   C     0.08663   0.50098   0.25189   0.00000  Uiso   1.00
C284   C     0.24670   0.49899   0.24799   0.00000  Uiso   1.00
C285   C     0.09061   0.49839   0.02114   0.00000  Uiso   1.00
C286   C     0.23450   0.45252   0.47884   0.00000  Uiso   1.00
C287   C     0.02347   0.46249   0.26861   0.00000  Uiso   1.00
C288   C     0.31000   0.53694   0.23057   0.00000  Uiso   1.00
C289   C     0.31487   0.45916   0.26142   0.00000  Uiso   1.00
C290   C     0.01838   0.54094   0.23932   0.00000  Uiso   1.00
C291   C     0.29117   0.49730   0.24468   0.00000  Uiso   1.00
C292   C     0.04220   0.50248   0.25523   0.00000  Uiso   1.00
C293   C     0.18788   0.35514   0.28220   0.00000  Uiso   1.00
C294   C     0.14579   0.64506   0.21752   0.00000  Uiso   1.00
C295   C     0.14472   0.35959   0.21836   0.00000  Uiso   1.00
C296   C     0.18859   0.64053   0.28173   0.00000  Uiso   1.00
C297   C     0.16729   0.50008   0.16357   0.00000  Uiso   1.00
C298   C     0.16671   0.49955   0.33644   0.00000  Uiso   1.00
C299   C     0.20211   0.48193   0.40780   0.00000  Uiso   1.00
C300   C     0.13051   0.50656   0.09169   0.00000  Uiso   1.00
C301   C     0.16663   0.49797   0.38449   0.00000  Uiso   1.00
C302   C     0.16749   0.49806   0.11541   0.00000  Uiso   1.00
C303   C     0.13067   0.51001   0.40641   0.00000  Uiso   1.00
C304   C     0.20048   0.47467   0.09566   0.00000  Uiso   1.00
C305   C     0.12835   0.49967   0.45234   0.00000  Uiso   1.00
C306   C     0.20101   0.47168   0.04856   0.00000  Uiso   1.00
C307   C     0.16460   0.48539   0.47669   0.00000  Uiso   1.00
C308   C     0.16473   0.48488   0.02365   0.00000  Uiso   1.00
C309   C     0.20080   0.47292   0.45416   0.00000  Uiso   1.00
C310   C     0.12822   0.49726   0.04569   0.00000  Uiso   1.00
C311   C     0.09052   0.50058   0.47425   0.00000  Uiso   1.00
C312   C     0.23578   0.45468   0.02556   0.00000  Uiso   1.00
N313   N     0.16667   0.61907   0.25000   0.00000  Uiso   1.00
N314   N     0.16667   0.38093   0.25000   0.00000  Uiso   1.00
O315   O     0.10559   0.53821   0.25000   0.00000  Uiso   1.00
O316   O     0.22774   0.46179   0.25000   0.00000  Uiso   1.00
O317   O     0.22774   0.53821   0.25000   0.00000  Uiso   1.00
O318   O     0.10559   0.46179   0.24999   0.00000  Uiso   1.00
O319   O     0.16666   0.53823   0.18392   0.00000  Uiso   1.00
O320   O     0.16667   0.46177   0.31607   0.00000  Uiso   1.00
O321   O     0.16667   0.53823   0.31607   0.00000  Uiso   1.00
O322   O     0.16666   0.46177   0.18392   0.00000  Uiso   1.00
Zn323  Zn    0.16667   0.55104   0.25000   0.00000  Uiso   1.00
Zn324  Zn    0.16667   0.44896   0.25000   0.00000  Uiso   1.00
C325   C     0.24062   0.48303   0.38469   0.00000  Uiso   1.00
N326   N     0.27110   0.48431   0.36608   0.00000  Uiso   1.00
C327   C     0.09476   0.52147   0.11625   0.00000  Uiso   1.00
N328   N     0.06618   0.53248   0.13597   0.00000  Uiso   1.00
C329   C     0.09830   0.53933   0.38286   0.00000  Uiso   1.00
O330   O     0.08295   0.52792   0.34763   0.00000  Uiso   1.00
O331   O     0.08505   0.57981   0.40184   0.00000  Uiso   1.00
H332   H     0.06281   0.59674   0.38309   0.00000  Uiso   1.00
C333   C     0.23032   0.44810   0.12544   0.00000  Uiso   1.00
O334   O     0.25289   0.46731   0.15097   0.00000  Uiso   1.00
O335   O     0.23169   0.40102   0.12459   0.00000  Uiso   1.00
H336   H     0.25301   0.38657   0.14626   0.00000  Uiso   1.00
C337   C     0.05158   0.49619   0.44834   0.00000  Uiso   1.00
O338   O     0.02250   0.52282   0.45328   0.00000  Uiso   1.00
O339   O     0.04905   0.46228   0.41707   0.00000  Uiso   1.00
H340   H     0.02215   0.46416   0.39952   0.00000  Uiso   1.00
C341   C     0.27517   0.44235   0.04882   0.00000  Uiso   1.00
O342   O     0.29309   0.47130   0.06838   0.00000  Uiso   1.00
O343   O     0.29133   0.39790   0.04867   0.00000  Uiso   1.00
H344   H     0.31792   0.39343   0.06656   0.00000  Uiso   1.00
C345   C     0.05271   0.48841   0.04420   0.00000  Uiso   1.00
O346   O     0.02374   0.51596   0.04306   0.00000  Uiso   1.00
O347   O     0.05224   0.44900   0.07073   0.00000  Uiso   1.00
H348   H     0.02907   0.44928   0.09238   0.00000  Uiso   1.00
C349   C     0.26717   0.42524   0.45674   0.00000  Uiso   1.00
O350   O     0.30215   0.43754   0.45719   0.00000  Uiso   1.00
O351   O     0.25856   0.38476   0.43670   0.00000  Uiso   1.00
H352   H     0.22901   0.37694   0.43998   0.00000  Uiso   1.00
C353   C     0.04745   0.42400   0.29158   0.00000  Uiso   1.00
O354   O     0.06477   0.42978   0.32736   0.00000  Uiso   1.00
O355   O     0.05139   0.38168   0.27231   0.00000  Uiso   1.00
H356   H     0.03840   0.38133   0.24128   0.00000  Uiso   1.00
C357   C     0.28615   0.57382   0.20529   0.00000  Uiso   1.00
O358   O     0.28411   0.61202   0.21958   0.00000  Uiso   1.00
O359   O     0.26480   0.56405   0.16603   0.00000  Uiso   1.00
H360   H     0.24896   0.59141   0.15238   0.00000  Uiso   1.00
C361   C     0.29693   0.41500   0.27061   0.00000  Uiso   1.00
O362   O     0.30005   0.39759   0.30804   0.00000  Uiso   1.00
O363   O     0.27901   0.39215   0.23557   0.00000  Uiso   1.00
H364   H     0.26881   0.36199   0.24562   0.00000  Uiso   1.00
C365   C     0.03576   0.58600   0.23317   0.00000  Uiso   1.00
O366   O     0.05096   0.60431   0.26524   0.00000  Uiso   1.00
O367   O     0.03236   0.60857   0.19161   0.00000  Uiso   1.00
H368   H     0.04228   0.64032   0.19268   0.00000  Uiso   1.00
C369   C     0.20818   0.37659   0.31822   0.00000  Uiso   1.00
N370   N     0.22436   0.39299   0.34788   0.00000  Uiso   1.00
C371   C     0.12759   0.62461   0.17956   0.00000  Uiso   1.00
N372   N     0.11316   0.61007   0.14783   0.00000  Uiso   1.00
C373   C     0.11930   0.38602   0.18634   0.00000  Uiso   1.00
N374   N     0.09863   0.40681   0.16065   0.00000  Uiso   1.00
C375   C     0.21413   0.61429   0.31374   0.00000  Uiso   1.00
N376   N     0.23489   0.59365   0.33945   0.00000  Uiso   1.00
C377   C     0.41996   0.50098   0.25189   0.00000  Uiso   1.00
C378   C     0.58004   0.49899   0.24799   0.00000  Uiso   1.00
C379   C     0.42395   0.49839   0.02114   0.00000  Uiso   1.00
C380   C     0.56783   0.45252   0.47884   0.00000  Uiso   1.00
C381   C     0.35680   0.46249   0.26861   0.00000  Uiso   1.00
C382   C     0.64333   0.53694   0.23057   0.00000  Uiso   1.00
C383   C     0.64820   0.45916   0.26142   0.00000  Uiso   1.00
C384   C     0.35171   0.54094   0.23932   0.00000  Uiso   1.00
C385   C     0.62450   0.49730   0.24468   0.00000  Uiso   1.00
C386   C     0.37554   0.50248   0.25523   0.00000  Uiso   1.00
C387   C     0.52121   0.35514   0.28220   0.00000  Uiso   1.00
C388   C     0.47912   0.64506   0.21752   0.00000  Uiso   1.00
C389   C     0.47805   0.35959   0.21836   0.00000  Uiso   1.00
C390   C     0.52192   0.64053   0.28173   0.00000  Uiso   1.00
C391   C     0.50062   0.50008   0.16357   0.00000  Uiso   1.00
C392   C     0.50004   0.49955   0.33644   0.00000  Uiso   1.00
C393   C     0.53545   0.48193   0.40780   0.00000  Uiso   1.00
C394   C     0.46385   0.50656   0.09169   0.00000  Uiso   1.00
C395   C     0.49996   0.49797   0.38449   0.00000  Uiso   1.00
C396   C     0.50082   0.49806   0.11541   0.00000  Uiso   1.00
C397   C     0.46400   0.51001   0.40641   0.00000  Uiso   1.00
C398   C     0.53382   0.47467   0.09566   0.00000  Uiso   1.00
C399   C     0.46168   0.49967   0.45234   0.00000  Uiso   1.00
C400   C     0.53435   0.47168   0.04856   0.00000  Uiso   1.00
C401   C     0.49793   0.48539   0.47669   0.00000  Uiso   1.00
C402   C     0.49806   0.48488   0.02365   0.00000  Uiso   1.00
C403   C     0.53414   0.47292   0.45416   0.00000  Uiso   1.00
C404   C     0.46155   0.49726   0.04569   0.00000  Uiso   1.00
C405   C     0.42385   0.50058   0.47425   0.00000  Uiso   1.00
C406   C     0.56912   0.45468   0.02556   0.00000  Uiso   1.00
N407   N     0.50000   0.61907   0.25000   0.00000  Uiso   1.00
N408   N     0.50000   0.38093   0.25000   0.00000  Uiso   1.00
O409   O     0.43892   0.53821   0.25000   0.00000  Uiso   1.00
O410   O     0.56108   0.46179   0.25000   0.00000  Uiso   1.00
O411   O     0.56108   0.53821   0.25000   0.00000  Uiso   1.00
O412   O     0.43892   0.46179   0.24999   0.00000  Uiso   1.00
O413   O     0.49999   0.53823   0.18392   0.00000  Uiso   1.00
O414   O     0.50001   0.46177   0.31607   0.00000  Uiso   1.00
O415   O     0.50001   0.53823   0.31607   0.00000  Uiso   1.00
O416   O     0.49999   0.46177   0.18392   0.00000  Uiso   1.00
Zn417  Zn    0.50000   0.55104   0.25000   0.00000  Uiso   1.00
Zn418  Zn    0.50000   0.44896   0.25000   0.00000  Uiso   1.00
C419   C     0.57395   0.48303   0.38469   0.00000  Uiso   1.00
N420   N     0.60443   0.48431   0.36608   0.00000  Uiso   1.00
C421   C     0.42810   0.52147   0.11625   0.00000  Uiso   1.00
N422   N     0.39952   0.53248   0.13597   0.00000  Uiso   1.00
C423   C     0.43163   0.53933   0.38286   0.00000  Uiso   1.00
O424   O     0.41628   0.52792   0.34763   0.00000  Uiso   1.00
O425   O     0.41838   0.57981   0.40184   0.00000  Uiso   1.00
H426   H     0.39614   0.59674   0.38309   0.00000  Uiso   1.00
C427   C     0.56365   0.44810   0.12544   0.00000  Uiso   1.00
O428   O     0.58623   0.46731   0.15097   0.00000  Uiso   1.00
O429   O     0.56503   0.40102   0.12459   0.00000  Uiso   1.00
H430   H     0.58635   0.38657   0.14626   0.00000  Uiso   1.00
C431   C     0.38492   0.49619   0.44834   0.00000  Uiso   1.00
O432   O     0.35583   0.52282   0.45328   0.00000  Uiso   1.00
O433   O     0.38239   0.46228   0.41707   0.00000  Uiso   1.00
H434   H     0.35548   0.46416   0.39952   0.00000  Uiso   1.00
C435   C     0.60850   0.44235   0.04882   0.00000  Uiso   1.00
O436   O     0.62642   0.47130   0.06838   0.00000  Uiso   1.00
O437   O     0.62467   0.39790   0.04867   0.00000  Uiso   1.00
H438   H     0.65126   0.39343   0.06656   0.00000  Uiso   1.00
C439   C     0.38604   0.48841   0.04420   0.00000  Uiso   1.00
O440   O     0.35708   0.51596   0.04306   0.00000  Uiso   1.00
O441   O     0.38558   0.44900   0.07073   0.00000  Uiso   1.00
H442   H     0.36240   0.44928   0.09238   0.00000  Uiso   1.00
C443   C     0.60050   0.42524   0.45674   0.00000  Uiso   1.00
O444   O     0.63548   0.43754   0.45719   0.00000  Uiso   1.00
O445   O     0.59190   0.38476   0.43670   0.00000  Uiso   1.00
H446   H     0.56234   0.37694   0.43998   0.00000  Uiso   1.00
C447   C     0.38078   0.42400   0.29158   0.00000  Uiso   1.00
O448   O     0.39810   0.42978   0.32736   0.00000  Uiso   1.00
O449   O     0.38473   0.38168   0.27231   0.00000  Uiso   1.00
H450   H     0.37173   0.38133   0.24128   0.00000  Uiso   1.00
C451   C     0.61949   0.57382   0.20529   0.00000  Uiso   1.00
O452   O     0.61745   0.61202   0.21958   0.00000  Uiso   1.00
O453   O     0.59813   0.56405   0.16603   0.00000  Uiso   1.00
H454   H     0.58229   0.59141   0.15238   0.00000  Uiso   1.00
C455   C     0.63027   0.41500   0.27061   0.00000  Uiso   1.00
O456   O     0.63338   0.39759   0.30804   0.00000  Uiso   1.00
O457   O     0.61234   0.39215   0.23557   0.00000  Uiso   1.00
H458   H     0.60215   0.36199   0.24562   0.00000  Uiso   1.00
C459   C     0.36910   0.58600   0.23317   0.00000  Uiso   1.00
O460   O     0.38430   0.60431   0.26524   0.00000  Uiso   1.00
O461   O     0.36570   0.60857   0.19161   0.00000  Uiso   1.00
H462   H     0.37562   0.64032   0.19268   0.00000  Uiso   1.00
C463   C     0.54152   0.37659   0.31822   0.00000  Uiso   1.00
N464   N     0.55769   0.39299   0.34788   0.00000  Uiso   1.00
C465   C     0.46092   0.62461   0.17956   0.00000  Uiso   1.00
N466   N     0.44649   0.61007   0.14783   0.00000  Uiso   1.00
C467   C     0.45263   0.38602   0.18634   0.00000  Uiso   1.00
N468   N     0.43196   0.40681   0.16065   0.00000  Uiso   1.00
C469   C     0.54746   0.61429   0.31374   0.00000  Uiso   1.00
N470   N     0.56822   0.59365   0.33945   0.00000  Uiso   1.00
C471   C     0.75330   0.50098   0.25189   0.00000  Uiso   1.00
C472   C     0.91337   0.49899   0.24799   0.00000  Uiso   1.00
C473   C     0.75728   0.49839   0.02114   0.00000  Uiso   1.00
C474   C     0.90117   0.45252   0.47884   0.00000  Uiso   1.00
C475   C     0.69013   0.46249   0.26861   0.00000  Uiso   1.00
C476   C     0.97667   0.53694   0.23057   0.00000  Uiso   1.00
C477   C     0.98153   0.45916   0.26142   0.00000  Uiso   1.00
C478   C     0.68504   0.54094   0.23932   0.00000  Uiso   1.00
C479   C     0.95783   0.49730   0.24468   0.00000  Uiso   1.00
C480   C     0.70887   0.50248   0.25523   0.00000  Uiso   1.00
C481   C     0.85455   0.35514   0.28220   0.00000  Uiso   1.00
C482   C     0.81246   0.64506   0.21752   0.00000  Uiso   1.00
C483   C     0.81139   0.35959   0.21836   0.00000  Uiso   1.00
C484   C     0.85525   0.64053   0.28173   0.00000  Uiso   1.00
C485   C     0.83395   0.50008   0.16357   0.00000  Uiso   1.00
C486   C     0.83338   0.49955   0.33644   0.00000  Uiso   1.00
C487   C     0.86878   0.48193   0.40780   0.00000  Uiso   1.00
C488   C     0.79718   0.50656   0.09169   0.00000  Uiso   1.00
C489   C     0.83330   0.49797   0.38449   0.00000  Uiso   1.00
C490   C     0.83415   0.49806   0.11541   0.00000  Uiso   1.00
C491   C     0.79733   0.51001   0.40641   0.00000  Uiso   1.00
C492   C     0.86715   0.47467   0.09566   0.00000  Uiso   1.00
C493   C     0.79502   0.49967   0.45234   0.00000  Uiso   1.00
C494   C     0.86768   0.47168   0.04856   0.00000  Uiso   1.00
C495   C     0.83127   0.48539   0.47669   0.00000  Uiso   1.00
C496   C     0.83139   0.48488   0.02365   0.00000  Uiso   1.00
C497   C     0.86747   0.47292   0.45416   0.00000  Uiso   1.00
C498   C     0.79488   0.49726   0.04569   0.00000  Uiso   1.00
C499   C     0.75718   0.50058   0.47425   0.00000  Uiso   1.00
C500   C     0.90245   0.45468   0.02556   0.00000  Uiso   1.00
N501   N     0.83333   0.61907   0.25000   0.00000  Uiso   1.00
N502   N     0.83333   0.38093   0.25000   0.00000  Uiso   1.00
O503   O     0.77226   0.53821   0.25000   0.00000  Uiso   1.00
O504   O     0.89441   0.46179   0.25000   0.00000  Uiso   1.00
O505   O     0.89441   0.53821   0.25000   0.00000  Uiso   1.00
O506   O     0.77226   0.46179   0.24999   0.00000  Uiso   1.00
O507   O     0.83333   0.53823   0.18392   0.00000  Uiso   1.00
O508   O     0.83334   0.46177   0.31607   0.00000  Uiso   1.00
O509   O     0.83334   0.53823   0.31607   0.00000  Uiso   1.00
O510   O     0.83333   0.46177   0.18392   0.00000  Uiso   1.00
Zn511  Zn    0.83333   0.55104   0.25000   0.00000  Uiso   1.00
Zn512  Zn    0.83333   0.44896   0.25000   0.00000  Uiso   1.00
C513   C     0.90729   0.48303   0.38469   0.00000  Uiso   1.00
N514   N     0.93777   0.48431   0.36608   0.00000  Uiso   1.00
C515   C     0.76143   0.52147   0.11625   0.00000  Uiso   1.00
N516   N     0.73285   0.53248   0.13597   0.00000  Uiso   1.00
C517   C     0.76497   0.53933   0.38286   0.00000  Uiso   1.00
O518   O     0.74961   0.52792   0.34763   0.00000  Uiso   1.00
O519   O     0.75171   0.57981   0.40184   0.00000  Uiso   1.00
H520   H     0.72948   0.59674   0.38309   0.00000  Uiso   1.00
C521   C     0.89699   0.44810   0.12544   0.00000  Uiso   1.00
O522   O     0.91956   0.46731   0.15097   0.00000  Uiso   1.00
O523   O     0.89836   0.40102   0.12459   0.00000  Uiso   1.00
H524   H     0.91968   0.38657   0.14626   0.00000  Uiso   1.00
C525   C     0.71825   0.49619   0.44834   0.00000  Uiso   1.00
O526   O     0.68917   0.52282   0.45328   0.00000  Uiso   1.00
O527   O     0.71572   0.46228   0.41707   0.00000  Uiso   1.00
H528   H     0.68882   0.46416   0.39952   0.00000  Uiso   1.00
C529   C     0.94184   0.44235   0.04882   0.00000  Uiso   1.00
O530   O     0.95975   0.47130   0.06838   0.00000  Uiso   1.00
O531   O     0.95800   0.39790   0.04867   0.00000  Uiso   1.00
H532   H     0.98459   0.39343   0.06656   0.00000  Uiso   1.00
C533   C     0.71938   0.48841   0.04420   0.00000  Uiso   1.00
O534   O     0.69041   0.51596   0.04306   0.00000  Uiso   1.00
O535   O     0.71891   0.44900   0.07073   0.00000  Uiso   1.00
H536   H     0.69574   0.44928   0.09238   0.00000  Uiso   1.00
C537   C     0.93384   0.42524   0.45674   0.00000  Uiso   1.00
O538   O     0.96882   0.43754   0.45719   0.00000  Uiso   1.00
O539   O     0.92523   0.38476   0.43670   0.00000  Uiso   1.00
H540   H     0.89567   0.37694   0.43998   0.00000  Uiso   1.00
C541   C     0.71412   0.42400   0.29158   0.00000  Uiso   1.00
O542   O     0.73143   0.42978   0.32736   0.00000  Uiso   1.00
O543   O     0.71806   0.38168   0.27231   0.00000  Uiso   1.00
H544   H     0.70506   0.38133   0.24128   0.00000  Uiso   1.00
C545   C     0.95282   0.57382   0.20529   0.00000  Uiso   1.00
O546   O     0.95078   0.61202   0.21958   0.00000  Uiso   1.00
O547   O     0.93147   0.56405   0.16603   0.00000  Uiso   1.00
H548   H     0.91562   0.59141   0.15238   0.00000  Uiso   1.00
C549   C     0.96360   0.41500   0.27061   0.00000  Uiso   1.00
O550   O     0.96672   0.39759   0.30804   0.00000  Uiso   1.00
O551   O     0.94567   0.39215   0.23557   0.00000  Uiso   1.00
H552   H     0.93548   0.36199   0.24562   0.00000  Uiso   1.00
C553   C     0.70243   0.58600   0.23317   0.00000  Uiso   1.00
O554   O     0.71763   0.60431   0.26524   0.00000  Uiso   1.00
O555   O     0.69903   0.60857   0.19161   0.00000  Uiso   1.00
H556   H     0.70895   0.64032   0.19268   0.00000  Uiso   1.00
C557   C     0.87485   0.37659   0.31822   0.00000  Uiso   1.00
N558   N     0.89103   0.39299   0.34788   0.00000  Uiso   1.00
C559   C     0.79425   0.62461   0.17956   0.00000  Uiso   1.00
N560   N     0.77982   0.61007   0.14783   0.00000  Uiso   1.00
C561   C     0.78596   0.38602   0.18634   0.00000  Uiso   1.00
N562   N     0.76529   0.40681   0.16065   0.00000  Uiso   1.00
C563   C     0.88079   0.61429   0.31374   0.00000  Uiso   1.00
N564   N     0.90156   0.59365   0.33945   0.00000  Uiso   1.00
C565   C     0.08663   0.83432   0.25189   0.00000  Uiso   1.00
C566   C     0.24670   0.83232   0.24799   0.00000  Uiso   1.00
C567   C     0.09061   0.83172   0.02114   0.00000  Uiso   1.00
C568   C     0.23450   0.78585   0.47884   0.00000  Uiso   1.00
C569   C     0.02347   0.79582   0.26861   0.00000  Uiso   1.00
C570   C     0.31000   0.87027   0.23057   0.00000  Uiso   1.00
C571   C     0.31487   0.79249   0.26142   0.00000  Uiso   1.00
C572   C     0.01838   0.87427   0.23932   0.00000  Uiso   1.00
C573   C     0.29117   0.83063   0.24468   0.00000  Uiso   1.00
C574   C     0.04220   0.83582   0.25523   0.00000  Uiso   1.00
C575   C     0.18788   0.68847   0.28220   0.00000  Uiso   1.00
C576   C     0.14579   0.97839   0.21752   0.00000  Uiso   1.00
C577   C     0.14472   0.69293   0.21836   0.00000  Uiso   1.00
C578   C     0.18859   0.97387   0.28173   0.00000  Uiso   1.00
C579   C     0.16729   0.83342   0.16357   0.00000  Uiso   1.00
C580   C     0.16671   0.83289   0.33644   0.00000  Uiso   1.00
C581   C     0.20211   0.81526   0.40780   0.00000  Uiso   1.00
C582   C     0.13051   0.83989   0.09169   0.00000  Uiso   1.00
C583   C     0.16663   0.83131   0.38449   0.00000  Uiso   1.00
C584   C     0.16749   0.83139   0.11541   0.00000  Uiso   1.00
C585   C     0.13067   0.84335   0.40641   0.00000  Uiso   1.00
C586   C     0.20048   0.80800   0.09566   0.00000  Uiso   1.00
C587   C     0.12835   0.83301   0.45234   0.00000  Uiso   1.00
C588   C     0.20101   0.80502   0.04856   0.00000  Uiso   1.00
C589   C     0.16460   0.81872   0.47669   0.00000  Uiso   1.00
C590   C     0.16473   0.81822   0.02365   0.00000  Uiso   1.00
C591   C     0.20080   0.80626   0.45416   0.00000  Uiso   1.00
C592   C     0.12822   0.83059   0.04569   0.00000  Uiso   1.00
C593   C     0.09052   0.83391   0.47425   0.00000  Uiso   1.00
C594   C     0.23578   0.78801   0.02556   0.00000  Uiso   1.00
N595   N     0.16667   0.95240   0.25000   0.00000  Uiso   1.00
N596   N     0.16667   0.71427   0.25000   0.00000  Uiso   1.00
O597   O     0.10559   0.87154   0.25000   0.00000  Uiso   1.00
O598   O     0.22774   0.79513   0.25000   0.00000  Uiso   1.00
O599   O     0.22774   0.87154   0.25000   0.00000  Uiso   1.00
O600   O     0.10559   0.79513   0.24999   0.00000  Uiso   1.00
O601   O     0.16666   0.87156   0.18392   0.00000  Uiso   1.00
O602   O     0.16667   0.79511   0.31607   0.00000  Uiso   1.00
O603   O     0.16667   0.87156   0.31607   0.00000  Uiso   1.00
O604   O     0.16666   0.79511   0.18392   0.00000  Uiso   1.00
Zn605  Zn    0.16667   0.88437   0.25000   0.00000  Uiso   1.00
Zn606  Zn    0.16667   0.78229   0.25000   0.00000  Uiso   1.00
C607   C     0.24062   0.81636   0.38469   0.00000  Uiso   1.00
N608   N     0.27110   0.81764   0.36608   0.00000  Uiso   1.00
C609   C     0.09476   0.85480   0.11625   0.00000  Uiso   1.00
N610   N     0.06618   0.86582   0.13597   0.00000  Uiso   1.00
C611   C     0.09830   0.87266   0.38286   0.00000  Uiso   1.00
O612   O     0.08295   0.86125   0.34763   0.00000  Uiso   1.00
O613   O     0.08505   0.91314   0.40184   0.00000  Uiso   1.00
H614   H     0.06281   0.93007   0.38309   0.00000  Uiso   1.00
C615   C     0.23032   0.78144   0.12544   0.00000  Uiso   1.00
O616   O     0.25289   0.80064   0.15097   0.00000  Uiso   1.00
O617   O     0.23169   0.73436   0.12459   0.00000  Uiso   1.00
H618   H     0.25301   0.71990   0.14626   0.00000  Uiso   1.00
C619   C     0.05158   0.82952   0.44834   0.00000  Uiso   1.00
O620   O     0.02250   0.85615   0.45328   0.00000  Uiso   1.00
O621   O     0.04905   0.79561   0.41707   0.00000  Uiso   1.00
H622   H     0.02215   0.79749   0.39952   0.00000  Uiso   1.00
C623   C     0.27517   0.77569   0.04882   0.00000  Uiso   1.00
O624   O     0.29309   0.80464   0.06838   0.00000  Uiso   1.00
O625   O     0.29133   0.73123   0.04867   0.00000  Uiso   1.00
H626   H     0.31792   0.72676   0.06656   0.00000  Uiso   1.00
C627   C     0.05271   0.82175   0.04420   0.00000  Uiso   1.00
O628   O     0.02374   0.84929   0.04306   0.00000  Uiso   1.00
O629   O     0.05224   0.78233   0.07073   0.00000  Uiso   1.00
H630   H     0.02907   0.78262   0.09238   0.00000  Uiso   1.00
C631   C     0.26717   0.75857   0.45674   0.00000  Uiso   1.00
O632   O     0.30215   0.77088   0.45719   0.00000  Uiso   1.00
O633   O     0.25856   0.71809   0.43670   0.00000  Uiso   1.00
H634   H     0.22901   0.71027   0.43998   0.00000  Uiso   1.00
C635   C     0.04745   0.75733   0.29158   0.00000  Uiso   1.00
O636   O     0.06477   0.76311   0.32736   0.00000  Uiso   1.00
O637   O     0.05139   0.71501   0.27231   0.00000  Uiso   1.00
H638   H     0.03840   0.71466   0.24128   0.00000  Uiso   1.00
C639   C     0.28615   0.90716   0.20529   0.00000  Uiso   1.00
O640   O     0.28411   0.94536   0.21958   0.00000  Uiso   1.00
O641   O     0.26480   0.89738   0.16603   0.00000  Uiso   1.00
H642   H     0.24896   0.92474   0.15238   0.00000  Uiso   1.00
C643   C     0.29693   0.74833   0.27061   0.00000  Uiso   1.00
O644   O     0.30005   0.73092   0.30804   0.00000  Uiso   1.00
O645   O     0.27901   0.72548   0.23557   0.00000  Uiso   1.00
H646   H     0.26881   0.69532   0.24562   0.00000  Uiso   1.00
C647   C     0.03576   0.91933   0.23317   0.00000  Uiso   1.00
O648   O     0.05096   0.93764   0.26524   0.00000  Uiso   1.00
O649   O     0.03236   0.94190   0.19161   0.00000  Uiso   1.00
H650   H     0.04228   0.97365   0.19268   0.00000  Uiso   1.00
C651   C     0.20818   0.70992   0.31822   0.00000  Uiso   1.00
N652   N     0.22436   0.72632   0.34788   0.00000  Uiso   1.00
C653   C     0.12759   0.95794   0.17956   0.00000  Uiso   1.00
N654   N     0.11316   0.94341   0.14783   0.00000  Uiso   1.00
C655   C     0.11930   0.71936   0.18634   0.00000  Uiso   1.00
N656   N     0.09863   0.74014   0.16065   0.00000  Uiso   1.00
C657   C     0.21413   0.94762   0.31374   0.00000  Uiso   1.00
N658   N     0.23489   0.92698   0.33945   0.00000  Uiso   1.00
C659   C     0.41996   0.83432   0.25189   0.00000  Uiso   1.00
C660   C     0.58004   0.83232   0.24799   0.00000  Uiso   1.00
C661   C     0.42395   0.83172   0.02114   0.00000  Uiso   1.00
C662   C     0.56783   0.78585   0.47884   0.00000  Uiso   1.00
C663   C     0.35680   0.79582   0.26861   0.00000  Uiso   1.00
C664   C     0.64333   0.87027   0.23057   0.00000  Uiso   1.00
C665   C     0.64820   0.79249   0.26142   0.00000  Uiso   1.00
C666   C     0.35171   0.87427   0.23932   0.00000  Uiso   1.00
C667   C     0.62450   0.83063   0.24468   0.00000  Uiso   1.00
C668   C     0.37554   0.83582   0.25523   0.00000  Uiso   1.00
C669   C     0.52121   0.68847   0.28220   0.00000  Uiso   1.00
C670   C     0.47912   0.97839   0.21752   0.00000  Uiso   1.00
C671   C     0.47805   0.69293   0.21836   0.00000  Uiso   1.00
C672   C     0.52192   0.97387   0.28173   0.00000  Uiso   1.00
C673   C     0.50062   0.83342   0.16357   0.00000  Uiso   1.00
C674   C     0.50004   0.83289   0.33644   0.00000  Uiso   1.00
C675   C     0.53545   0.81526   0.40780   0.00000  Uiso   1.00
C676   C     0.46385   0.83989   0.09169   0.00000  Uiso   1.00
C677   C     0.49996   0.83131   0.38449   0.00000  Uiso   1.00
C678   C     0.50082   0.83139   0.11541   0.00000  Uiso   1.00
C679   C     0.46400   0.84335   0.40641   0.00000  Uiso   1.00
C680   C     0.53382   0.80800   0.09566   0.00000  Uiso   1.00
C681   C     0.46168   0.83301   0.45234   0.00000  Uiso   1.00
C682   C     0.53435   0.80502   0.04856   0.00000  Uiso   1.00
C683   C     0.49793   0.81872   0.47669   0.00000  Uiso   1.00
C684   C     0.49806   0.81822   0.02365   0.00000  Uiso   1.00
C685   C     0.53414   0.80626   0.45416   0.00000  Uiso   1.00
C686   C     0.46155   0.83059   0.04569   0.00000  Uiso   1.00
C687   C     0.42385   0.83391   0.47425   0.00000  Uiso   1.00
C688   C     0.56912   0.78801   0.02556   0.00000  Uiso   1.00
N689   N     0.50000   0.95240   0.25000   0.00000  Uiso   1.00
N690   N     0.50000   0.71427   0.25000   0.00000  Uiso   1.00
O691   O     0.43892   0.87154   0.25000   0.00000  Uiso   1.00
O692   O     0.56108   0.79513   0.25000   0.00000  Uiso   1.00
O693   O     0.56108   0.87154   0.25000   0.00000  Uiso   1.00
O694   O     0.43892   0.79513   0.24999   0.00000  Uiso   1.00
O695   O     0.49999   0.87156   0.18392   0.00000  Uiso   1.00
O696   O     0.50001   0.79511   0.31607   0.00000  Uiso   1.00
O697   O     0.50001   0.87156   0.31607   0.00000  Uiso   1.00
O698   O     0.49999   0.79511   0.18392   0.00000  Uiso   1.00
Zn699  Zn    0.50000   0.88437   0.25000   0.00000  Uiso   1.00
Zn700  Zn    0.50000   0.78229   0.25000   0.00000  Uiso   1.00
C701   C     0.57395   0.81636   0.38469   0.00000  Uiso   1.00
N702   N     0.60443   0.81764   0.36608   0.00000  Uiso   1.00
C703   C     0.42810   0.85480   0.11625   0.00000  Uiso   1.00
N704   N     0.39952   0.86582   0.13597   0.00000  Uiso   1.00
C705   C     0.43163   0.87266   0.38286   0.00000  Uiso   1.00
O706   O     0.41628   0.86125   0.34763   0.00000  Uiso   1.00
O707   O     0.41838   0.91314   0.40184   0.00000  Uiso   1.00
H708   H     0.39614   0.93007   0.38309   0.00000  Uiso   1.00
C709   C     0.56365   0.78144   0.12544   0.00000  Uiso   1.00
O710   O     0.58623   0.80064   0.15097   0.00000  Uiso   1.00
O711   O     0.56503   0.73436   0.12459   0.00000  Uiso   1.00
H712   H     0.58635   0.71990   0.14626   0.00000  Uiso   1.00
C713   C     0.38492   0.82952   0.44834   0.00000  Uiso   1.00
O714   O     0.35583   0.85615   0.45328   0.00000  Uiso   1.00
O715   O     0.38239   0.79561   0.41707   0.00000  Uiso   1.00
H716   H     0.35548   0.79749   0.39952   0.00000  Uiso   1.00
C717   C     0.60850   0.77569   0.04882   0.00000  Uiso   1.00
O718   O     0.62642   0.80464   0.06838   0.00000  Uiso   1.00
O719   O     0.62467   0.73123   0.04867   0.00000  Uiso   1.00
H720   H     0.65126   0.72676   0.06656   0.00000  Uiso   1.00
C721   C     0.38604   0.82175   0.04420   0.00000  Uiso   1.00
O722   O     0.35708   0.84929   0.04306   0.00000  Uiso   1.00
O723   O     0.38558   0.78233   0.07073   0.00000  Uiso   1.00
H724   H     0.36240   0.78262   0.09238   0.00000  Uiso   1.00
C725   C     0.60050   0.75857   0.45674   0.00000  Uiso   1.00
O726   O     0.63548   0.77088   0.45719   0.00000  Uiso   1.00
O727   O     0.59190   0.71809   0.43670   0.00000  Uiso   1.00
H728   H     0.56234   0.71027   0.43998   0.00000  Uiso   1.00
C729   C     0.38078   0.75733   0.29158   0.00000  Uiso   1.00
O730   O     0.39810   0.76311   0.32736   0.00000  Uiso   1.00
O731   O     0.38473   0.71501   0.27231   0.00000  Uiso   1.00
H732   H     0.37173   0.71466   0.24128   0.00000  Uiso   1.00
C733   C     0.61949   0.90716   0.20529   0.00000  Uiso   1.00
O734   O     0.61745   0.94536   0.21958   0.00000  Uiso   1.00
O735   O     0.59813   0.89738   0.16603   0.00000  Uiso   1.00
H736   H     0.58229   0.92474   0.15238   0.00000  Uiso   1.00
C737   C     0.63027   0.74833   0.27061   0.00000  Uiso   1.00
O738   O     0.63338   0.73092   0.30804   0.00000  Uiso   1.00
O739   O     0.61234   0.72548   0.23557   0.00000  Uiso   1.00
H740   H     0.60215   0.69532   0.24562   0.00000  Uiso   1.00
C741   C     0.36910   0.91933   0.23317   0.00000  Uiso   1.00
O742   O     0.38430   0.93764   0.26524   0.00000  Uiso   1.00
O743   O     0.36570   0.94190   0.19161   0.00000  Uiso   1.00
H744   H     0.37562   0.97365   0.19268   0.00000  Uiso   1.00
C745   C     0.54152   0.70992   0.31822   0.00000  Uiso   1.00
N746   N     0.55769   0.72632   0.34788   0.00000  Uiso   1.00
C747   C     0.46092   0.95794   0.17956   0.00000  Uiso   1.00
N748   N     0.44649   0.94341   0.14783   0.00000  Uiso   1.00
C749   C     0.45263   0.71936   0.18634   0.00000  Uiso   1.00
N750   N     0.43196   0.74014   0.16065   0.00000  Uiso   1.00
C751   C     0.54746   0.94762   0.31374   0.00000  Uiso   1.00
N752   N     0.56822   0.92698   0.33945   0.00000  Uiso   1.00
C753   C     0.75330   0.83432   0.25189   0.00000  Uiso   1.00
C754   C     0.91337   0.83232   0.24799   0.00000  Uiso   1.00
C755   C     0.75728   0.83172   0.02114   0.00000  Uiso   1.00
C756   C     0.90117   0.78585   0.47884   0.00000  Uiso   1.00
C757   C     0.69013   0.79582   0.26861   0.00000  Uiso   1.00
C758   C     0.97667   0.87027   0.23057   0.00000  Uiso   1.00
C759   C     0.98153   0.79249   0.26142   0.00000  Uiso   1.00
C760   C     0.68504   0.87427   0.23932   0.00000  Uiso   1.00
C761   C     0.95783   0.83063   0.24468   0.00000  Uiso   1.00
C762   C     0.70887   0.83582   0.25523   0.00000  Uiso   1.00
C763   C     0.85455   0.68847   0.28220   0.00000  Uiso   1.00
C764   C     0.81246   0.97839   0.21752   0.00000  Uiso   1.00
C765   C     0.81139   0.69293   0.21836   0.00000  Uiso   1.00
C766   C     0.85525   0.97387   0.28173   0.00000  Uiso   1.00
C767   C     0.83395   0.83342   0.16357   0.00000  Uiso   1.00
C768   C     0.83338   0.83289   0.33644   0.00000  Uiso   1.00
C769   C     0.86878   0.81526   0.40780   0.00000  Uiso   1.00
C770   C     0.79718   0.83989   0.09169   0.00000  Uiso   1.00
C771   C     0.83330   0.83131   0.38449   0.00000  Uiso   1.00
C772   C     0.83415   0.83139   0.11541   0.00000  Uiso   1.00
C773   C     0.79733   0.84335   0.40641   0.00000  Uiso   1.00
C774   C     0.86715   0.80800   0.09566   0.00000  Uiso   1.00
C775   C     0.79502   0.83301   0.45234   0.00000  Uiso   1.00
C776   C     0.86768   0.80502   0.04856   0.00000  Uiso   1.00
C777   C     0.83127   0.81872   0.47669   0.00000  Uiso   1.00
C778   C     0.83139   0.81822   0.02365   0.00000  Uiso   1.00
C779   C     0.86747   0.80626   0.45416   0.00000  Uiso   1.00
C780   C     0.79488   0.83059   0.04569   0.00000  Uiso   1.00
C781   C     0.75718   0.83391   0.47425   0.00000  Uiso   1.00
C782   C     0.90245   0.78801   0.02556   0.00000  Uiso   1.00
N783   N     0.83333   0.95240   0.25000   0.00000  Uiso   1.00
N784   N     0.83333   0.71427   0.25000   0.00000  Uiso   1.00
O785   O     0.77226   0.87154   0.25000   0.00000  Uiso   1.00
O786   O     0.89441   0.79513   0.25000   0.00000  Uiso   1.00
O787   O     0.89441   0.87154   0.25000   0.00000  Uiso   1.00
O788   O     0.77226   0.79513   0.24999   0.00000  Uiso   1.00
O789   O     0.83333   0.87156   0.18392   0.00000  Uiso   1.00
O790   O     0.83334   0.79511   0.31607   0.00000  Uiso   1.00
O791   O     0.83334   0.87156   0.31607   0.00000  Uiso   1.00
O792   O     0.83333   0.79511   0.18392   0.00000  Uiso   1.00
Zn793  Zn    0.83333   0.88437   0.25000   0.00000  Uiso   1.00
Zn794  Zn    0.83333   0.78229   0.25000   0.00000  Uiso   1.00
C795   C     0.90729   0.81636   0.38469   0.00000  Uiso   1.00
N796   N     0.93777   0.81764   0.36608   0.00000  Uiso   1.00
C797   C     0.76143   0.85480   0.11625   0.00000  Uiso   1.00
N798   N     0.73285   0.86582   0.13597   0.00000  Uiso   1.00
C799   C     0.76497   0.87266   0.38286   0.00000  Uiso   1.00
O800   O     0.74961   0.86125   0.34763   0.00000  Uiso   1.00
O801   O     0.75171   0.91314   0.40184   0.00000  Uiso   1.00
H802   H     0.72948   0.93007   0.38309   0.00000  Uiso   1.00
C803   C     0.89699   0.78144   0.12544   0.00000  Uiso   1.00
O804   O     0.91956   0.80064   0.15097   0.00000  Uiso   1.00
O805   O     0.89836   0.73436   0.12459   0.00000  Uiso   1.00
H806   H     0.91968   0.71990   0.14626   0.00000  Uiso   1.00
C807   C     0.71825   0.82952   0.44834   0.00000  Uiso   1.00
O808   O     0.68917   0.85615   0.45328   0.00000  Uiso   1.00
O809   O     0.71572   0.79561   0.41707   0.00000  Uiso   1.00
H810   H     0.68882   0.79749   0.39952   0.00000  Uiso   1.00
C811   C     0.94184   0.77569   0.04882   0.00000  Uiso   1.00
O812   O     0.95975   0.80464   0.06838   0.00000  Uiso   1.00
O813   O     0.95800   0.73123   0.04867   0.00000  Uiso   1.00
H814   H     0.98459   0.72676   0.06656   0.00000  Uiso   1.00
C815   C     0.71938   0.82175   0.04420   0.00000  Uiso   1.00
O816   O     0.69041   0.84929   0.04306   0.00000  Uiso   1.00
O817   O     0.71891   0.78233   0.07073   0.00000  Uiso   1.00
H818   H     0.69574   0.78262   0.09238   0.00000  Uiso   1.00
C819   C     0.93384   0.75857   0.45674   0.00000  Uiso   1.00
O820   O     0.96882   0.77088   0.45719   0.00000  Uiso   1.00
O821   O     0.92523   0.71809   0.43670   0.00000  Uiso   1.00
H822   H     0.89567   0.71027   0.43998   0.00000  Uiso   1.00
C823   C     0.71412   0.75733   0.29158   0.00000  Uiso   1.00
O824   O     0.73143   0.76311   0.32736   0.00000  Uiso   1.00
O825   O     0.71806   0.71501   0.27231   0.00000  Uiso   1.00
H826   H     0.70506   0.71466   0.24128   0.00000  Uiso   1.00
C827   C     0.95282   0.90716   0.20529   0.00000  Uiso   1.00
O828   O     0.95078   0.94536   0.21958   0.00000  Uiso   1.00
O829   O     0.93147   0.89738   0.16603   0.00000  Uiso   1.00
H830   H     0.91562   0.92474   0.15238   0.00000  Uiso   1.00
C831   C     0.96360   0.74833   0.27061   0.00000  Uiso   1.00
O832   O     0.96672   0.73092   0.30804   0.00000  Uiso   1.00
O833   O     0.94567   0.72548   0.23557   0.00000  Uiso   1.00
H834   H     0.93548   0.69532   0.24562   0.00000  Uiso   1.00
C835   C     0.70243   0.91933   0.23317   0.00000  Uiso   1.00
O836   O     0.71763   0.93764   0.26524   0.00000  Uiso   1.00
O837   O     0.69903   0.94190   0.19161   0.00000  Uiso   1.00
H838   H     0.70895   0.97365   0.19268   0.00000  Uiso   1.00
C839   C     0.87485   0.70992   0.31822   0.00000  Uiso   1.00
N840   N     0.89103   0.72632   0.34788   0.00000  Uiso   1.00
C841   C     0.79425   0.95794   0.17956   0.00000  Uiso   1.00
N842   N     0.77982   0.94341   0.14783   0.00000  Uiso   1.00
C843   C     0.78596   0.71936   0.18634   0.00000  Uiso   1.00
N844   N     0.76529   0.74014   0.16065   0.00000  Uiso   1.00
C845   C     0.88079   0.94762   0.31374   0.00000  Uiso   1.00
N846   N     0.90156   0.92698   0.33945   0.00000  Uiso   1.00
C847   C     0.08663   0.16765   0.75189   0.00000  Uiso   1.00
C848   C     0.24670   0.16565   0.74799   0.00000  Uiso   1.00
C849   C     0.09061   0.16506   0.52114   0.00000  Uiso   1.00
C850   C     0.23450   0.11919   0.97884   0.00000  Uiso   1.00
C851   C     0.02347   0.12915   0.76861   0.00000  Uiso   1.00
C852   C     0.31000   0.20361   0.73057   0.00000  Uiso   1.00
C853   C     0.31487   0.12583   0.76142   0.00000  Uiso   1.00
C854   C     0.01838   0.20761   0.73932   0.00000  Uiso   1.00
C855   C     0.29117   0.16396   0.74468   0.00000  Uiso   1.00
C856   C     0.04220   0.16915   0.75523   0.00000  Uiso   1.00
C857   C     0.18788   0.02180   0.78220   0.00000  Uiso   1.00
C858   C     0.14579   0.31172   0.71752   0.00000  Uiso   1.00
C859   C     0.14472   0.02626   0.71836   0.00000  Uiso   1.00
C860   C     0.18859   0.30720   0.78173   0.00000  Uiso   1.00
C861   C     0.16729   0.16675   0.66357   0.00000  Uiso   1.00
C862   C     0.16671   0.16622   0.83644   0.00000  Uiso   1.00
C863   C     0.20211   0.14860   0.90780   0.00000  Uiso   1.00
C864   C     0.13051   0.17322   0.59169   0.00000  Uiso   1.00
C865   C     0.16663   0.16464   0.88449   0.00000  Uiso   1.00
C866   C     0.16749   0.16473   0.61541   0.00000  Uiso   1.00
C867   C     0.13067   0.17668   0.90641   0.00000  Uiso   1.00
C868   C     0.20048   0.14134   0.59566   0.00000  Uiso   1.00
C869   C     0.12835   0.16634   0.95234   0.00000  Uiso   1.00
C870   C     0.20101   0.13835   0.54856   0.00000  Uiso   1.00
C871   C     0.16460   0.15205   0.97669   0.00000  Uiso   1.00
C872   C     0.16473   0.15155   0.52365   0.00000  Uiso   1.00
C873   C     0.20080   0.13959   0.95416   0.00000  Uiso   1.00
C874   C     0.12822   0.16393   0.54569   0.00000  Uiso   1.00
C875   C     0.09052   0.16725   0.97425   0.00000  Uiso   1.00
C876   C     0.23578   0.12134   0.52556   0.00000  Uiso   1.00
N877   N     0.16667   0.28573   0.75000   0.00000  Uiso   1.00
N878   N     0.16667   0.04760   0.75000   0.00000  Uiso   1.00
O879   O     0.10559   0.20487   0.75000   0.00000  Uiso   1.00
O880   O     0.22774   0.12846   0.75000   0.00000  Uiso   1.00
O881   O     0.22774   0.20487   0.75000   0.00000  Uiso   1.00
O882   O     0.10559   0.12846   0.74999   0.00000  Uiso   1.00
O883   O     0.16666   0.20489   0.68392   0.00000  Uiso   1.00
O884   O     0.16667   0.12844   0.81607   0.00000  Uiso   1.00
O885   O     0.16667   0.20489   0.81607   0.00000  Uiso   1.00
O886   O     0.16666   0.12844   0.68392   0.00000  Uiso   1.00
Zn887  Zn    0.16667   0.21771   0.75000   0.00000  Uiso   1.00
Zn888  Zn    0.16667   0.11563   0.75000   0.00000  Uiso   1.00
C889   C     0.24062   0.14970   0.88469   0.00000  Uiso   1.00
N890   N     0.27110   0.15098   0.86608   0.00000  Uiso   1.00
C891   C     0.09476   0.18814   0.61625   0.00000  Uiso   1.00
N892   N     0.06618   0.19915   0.63597   0.00000  Uiso   1.00
C893   C     0.09830   0.20599   0.88286   0.00000  Uiso   1.00
O894   O     0.08295   0.19459   0.84763   0.00000  Uiso   1.00
O895   O     0.08505   0.24648   0.90184   0.00000  Uiso   1.00
H896   H     0.06281   0.26341   0.88309   0.00000  Uiso   1.00
C897   C     0.23032   0.11477   0.62544   0.00000  Uiso   1.00
O898   O     0.25289   0.13397   0.65097   0.00000  Uiso   1.00
O899   O     0.23169   0.06769   0.62459   0.00000  Uiso   1.00
H900   H     0.25301   0.05324   0.64626   0.00000  Uiso   1.00
C901   C     0.05158   0.16286   0.94834   0.00000  Uiso   1.00
O902   O     0.02250   0.18949   0.95328   0.00000  Uiso   1.00
O903   O     0.04905   0.12894   0.91707   0.00000  Uiso   1.00
H904   H     0.02215   0.13082   0.89952   0.00000  Uiso   1.00
C905   C     0.27517   0.10902   0.54882   0.00000  Uiso   1.00
O906   O     0.29309   0.13797   0.56838   0.00000  Uiso   1.00
O907   O     0.29133   0.06456   0.54867   0.00000  Uiso   1.00
H908   H     0.31792   0.06009   0.56656   0.00000  Uiso   1.00
C909   C     0.05271   0.15508   0.54420   0.00000  Uiso   1.00
O910   O     0.02374   0.18262   0.54306   0.00000  Uiso   1.00
O911   O     0.05224   0.11567   0.57073   0.00000  Uiso   1.00
H912   H     0.02907   0.11595   0.59238   0.00000  Uiso   1.00
C913   C     0.26717   0.09190   0.95674   0.00000  Uiso   1.00
O914   O     0.30215   0.10421   0.95719   0.00000  Uiso   1.00
O915   O     0.25856   0.05143   0.93670   0.00000  Uiso   1.00
H916   H     0.22901   0.04360   0.93998   0.00000  Uiso   1.00
C917   C     0.04745   0.09066   0.79158   0.00000  Uiso   1.00
O918   O     0.06477   0.09645   0.82736   0.00000  Uiso   1.00
O919   O     0.05139   0.04835   0.77231   0.00000  Uiso   1.00
H920   H     0.03840   0.04800   0.74128   0.00000  Uiso   1.00
C921   C     0.28615   0.24049   0.70529   0.00000  Uiso   1.00
O922   O     0.28411   0.27869   0.71958   0.00000  Uiso   1.00
O923   O     0.26480   0.23072   0.66603   0.00000  Uiso   1.00
H924   H     0.24896   0.25808   0.65238   0.00000  Uiso   1.00
C925   C     0.29693   0.08167   0.77061   0.00000  Uiso   1.00
O926   O     0.30005   0.06425   0.80804   0.00000  Uiso   1.00
O927   O     0.27901   0.05881   0.73557   0.00000  Uiso   1.00
H928   H     0.26881   0.02866   0.74562   0.00000  Uiso   1.00
C929   C     0.03576   0.25267   0.73317   0.00000  Uiso   1.00
O930   O     0.05096   0.27097   0.76524   0.00000  Uiso   1.00
O931   O     0.03236   0.27524   0.69161   0.00000  Uiso   1.00
H932   H     0.04228   0.30699   0.69268   0.00000  Uiso   1.00
C933   C     0.20818   0.04326   0.81822   0.00000  Uiso   1.00
N934   N     0.22436   0.05965   0.84788   0.00000  Uiso   1.00
C935   C     0.12759   0.29128   0.67956   0.00000  Uiso   1.00
N936   N     0.11316   0.27674   0.64783   0.00000  Uiso   1.00
C937   C     0.11930   0.05269   0.68634   0.00000  Uiso   1.00
N938   N     0.09863   0.07347   0.66065   0.00000  Uiso   1.00
C939   C     0.21413   0.28095   0.81374   0.00000  Uiso   1.00
N940   N     0.23489   0.26032   0.83945   0.00000  Uiso   1.00
C941   C     0.41996   0.16765   0.75189   0.00000  Uiso   1.00
C942   C     0.58004   0.16565   0.74799   0.00000  Uiso   1.00
C943   C     0.42395   0.16506   0.52114   0.00000  Uiso   1.00
C944   C     0.56783   0.11919   0.97884   0.00000  Uiso   1.00
C945   C     0.35680   0.12915   0.76861   0.00000  Uiso   1.00
C946   C     0.64333   0.20361   0.73057   0.00000  Uiso   1.00
C947   C     0.64820   0.12583   0.76142   0.00000  Uiso   1.00
C948   C     0.35171   0.20761   0.73932   0.00000  Uiso   1.00
C949   C     0.62450   0.16396   0.74468   0.00000  Uiso   1.00
C950   C     0.37554   0.16915   0.75523   0.00000  Uiso   1.00
C951   C     0.52121   0.02180   0.78220   0.00000  Uiso   1.00
C952   C     0.47912   0.31172   0.71752   0.00000  Uiso   1.00
C953   C     0.47805   0.02626   0.71836   0.00000  Uiso   1.00
C954   C     0.52192   0.30720   0.78173   0.00000  Uiso   1.00
C955   C     0.50062   0.16675   0.66357   0.00000  Uiso   1.00
C956   C     0.50004   0.16622   0.83644   0.00000  Uiso   1.00
C957   C     0.53545   0.14860   0.90780   0.00000  Uiso   1.00
C958   C     0.46385   0.17322   0.59169   0.00000  Uiso   1.00
C959   C     0.49996   0.16464   0.88449   0.00000  Uiso   1.00
C960   C     0.50082   0.16473   0.61541   0.00000  Uiso   1.00
C961   C     0.46400   0.17668   0.90641   0.00000  Uiso   1.00
C962   C     0.53382   0.14134   0.59566   0.00000  Uiso   1.00
C963   C     0.46168   0.16634   0.95234   0.00000  Uiso   1.00
C964   C     0.53435   0.13835   0.54856   0.00000  Uiso   1.00
C965   C     0.49793   0.15205   0.97669   0.00000  Uiso   1.00
C966   C     0.49806   0.15155   0.52365   0.00000  Uiso   1.00
C967   C     0.53414   0.13959   0.95416   0.00000  Uiso   1.00
C968   C     0.46155   0.16393   0.54569   0.00000  Uiso   1.00
C969   C     0.42385   0.16725   0.97425   0.00000  Uiso   1.00
C970   C     0.56912   0.12134   0.52556   0.00000  Uiso   1.00
N971   N     0.50000   0.28573   0.75000   0.00000  Uiso   1.00
N972   N     0.50000   0.04760   0.75000   0.00000  Uiso   1.00
O973   O     0.43892   0.20487   0.75000   0.00000  Uiso   1.00
O974   O     0.56108   0.12846   0.75000   0.00000  Uiso   1.00
O975   O     0.56108   0.20487   0.75000   0.00000  Uiso   1.00
O976   O     0.43892   0.12846   0.74999   0.00000  Uiso   1.00
O977   O     0.49999   0.20489   0.68392   0.00000  Uiso   1.00
O978   O     0.50001   0.12844   0.81607   0.00000  Uiso   1.00
O979   O     0.50001   0.20489   0.81607   0.00000  Uiso   1.00
O980   O     0.49999   0.12844   0.68392   0.00000  Uiso   1.00
Zn981  Zn    0.50000   0.21771   0.75000   0.00000  Uiso   1.00
Zn982  Zn    0.50000   0.11563   0.75000   0.00000  Uiso   1.00
C983   C     0.57395   0.14970   0.88469   0.00000  Uiso   1.00
N984   N     0.60443   0.15098   0.86608   0.00000  Uiso   1.00
C985   C     0.42810   0.18814   0.61625   0.00000  Uiso   1.00
N986   N     0.39952   0.19915   0.63597   0.00000  Uiso   1.00
C987   C     0.43163   0.20599   0.88286   0.00000  Uiso   1.00
O988   O     0.41628   0.19459   0.84763   0.00000  Uiso   1.00
O989   O     0.41838   0.24648   0.90184   0.00000  Uiso   1.00
H990   H     0.39614   0.26341   0.88309   0.00000  Uiso   1.00
C991   C     0.56365   0.11477   0.62544   0.00000  Uiso   1.00
O992   O     0.58623   0.13397   0.65097   0.00000  Uiso   1.00
O993   O     0.56503   0.06769   0.62459   0.00000  Uiso   1.00
H994   H     0.58635   0.05324   0.64626   0.00000  Uiso   1.00
C995   C     0.38492   0.16286   0.94834   0.00000  Uiso   1.00
O996   O     0.35583   0.18949   0.95328   0.00000  Uiso   1.00
O997   O     0.38239   0.12894   0.91707   0.00000  Uiso   1.00
H998   H     0.35548   0.13082   0.89952   0.00000  Uiso   1.00
C999   C     0.60850   0.10902   0.54882   0.00000  Uiso   1.00
O1000  O     0.62642   0.13797   0.56838   0.00000  Uiso   1.00
O1001  O     0.62467   0.06456   0.54867   0.00000  Uiso   1.00
H1002  H     0.65126   0.06009   0.56656   0.00000  Uiso   1.00
C1003  C     0.38604   0.15508   0.54420   0.00000  Uiso   1.00
O1004  O     0.35708   0.18262   0.54306   0.00000  Uiso   1.00
O1005  O     0.38558   0.11567   0.57073   0.00000  Uiso   1.00
H1006  H     0.36240   0.11595   0.59238   0.00000  Uiso   1.00
C1007  C     0.60050   0.09190   0.95674   0.00000  Uiso   1.00
O1008  O     0.63548   0.10421   0.95719   0.00000  Uiso   1.00
O1009  O     0.59190   0.05143   0.93670   0.00000  Uiso   1.00
H1010  H     0.56234   0.04360   0.93998   0.00000  Uiso   1.00
C1011  C     0.38078   0.09066   0.79158   0.00000  Uiso   1.00
O1012  O     0.39810   0.09645   0.82736   0.00000  Uiso   1.00
O1013  O     0.38473   0.04835   0.77231   0.00000  Uiso   1.00
H1014  H     0.37173   0.04800   0.74128   0.00000  Uiso   1.00
C1015  C     0.61949   0.24049   0.70529   0.00000  Uiso   1.00
O1016  O     0.61745   0.27869   0.71958   0.00000  Uiso   1.00
O1017  O     0.59813   0.23072   0.66603   0.00000  Uiso   1.00
H1018  H     0.58229   0.25808   0.65238   0.00000  Uiso   1.00
C1019  C     0.63027   0.08167   0.77061   0.00000  Uiso   1.00
O1020  O     0.63338   0.06425   0.80804   0.00000  Uiso   1.00
O1021  O     0.61234   0.05881   0.73557   0.00000  Uiso   1.00
H1022  H     0.60215   0.02866   0.74562   0.00000  Uiso   1.00
C1023  C     0.36910   0.25267   0.73317   0.00000  Uiso   1.00
O1024  O     0.38430   0.27097   0.76524   0.00000  Uiso   1.00
O1025  O     0.36570   0.27524   0.69161   0.00000  Uiso   1.00
H1026  H     0.37562   0.30699   0.69268   0.00000  Uiso   1.00
C1027  C     0.54152   0.04326   0.81822   0.00000  Uiso   1.00
N1028  N     0.55769   0.05965   0.84788   0.00000  Uiso   1.00
C1029  C     0.46092   0.29128   0.67956   0.00000  Uiso   1.00
N1030  N     0.44649   0.27674   0.64783   0.00000  Uiso   1.00
C1031  C     0.45263   0.05269   0.68634   0.00000  Uiso   1.00
N1032  N     0.43196   0.07347   0.66065   0.00000  Uiso   1.00
C1033  C     0.54746   0.28095   0.81374   0.00000  Uiso   1.00
N1034  N     0.56822   0.26032   0.83945   0.00000  Uiso   1.00
C1035  C     0.75330   0.16765   0.75189   0.00000  Uiso   1.00
C1036  C     0.91337   0.16565   0.74799   0.00000  Uiso   1.00
C1037  C     0.75728   0.16506   0.52114   0.00000  Uiso   1.00
C1038  C     0.90117   0.11919   0.97884   0.00000  Uiso   1.00
C1039  C     0.69013   0.12915   0.76861   0.00000  Uiso   1.00
C1040  C     0.97667   0.20361   0.73057   0.00000  Uiso   1.00
C1041  C     0.98153   0.12583   0.76142   0.00000  Uiso   1.00
C1042  C     0.68504   0.20761   0.73932   0.00000  Uiso   1.00
C1043  C     0.95783   0.16396   0.74468   0.00000  Uiso   1.00
C1044  C     0.70887   0.16915   0.75523   0.00000  Uiso   1.00
C1045  C     0.85455   0.02180   0.78220   0.00000  Uiso   1.00
C1046  C     0.81246   0.31172   0.71752   0.00000  Uiso   1.00
C1047  C     0.81139   0.02626   0.71836   0.00000  Uiso   1.00
C1048  C     0.85525   0.30720   0.78173   0.00000  Uiso   1.00
C1049  C     0.83395   0.16675   0.66357   0.00000  Uiso   1.00
C1050  C     0.83338   0.16622   0.83644   0.00000  Uiso   1.00
C1051  C     0.86878   0.14860   0.90780   0.00000  Uiso   1.00
C1052  C     0.79718   0.17322   0.59169   0.00000  Uiso   1.00
C1053  C     0.83330   0.16464   0.88449   0.00000  Uiso   1.00
C1054  C     0.83415   0.16473   0.61541   0.00000  Uiso   1.00
C1055  C     0.79733   0.17668   0.90641   0.00000  Uiso   1.00
C1056  C     0.86715   0.14134   0.59566   0.00000  Uiso   1.00
C1057  C     0.79502   0.16634   0.95234   0.00000  Uiso   1.00
C1058  C     0.86768   0.13835   0.54856   0.00000  Uiso   1.00
C1059  C     0.83127   0.15205   0.97669   0.00000  Uiso   1.00
C1060  C     0.83139   0.15155   0.52365   0.00000  Uiso   1.00
C1061  C     0.86747   0.13959   0.95416   0.00000  Uiso   1.00
C1062  C     0.79488   0.16393   0.54569   0.00000  Uiso   1.00
C1063  C     0.75718   0.16725   0.97425   0.00000  Uiso   1.00
C1064  C     0.90245   0.12134   0.52556   0.00000  Uiso   1.00
N1065  N     0.83333   0.28573   0.75000   0.00000  Uiso   1.00
N1066  N     0.83333   0.04760   0.75000   0.00000  Uiso   1.00
O1067  O     0.77226   0.20487   0.75000   0.00000  Uiso   1.00
O1068  O     0.89441   0.12846   0.75000   0.00000  Uiso   1.00
O1069  O     0.89441   0.20487   0.75000   0.00000  Uiso   1.00
O1070  O     0.77226   0.12846   0.74999   0.00000  Uiso   1.00
O1071  O     0.83333   0.20489   0.68392   0.00000  Uiso   1.00
O1072  O     0.83334   0.12844   0.81607   0.00000  Uiso   1.00
O1073  O     0.83334   0.20489   0.81607   0.00000  Uiso   1.00
O1074  O     0.83333   0.12844   0.68392   0.00000  Uiso   1.00
Zn1075 Zn    0.83333   0.21771   0.75000   0.00000  Uiso   1.00
Zn1076 Zn    0.83333   0.11563   0.75000   0.00000  Uiso   1.00
C1077  C     0.90729   0.14970   0.88469   0.00000  Uiso   1.00
N1078  N     0.93777   0.15098   0.86608   0.00000  Uiso   1.00
C1079  C     0.76143   0.18814   0.61625   0.00000  Uiso   1.00
N1080  N     0.73285   0.19915   0.63597   0.00000  Uiso   1.00
C1081  C     0.76497   0.20599   0.88286   0.00000  Uiso   1.00
O1082  O     0.74961   0.19459   0.84763   0.00000  Uiso   1.00
O1083  O     0.75171   0.24648   0.90184   0.00000  Uiso   1.00
H1084  H     0.72948   0.26341   0.88309   0.00000  Uiso   1.00
C1085  C     0.89699   0.11477   0.62544   0.00000  Uiso   1.00
O1086  O     0.91956   0.13397   0.65097   0.00000  Uiso   1.00
O1087  O     0.89836   0.06769   0.62459   0.00000  Uiso   1.00
H1088  H     0.91968   0.05324   0.64626   0.00000  Uiso   1.00
C1089  C     0.71825   0.16286   0.94834   0.00000  Uiso   1.00
O1090  O     0.68917   0.18949   0.95328   0.00000  Uiso   1.00
O1091  O     0.71572   0.12894   0.91707   0.00000  Uiso   1.00
H1092  H     0.68882   0.13082   0.89952   0.00000  Uiso   1.00
C1093  C     0.94184   0.10902   0.54882   0.00000  Uiso   1.00
O1094  O     0.95975   0.13797   0.56838   0.00000  Uiso   1.00
O1095  O     0.95800   0.06456   0.54867   0.00000  Uiso   1.00
H1096  H     0.98459   0.06009   0.56656   0.00000  Uiso   1.00
C1097  C     0.71938   0.15508   0.54420   0.00000  Uiso   1.00
O1098  O     0.69041   0.18262   0.54306   0.00000  Uiso   1.00
O1099  O     0.71891   0.11567   0.57073   0.00000  Uiso   1.00
H1100  H     0.69574   0.11595   0.59238   0.00000  Uiso   1.00
C1101  C     0.93384   0.09190   0.95674   0.00000  Uiso   1.00
O1102  O     0.96882   0.10421   0.95719   0.00000  Uiso   1.00
O1103  O     0.92523   0.05143   0.93670   0.00000  Uiso   1.00
H1104  H     0.89567   0.04360   0.93998   0.00000  Uiso   1.00
C1105  C     0.71412   0.09066   0.79158   0.00000  Uiso   1.00
O1106  O     0.73143   0.09645   0.82736   0.00000  Uiso   1.00
O1107  O     0.71806   0.04835   0.77231   0.00000  Uiso   1.00
H1108  H     0.70506   0.04800   0.74128   0.00000  Uiso   1.00
C1109  C     0.95282   0.24049   0.70529   0.00000  Uiso   1.00
O1110  O     0.95078   0.27869   0.71958   0.00000  Uiso   1.00
O1111  O     0.93147   0.23072   0.66603   0.00000  Uiso   1.00
H1112  H     0.91562   0.25808   0.65238   0.00000  Uiso   1.00
C1113  C     0.96360   0.08167   0.77061   0.00000  Uiso   1.00
O1114  O     0.96672   0.06425   0.80804   0.00000  Uiso   1.00
O1115  O     0.94567   0.05881   0.73557   0.00000  Uiso   1.00
H1116  H     0.93548   0.02866   0.74562   0.00000  Uiso   1.00
C1117  C     0.70243   0.25267   0.73317   0.00000  Uiso   1.00
O1118  O     0.71763   0.27097   0.76524   0.00000  Uiso   1.00
O1119  O     0.69903   0.27524   0.69161   0.00000  Uiso   1.00
H1120  H     0.70895   0.30699   0.69268   0.00000  Uiso   1.00
C1121  C     0.87485   0.04326   0.81822   0.00000  Uiso   1.00
N1122  N     0.89103   0.05965   0.84788   0.00000  Uiso   1.00
C1123  C     0.79425   0.29128   0.67956   0.00000  Uiso   1.00
N1124  N     0.77982   0.27674   0.64783   0.00000  Uiso   1.00
C1125  C     0.78596   0.05269   0.68634   0.00000  Uiso   1.00
N1126  N     0.76529   0.07347   0.66065   0.00000  Uiso   1.00
C1127  C     0.88079   0.28095   0.81374   0.00000  Uiso   1.00
N1128  N     0.90156   0.26032   0.83945   0.00000  Uiso   1.00
C1129  C     0.08663   0.50098   0.75189   0.00000  Uiso   1.00
C1130  C     0.24670   0.49899   0.74799   0.00000  Uiso   1.00
C1131  C     0.09061   0.49839   0.52114   0.00000  Uiso   1.00
C1132  C     0.23450   0.45252   0.97884   0.00000  Uiso   1.00
C1133  C     0.02347   0.46249   0.76861   0.00000  Uiso   1.00
C1134  C     0.31000   0.53694   0.73057   0.00000  Uiso   1.00
C1135  C     0.31487   0.45916   0.76142   0.00000  Uiso   1.00
C1136  C     0.01838   0.54094   0.73932   0.00000  Uiso   1.00
C1137  C     0.29117   0.49730   0.74468   0.00000  Uiso   1.00
C1138  C     0.04220   0.50248   0.75523   0.00000  Uiso   1.00
C1139  C     0.18788   0.35514   0.78220   0.00000  Uiso   1.00
C1140  C     0.14579   0.64506   0.71752   0.00000  Uiso   1.00
C1141  C     0.14472   0.35959   0.71836   0.00000  Uiso   1.00
C1142  C     0.18859   0.64053   0.78173   0.00000  Uiso   1.00
C1143  C     0.16729   0.50008   0.66357   0.00000  Uiso   1.00
C1144  C     0.16671   0.49955   0.83644   0.00000  Uiso   1.00
C1145  C     0.20211   0.48193   0.90780   0.00000  Uiso   1.00
C1146  C     0.13051   0.50656   0.59169   0.00000  Uiso   1.00
C1147  C     0.16663   0.49797   0.88449   0.00000  Uiso   1.00
C1148  C     0.16749   0.49806   0.61541   0.00000  Uiso   1.00
C1149  C     0.13067   0.51001   0.90641   0.00000  Uiso   1.00
C1150  C     0.20048   0.47467   0.59566   0.00000  Uiso   1.00
C1151  C     0.12835   0.49967   0.95234   0.00000  Uiso   1.00
C1152  C     0.20101   0.47168   0.54856   0.00000  Uiso   1.00
C1153  C     0.16460   0.48539   0.97669   0.00000  Uiso   1.00
C1154  C     0.16473   0.48488   0.52365   0.00000  Uiso   1.00
C1155  C     0.20080   0.47292   0.95416   0.00000  Uiso   1.00
C1156  C     0.12822   0.49726   0.54569   0.00000  Uiso   1.00
C1157  C     0.09052   0.50058   0.97425   0.00000  Uiso   1.00
C1158  C     0.23578   0.45468   0.52556   0.00000  Uiso   1.00
N1159  N     0.16667   0.61907   0.75000   0.00000  Uiso   1.00
N1160  N     0.16667   0.38093   0.75000   0.00000  Uiso   1.00
O1161  O     0.10559   0.53821   0.75000   0.00000  Uiso   1.00
O1162  O     0.22774   0.46179   0.75000   0.00000  Uiso   1.00
O1163  O     0.22774   0.53821   0.75000   0.00000  Uiso   1.00
O1164  O     0.10559   0.46179   0.74999   0.00000  Uiso   1.00
O1165  O     0.16666   0.53823   0.68392   0.00000  Uiso   1.00
O1166  O     0.16667   0.46177   0.81607   0.00000  Uiso   1.00
O1167  O     0.16667   0.53823   0.81607   0.00000  Uiso   1.00
O1168  O     0.16666   0.46177   0.68392   0.00000  Uiso   1.00
Zn1169 Zn    0.16667   0.55104   0.75000   0.00000  Uiso   1.00
Zn1170 Zn    0.16667   0.44896   0.75000   0.00000  Uiso   1.00
C1171  C     0.24062   0.48303   0.88469   0.00000  Uiso   1.00
N1172  N     0.27110   0.48431   0.86608   0.00000  Uiso   1.00
C1173  C     0.09476   0.52147   0.61625   0.00000  Uiso   1.00
N1174  N     0.06618   0.53248   0.63597   0.00000  Uiso   1.00
C1175  C     0.09830   0.53933   0.88286   0.00000  Uiso   1.00
O1176  O     0.08295   0.52792   0.84763   0.00000  Uiso   1.00
O1177  O     0.08505   0.57981   0.90184   0.00000  Uiso   1.00
H1178  H     0.06281   0.59674   0.88309   0.00000  Uiso   1.00
C1179  C     0.23032   0.44810   0.62544   0.00000  Uiso   1.00
O1180  O     0.25289   0.46731   0.65097   0.00000  Uiso   1.00
O1181  O     0.23169   0.40102   0.62459   0.00000  Uiso   1.00
H1182  H     0.25301   0.38657   0.64626   0.00000  Uiso   1.00
C1183  C     0.05158   0.49619   0.94834   0.00000  Uiso   1.00
O1184  O     0.02250   0.52282   0.95328   0.00000  Uiso   1.00
O1185  O     0.04905   0.46228   0.91707   0.00000  Uiso   1.00
H1186  H     0.02215   0.46416   0.89952   0.00000  Uiso   1.00
C1187  C     0.27517   0.44235   0.54882   0.00000  Uiso   1.00
O1188  O     0.29309   0.47130   0.56838   0.00000  Uiso   1.00
O1189  O     0.29133   0.39790   0.54867   0.00000  Uiso   1.00
H1190  H     0.31792   0.39343   0.56656   0.00000  Uiso   1.00
C1191  C     0.05271   0.48841   0.54420   0.00000  Uiso   1.00
O1192  O     0.02374   0.51596   0.54306   0.00000  Uiso   1.00
O1193  O     0.05224   0.44900   0.57073   0.00000  Uiso   1.00
H1194  H     0.02907   0.44928   0.59238   0.00000  Uiso   1.00
C1195  C     0.26717   0.42524   0.95674   0.00000  Uiso   1.00
O1196  O     0.30215   0.43754   0.95719   0.00000  Uiso   1.00
O1197  O     0.25856   0.38476   0.93670   0.00000  Uiso   1.00
H1198  H     0.22901   0.37694   0.93998   0.00000  Uiso   1.00
C1199  C     0.04745   0.42400   0.79158   0.00000  Uiso   1.00
O1200  O     0.06477   0.42978   0.82736   0.00000  Uiso   1.00
O1201  O     0.05139   0.38168   0.77231   0.00000  Uiso   1.00
H1202  H     0.03840   0.38133   0.74128   0.00000  Uiso   1.00
C1203  C     0.28615   0.57382   0.70529   0.00000  Uiso   1.00
O1204  O     0.28411   0.61202   0.71958   0.00000  Uiso   1.00
O1205  O     0.26480   0.56405   0.66603   0.00000  Uiso   1.00
H1206  H     0.24896   0.59141   0.65238   0.00000  Uiso   1.00
C1207  C     0.29693   0.41500   0.77061   0.00000  Uiso   1.00
O1208  O     0.30005   0.39759   0.80804   0.00000  Uiso   1.00
O1209  O     0.27901   0.39215   0.73557   0.00000  Uiso   1.00
H1210  H     0.26881   0.36199   0.74562   0.00000  Uiso   1.00
C1211  C     0.03576   0.58600   0.73317   0.00000  Uiso   1.00
O1212  O     0.05096   0.60431   0.76524   0.00000  Uiso   1.00
O1213  O     0.03236   0.60857   0.69161   0.00000  Uiso   1.00
H1214  H     0.04228   0.64032   0.69268   0.00000  Uiso   1.00
C1215  C     0.20818   0.37659   0.81822   0.00000  Uiso   1.00
N1216  N     0.22436   0.39299   0.84788   0.00000  Uiso   1.00
C1217  C     0.12759   0.62461   0.67956   0.00000  Uiso   1.00
N1218  N     0.11316   0.61007   0.64783   0.00000  Uiso   1.00
C1219  C     0.11930   0.38602   0.68634   0.00000  Uiso   1.00
N1220  N     0.09863   0.40681   0.66065   0.00000  Uiso   1.00
C1221  C     0.21413   0.61429   0.81374   0.00000  Uiso   1.00
N1222  N     0.23489   0.59365   0.83945   0.00000  Uiso   1.00
C1223  C     0.41996   0.50098   0.75189   0.00000  Uiso   1.00
C1224  C     0.58004   0.49899   0.74799   0.00000  Uiso   1.00
C1225  C     0.42395   0.49839   0.52114   0.00000  Uiso   1.00
C1226  C     0.56783   0.45252   0.97884   0.00000  Uiso   1.00
C1227  C     0.35680   0.46249   0.76861   0.00000  Uiso   1.00
C1228  C     0.64333   0.53694   0.73057   0.00000  Uiso   1.00
C1229  C     0.64820   0.45916   0.76142   0.00000  Uiso   1.00
C1230  C     0.35171   0.54094   0.73932   0.00000  Uiso   1.00
C1231  C     0.62450   0.49730   0.74468   0.00000  Uiso   1.00
C1232  C     0.37554   0.50248   0.75523   0.00000  Uiso   1.00
C1233  C     0.52121   0.35514   0.78220   0.00000  Uiso   1.00
C1234  C     0.47912   0.64506   0.71752   0.00000  Uiso   1.00
C1235  C     0.47805   0.35959   0.71836   0.00000  Uiso   1.00
C1236  C     0.52192   0.64053   0.78173   0.00000  Uiso   1.00
C1237  C     0.50062   0.50008   0.66357   0.00000  Uiso   1.00
C1238  C     0.50004   0.49955   0.83644   0.00000  Uiso   1.00
C1239  C     0.53545   0.48193   0.90780   0.00000  Uiso   1.00
C1240  C     0.46385   0.50656   0.59169   0.00000  Uiso   1.00
C1241  C     0.49996   0.49797   0.88449   0.00000  Uiso   1.00
C1242  C     0.50082   0.49806   0.61541   0.00000  Uiso   1.00
C1243  C     0.46400   0.51001   0.90641   0.00000  Uiso   1.00
C1244  C     0.53382   0.47467   0.59566   0.00000  Uiso   1.00
C1245  C     0.46168   0.49967   0.95234   0.00000  Uiso   1.00
C1246  C     0.53435   0.47168   0.54856   0.00000  Uiso   1.00
C1247  C     0.49793   0.48539   0.97669   0.00000  Uiso   1.00
C1248  C     0.49806   0.48488   0.52365   0.00000  Uiso   1.00
C1249  C     0.53414   0.47292   0.95416   0.00000  Uiso   1.00
C1250  C     0.46155   0.49726   0.54569   0.00000  Uiso   1.00
C1251  C     0.42385   0.50058   0.97425   0.00000  Uiso   1.00
C1252  C     0.56912   0.45468   0.52556   0.00000  Uiso   1.00
N1253  N     0.50000   0.61907   0.75000   0.00000  Uiso   1.00
N1254  N     0.50000   0.38093   0.75000   0.00000  Uiso   1.00
O1255  O     0.43892   0.53821   0.75000   0.00000  Uiso   1.00
O1256  O     0.56108   0.46179   0.75000   0.00000  Uiso   1.00
O1257  O     0.56108   0.53821   0.75000   0.00000  Uiso   1.00
O1258  O     0.43892   0.46179   0.74999   0.00000  Uiso   1.00
O1259  O     0.49999   0.53823   0.68392   0.00000  Uiso   1.00
O1260  O     0.50001   0.46177   0.81607   0.00000  Uiso   1.00
O1261  O     0.50001   0.53823   0.81607   0.00000  Uiso   1.00
O1262  O     0.49999   0.46177   0.68392   0.00000  Uiso   1.00
Zn1263 Zn    0.50000   0.55104   0.75000   0.00000  Uiso   1.00
Zn1264 Zn    0.50000   0.44896   0.75000   0.00000  Uiso   1.00
C1265  C     0.57395   0.48303   0.88469   0.00000  Uiso   1.00
N1266  N     0.60443   0.48431   0.86608   0.00000  Uiso   1.00
C1267  C     0.42810   0.52147   0.61625   0.00000  Uiso   1.00
N1268  N     0.39952   0.53248   0.63597   0.00000  Uiso   1.00
C1269  C     0.43163   0.53933   0.88286   0.00000  Uiso   1.00
O1270  O     0.41628   0.52792   0.84763   0.00000  Uiso   1.00
O1271  O     0.41838   0.57981   0.90184   0.00000  Uiso   1.00
H1272  H     0.39614   0.59674   0.88309   0.00000  Uiso   1.00
C1273  C     0.56365   0.44810   0.62544   0.00000  Uiso   1.00
O1274  O     0.58623   0.46731   0.65097   0.00000  Uiso   1.00
O1275  O     0.56503   0.40102   0.62459   0.00000  Uiso   1.00
H1276  H     0.58635   0.38657   0.64626   0.00000  Uiso   1.00
C1277  C     0.38492   0.49619   0.94834   0.00000  Uiso   1.00
O1278  O     0.35583   0.52282   0.95328   0.00000  Uiso   1.00
O1279  O     0.38239   0.46228   0.91707   0.00000  Uiso   1.00
H1280  H     0.35548   0.46416   0.89952   0.00000  Uiso   1.00
C1281  C     0.60850   0.44235   0.54882   0.00000  Uiso   1.00
O1282  O     0.62642   0.47130   0.56838   0.00000  Uiso   1.00
O1283  O     0.62467   0.39790   0.54867   0.00000  Uiso   1.00
H1284  H     0.65126   0.39343   0.56656   0.00000  Uiso   1.00
C1285  C     0.38604   0.48841   0.54420   0.00000  Uiso   1.00
O1286  O     0.35708   0.51596   0.54306   0.00000  Uiso   1.00
O1287  O     0.38558   0.44900   0.57073   0.00000  Uiso   1.00
H1288  H     0.36240   0.44928   0.59238   0.00000  Uiso   1.00
C1289  C     0.60050   0.42524   0.95674   0.00000  Uiso   1.00
O1290  O     0.63548   0.43754   0.95719   0.00000  Uiso   1.00
O1291  O     0.59190   0.38476   0.93670   0.00000  Uiso   1.00
H1292  H     0.56234   0.37694   0.93998   0.00000  Uiso   1.00
C1293  C     0.38078   0.42400   0.79158   0.00000  Uiso   1.00
O1294  O     0.39810   0.42978   0.82736   0.00000  Uiso   1.00
O1295  O     0.38473   0.38168   0.77231   0.00000  Uiso   1.00
H1296  H     0.37173   0.38133   0.74128   0.00000  Uiso   1.00
C1297  C     0.61949   0.57382   0.70529   0.00000  Uiso   1.00
O1298  O     0.61745   0.61202   0.71958   0.00000  Uiso   1.00
O1299  O     0.59813   0.56405   0.66603   0.00000  Uiso   1.00
H1300  H     0.58229   0.59141   0.65238   0.00000  Uiso   1.00
C1301  C     0.63027   0.41500   0.77061   0.00000  Uiso   1.00
O1302  O     0.63338   0.39759   0.80804   0.00000  Uiso   1.00
O1303  O     0.61234   0.39215   0.73557   0.00000  Uiso   1.00
H1304  H     0.60215   0.36199   0.74562   0.00000  Uiso   1.00
C1305  C     0.36910   0.58600   0.73317   0.00000  Uiso   1.00
O1306  O     0.38430   0.60431   0.76524   0.00000  Uiso   1.00
O1307  O     0.36570   0.60857   0.69161   0.00000  Uiso   1.00
H1308  H     0.37562   0.64032   0.69268   0.00000  Uiso   1.00
C1309  C     0.54152   0.37659   0.81822   0.00000  Uiso   1.00
N1310  N     0.55769   0.39299   0.84788   0.00000  Uiso   1.00
C1311  C     0.46092   0.62461   0.67956   0.00000  Uiso   1.00
N1312  N     0.44649   0.61007   0.64783   0.00000  Uiso   1.00
C1313  C     0.45263   0.38602   0.68634   0.00000  Uiso   1.00
N1314  N     0.43196   0.40681   0.66065   0.00000  Uiso   1.00
C1315  C     0.54746   0.61429   0.81374   0.00000  Uiso   1.00
N1316  N     0.56822   0.59365   0.83945   0.00000  Uiso   1.00
C1317  C     0.75330   0.50098   0.75189   0.00000  Uiso   1.00
C1318  C     0.91337   0.49899   0.74799   0.00000  Uiso   1.00
C1319  C     0.75728   0.49839   0.52114   0.00000  Uiso   1.00
C1320  C     0.90117   0.45252   0.97884   0.00000  Uiso   1.00
C1321  C     0.69013   0.46249   0.76861   0.00000  Uiso   1.00
C1322  C     0.97667   0.53694   0.73057   0.00000  Uiso   1.00
C1323  C     0.98153   0.45916   0.76142   0.00000  Uiso   1.00
C1324  C     0.68504   0.54094   0.73932   0.00000  Uiso   1.00
C1325  C     0.95783   0.49730   0.74468   0.00000  Uiso   1.00
C1326  C     0.70887   0.50248   0.75523   0.00000  Uiso   1.00
C1327  C     0.85455   0.35514   0.78220   0.00000  Uiso   1.00
C1328  C     0.81246   0.64506   0.71752   0.00000  Uiso   1.00
C1329  C     0.81139   0.35959   0.71836   0.00000  Uiso   1.00
C1330  C     0.85525   0.64053   0.78173   0.00000  Uiso   1.00
C1331  C     0.83395   0.50008   0.66357   0.00000  Uiso   1.00
C1332  C     0.83338   0.49955   0.83644   0.00000  Uiso   1.00
C1333  C     0.86878   0.48193   0.90780   0.00000  Uiso   1.00
C1334  C     0.79718   0.50656   0.59169   0.00000  Uiso   1.00
C1335  C     0.83330   0.49797   0.88449   0.00000  Uiso   1.00
C1336  C     0.83415   0.49806   0.61541   0.00000  Uiso   1.00
C1337  C     0.79733   0.51001   0.90641   0.00000  Uiso   1.00
C1338  C     0.86715   0.47467   0.59566   0.00000  Uiso   1.00
C1339  C     0.79502   0.49967   0.95234   0.00000  Uiso   1.00
C1340  C     0.86768   0.47168   0.54856   0.00000  Uiso   1.00
C1341  C     0.83127   0.48539   0.97669   0.00000  Uiso   1.00
C1342  C     0.83139   0.48488   0.52365   0.00000  Uiso   1.00
C1343  C     0.86747   0.47292   0.95416   0.00000  Uiso   1.00
C1344  C     0.79488   0.49726   0.54569   0.00000  Uiso   1.00
C1345  C     0.75718   0.50058   0.97425   0.00000  Uiso   1.00
C1346  C     0.90245   0.45468   0.52556   0.00000  Uiso   1.00
N1347  N     0.83333   0.61907   0.75000   0.00000  Uiso   1.00
N1348  N     0.83333   0.38093   0.75000   0.00000  Uiso   1.00
O1349  O     0.77226   0.53821   0.75000   0.00000  Uiso   1.00
O1350  O     0.89441   0.46179   0.75000   0.00000  Uiso   1.00
O1351  O     0.89441   0.53821   0.75000   0.00000  Uiso   1.00
O1352  O     0.77226   0.46179   0.74999   0.00000  Uiso   1.00
O1353  O     0.83333   0.53823   0.68392   0.00000  Uiso   1.00
O1354  O     0.83334   0.46177   0.81607   0.00000  Uiso   1.00
O1355  O     0.83334   0.53823   0.81607   0.00000  Uiso   1.00
O1356  O     0.83333   0.46177   0.68392   0.00000  Uiso   1.00
Zn1357 Zn    0.83333   0.55104   0.75000   0.00000  Uiso   1.00
Zn1358 Zn    0.83333   0.44896   0.75000   0.00000  Uiso   1.00
C1359  C     0.90729   0.48303   0.88469   0.00000  Uiso   1.00
N1360  N     0.93777   0.48431   0.86608   0.00000  Uiso   1.00
C1361  C     0.76143   0.52147   0.61625   0.00000  Uiso   1.00
N1362  N     0.73285   0.53248   0.63597   0.00000  Uiso   1.00
C1363  C     0.76497   0.53933   0.88286   0.00000  Uiso   1.00
O1364  O     0.74961   0.52792   0.84763   0.00000  Uiso   1.00
O1365  O     0.75171   0.57981   0.90184   0.00000  Uiso   1.00
H1366  H     0.72948   0.59674   0.88309   0.00000  Uiso   1.00
C1367  C     0.89699   0.44810   0.62544   0.00000  Uiso   1.00
O1368  O     0.91956   0.46731   0.65097   0.00000  Uiso   1.00
O1369  O     0.89836   0.40102   0.62459   0.00000  Uiso   1.00
H1370  H     0.91968   0.38657   0.64626   0.00000  Uiso   1.00
C1371  C     0.71825   0.49619   0.94834   0.00000  Uiso   1.00
O1372  O     0.68917   0.52282   0.95328   0.00000  Uiso   1.00
O1373  O     0.71572   0.46228   0.91707   0.00000  Uiso   1.00
H1374  H     0.68882   0.46416   0.89952   0.00000  Uiso   1.00
C1375  C     0.94184   0.44235   0.54882   0.00000  Uiso   1.00
O1376  O     0.95975   0.47130   0.56838   0.00000  Uiso   1.00
O1377  O     0.95800   0.39790   0.54867   0.00000  Uiso   1.00
H1378  H     0.98459   0.39343   0.56656   0.00000  Uiso   1.00
C1379  C     0.71938   0.48841   0.54420   0.00000  Uiso   1.00
O1380  O     0.69041   0.51596   0.54306   0.00000  Uiso   1.00
O1381  O     0.71891   0.44900   0.57073   0.00000  Uiso   1.00
H1382  H     0.69574   0.44928   0.59238   0.00000  Uiso   1.00
C1383  C     0.93384   0.42524   0.95674   0.00000  Uiso   1.00
O1384  O     0.96882   0.43754   0.95719   0.00000  Uiso   1.00
O1385  O     0.92523   0.38476   0.93670   0.00000  Uiso   1.00
H1386  H     0.89567   0.37694   0.93998   0.00000  Uiso   1.00
C1387  C     0.71412   0.42400   0.79158   0.00000  Uiso   1.00
O1388  O     0.73143   0.42978   0.82736   0.00000  Uiso   1.00
O1389  O     0.71806   0.38168   0.77231   0.00000  Uiso   1.00
H1390  H     0.70506   0.38133   0.74128   0.00000  Uiso   1.00
C1391  C     0.95282   0.57382   0.70529   0.00000  Uiso   1.00
O1392  O     0.95078   0.61202   0.71958   0.00000  Uiso   1.00
O1393  O     0.93147   0.56405   0.66603   0.00000  Uiso   1.00
H1394  H     0.91562   0.59141   0.65238   0.00000  Uiso   1.00
C1395  C     0.96360   0.41500   0.77061   0.00000  Uiso   1.00
O1396  O     0.96672   0.39759   0.80804   0.00000  Uiso   1.00
O1397  O     0.94567   0.39215   0.73557   0.00000  Uiso   1.00
H1398  H     0.93548   0.36199   0.74562   0.00000  Uiso   1.00
C1399  C     0.70243   0.58600   0.73317   0.00000  Uiso   1.00
O1400  O     0.71763   0.60431   0.76524   0.00000  Uiso   1.00
O1401  O     0.69903   0.60857   0.69161   0.00000  Uiso   1.00
H1402  H     0.70895   0.64032   0.69268   0.00000  Uiso   1.00
C1403  C     0.87485   0.37659   0.81822   0.00000  Uiso   1.00
N1404  N     0.89103   0.39299   0.84788   0.00000  Uiso   1.00
C1405  C     0.79425   0.62461   0.67956   0.00000  Uiso   1.00
N1406  N     0.77982   0.61007   0.64783   0.00000  Uiso   1.00
C1407  C     0.78596   0.38602   0.68634   0.00000  Uiso   1.00
N1408  N     0.76529   0.40681   0.66065   0.00000  Uiso   1.00
C1409  C     0.88079   0.61429   0.81374   0.00000  Uiso   1.00
N1410  N     0.90156   0.59365   0.83945   0.00000  Uiso   1.00
C1411  C     0.08663   0.83432   0.75189   0.00000  Uiso   1.00
C1412  C     0.24670   0.83232   0.74799   0.00000  Uiso   1.00
C1413  C     0.09061   0.83172   0.52114   0.00000  Uiso   1.00
C1414  C     0.23450   0.78585   0.97884   0.00000  Uiso   1.00
C1415  C     0.02347   0.79582   0.76861   0.00000  Uiso   1.00
C1416  C     0.31000   0.87027   0.73057   0.00000  Uiso   1.00
C1417  C     0.31487   0.79249   0.76142   0.00000  Uiso   1.00
C1418  C     0.01838   0.87427   0.73932   0.00000  Uiso   1.00
C1419  C     0.29117   0.83063   0.74468   0.00000  Uiso   1.00
C1420  C     0.04220   0.83582   0.75523   0.00000  Uiso   1.00
C1421  C     0.18788   0.68847   0.78220   0.00000  Uiso   1.00
C1422  C     0.14579   0.97839   0.71752   0.00000  Uiso   1.00
C1423  C     0.14472   0.69293   0.71836   0.00000  Uiso   1.00
C1424  C     0.18859   0.97387   0.78173   0.00000  Uiso   1.00
C1425  C     0.16729   0.83342   0.66357   0.00000  Uiso   1.00
C1426  C     0.16671   0.83289   0.83644   0.00000  Uiso   1.00
C1427  C     0.20211   0.81526   0.90780   0.00000  Uiso   1.00
C1428  C     0.13051   0.83989   0.59169   0.00000  Uiso   1.00
C1429  C     0.16663   0.83131   0.88449   0.00000  Uiso   1.00
C1430  C     0.16749   0.83139   0.61541   0.00000  Uiso   1.00
C1431  C     0.13067   0.84335   0.90641   0.00000  Uiso   1.00
C1432  C     0.20048   0.80800   0.59566   0.00000  Uiso   1.00
C1433  C     0.12835   0.83301   0.95234   0.00000  Uiso   1.00
C1434  C     0.20101   0.80502   0.54856   0.00000  Uiso   1.00
C1435  C     0.16460   0.81872   0.97669   0.00000  Uiso   1.00
C1436  C     0.16473   0.81822   0.52365   0.00000  Uiso   1.00
C1437  C     0.20080   0.80626   0.95416   0.00000  Uiso   1.00
C1438  C     0.12822   0.83059   0.54569   0.00000  Uiso   1.00
C1439  C     0.09052   0.83391   0.97425   0.00000  Uiso   1.00
C1440  C     0.23578   0.78801   0.52556   0.00000  Uiso   1.00
N1441  N     0.16667   0.95240   0.75000   0.00000  Uiso   1.00
N1442  N     0.16667   0.71427   0.75000   0.00000  Uiso   1.00
O1443  O     0.10559   0.87154   0.75000   0.00000  Uiso   1.00
O1444  O     0.22774   0.79513   0.75000   0.00000  Uiso   1.00
O1445  O     0.22774   0.87154   0.75000   0.00000  Uiso   1.00
O1446  O     0.10559   0.79513   0.74999   0.00000  Uiso   1.00
O1447  O     0.16666   0.87156   0.68392   0.00000  Uiso   1.00
O1448  O     0.16667   0.79511   0.81607   0.00000  Uiso   1.00
O1449  O     0.16667   0.87156   0.81607   0.00000  Uiso   1.00
O1450  O     0.16666   0.79511   0.68392   0.00000  Uiso   1.00
Zn1451 Zn    0.16667   0.88437   0.75000   0.00000  Uiso   1.00
Zn1452 Zn    0.16667   0.78229   0.75000   0.00000  Uiso   1.00
C1453  C     0.24062   0.81636   0.88469   0.00000  Uiso   1.00
N1454  N     0.27110   0.81764   0.86608   0.00000  Uiso   1.00
C1455  C     0.09476   0.85480   0.61625   0.00000  Uiso   1.00
N1456  N     0.06618   0.86582   0.63597   0.00000  Uiso   1.00
C1457  C     0.09830   0.87266   0.88286   0.00000  Uiso   1.00
O1458  O     0.08295   0.86125   0.84763   0.00000  Uiso   1.00
O1459  O     0.08505   0.91314   0.90184   0.00000  Uiso   1.00
H1460  H     0.06281   0.93007   0.88309   0.00000  Uiso   1.00
C1461  C     0.23032   0.78144   0.62544   0.00000  Uiso   1.00
O1462  O     0.25289   0.80064   0.65097   0.00000  Uiso   1.00
O1463  O     0.23169   0.73436   0.62459   0.00000  Uiso   1.00
H1464  H     0.25301   0.71990   0.64626   0.00000  Uiso   1.00
C1465  C     0.05158   0.82952   0.94834   0.00000  Uiso   1.00
O1466  O     0.02250   0.85615   0.95328   0.00000  Uiso   1.00
O1467  O     0.04905   0.79561   0.91707   0.00000  Uiso   1.00
H1468  H     0.02215   0.79749   0.89952   0.00000  Uiso   1.00
C1469  C     0.27517   0.77569   0.54882   0.00000  Uiso   1.00
O1470  O     0.29309   0.80464   0.56838   0.00000  Uiso   1.00
O1471  O     0.29133   0.73123   0.54867   0.00000  Uiso   1.00
H1472  H     0.31792   0.72676   0.56656   0.00000  Uiso   1.00
C1473  C     0.05271   0.82175   0.54420   0.00000  Uiso   1.00
O1474  O     0.02374   0.84929   0.54306   0.00000  Uiso   1.00
O1475  O     0.05224   0.78233   0.57073   0.00000  Uiso   1.00
H1476  H     0.02907   0.78262   0.59238   0.00000  Uiso   1.00
C1477  C     0.26717   0.75857   0.95674   0.00000  Uiso   1.00
O1478  O     0.30215   0.77088   0.95719   0.00000  Uiso   1.00
O1479  O     0.25856   0.71809   0.93670   0.00000  Uiso   1.00
H1480  H     0.22901   0.71027   0.93998   0.00000  Uiso   1.00
C1481  C     0.04745   0.75733   0.79158   0.00000  Uiso   1.00
O1482  O     0.06477   0.76311   0.82736   0.00000  Uiso   1.00
O1483  O     0.05139   0.71501   0.77231   0.00000  Uiso   1.00
H1484  H     0.03840   0.71466   0.74128   0.00000  Uiso   1.00
C1485  C     0.28615   0.90716   0.70529   0.00000  Uiso   1.00
O1486  O     0.28411   0.94536   0.71958   0.00000  Uiso   1.00
O1487  O     0.26480   0.89738   0.66603   0.00000  Uiso   1.00
H1488  H     0.24896   0.92474   0.65238   0.00000  Uiso   1.00
C1489  C     0.29693   0.74833   0.77061   0.00000  Uiso   1.00
O1490  O     0.30005   0.73092   0.80804   0.00000  Uiso   1.00
O1491  O     0.27901   0.72548   0.73557   0.00000  Uiso   1.00
H1492  H     0.26881   0.69532   0.74562   0.00000  Uiso   1.00
C1493  C     0.03576   0.91933   0.73317   0.00000  Uiso   1.00
O1494  O     0.05096   0.93764   0.76524   0.00000  Uiso   1.00
O1495  O     0.03236   0.94190   0.69161   0.00000  Uiso   1.00
H1496  H     0.04228   0.97365   0.69268   0.00000  Uiso   1.00
C1497  C     0.20818   0.70992   0.81822   0.00000  Uiso   1.00
N1498  N     0.22436   0.72632   0.84788   0.00000  Uiso   1.00
C1499  C     0.12759   0.95794   0.67956   0.00000  Uiso   1.00
N1500  N     0.11316   0.94341   0.64783   0.00000  Uiso   1.00
C1501  C     0.11930   0.71936   0.68634   0.00000  Uiso   1.00
N1502  N     0.09863   0.74014   0.66065   0.00000  Uiso   1.00
C1503  C     0.21413   0.94762   0.81374   0.00000  Uiso   1.00
N1504  N     0.23489   0.92698   0.83945   0.00000  Uiso   1.00
C1505  C     0.41996   0.83432   0.75189   0.00000  Uiso   1.00
C1506  C     0.58004   0.83232   0.74799   0.00000  Uiso   1.00
C1507  C     0.42395   0.83172   0.52114   0.00000  Uiso   1.00
C1508  C     0.56783   0.78585   0.97884   0.00000  Uiso   1.00
C1509  C     0.35680   0.79582   0.76861   0.00000  Uiso   1.00
C1510  C     0.64333   0.87027   0.73057   0.00000  Uiso   1.00
C1511  C     0.64820   0.79249   0.76142   0.00000  Uiso   1.00
C1512  C     0.35171   0.87427   0.73932   0.00000  Uiso   1.00
C1513  C     0.62450   0.83063   0.74468   0.00000  Uiso   1.00
C1514  C     0.37554   0.83582   0.75523   0.00000  Uiso   1.00
C1515  C     0.52121   0.68847   0.78220   0.00000  Uiso   1.00
C1516  C     0.47912   0.97839   0.71752   0.00000  Uiso   1.00
C1517  C     0.47805   0.69293   0.71836   0.00000  Uiso   1.00
C1518  C     0.52192   0.97387   0.78173   0.00000  Uiso   1.00
C1519  C     0.50062   0.83342   0.66357   0.00000  Uiso   1.00
C1520  C     0.50004   0.83289   0.83644   0.00000  Uiso   1.00
C1521  C     0.53545   0.81526   0.90780   0.00000  Uiso   1.00
C1522  C     0.46385   0.83989   0.59169   0.00000  Uiso   1.00
C1523  C     0.49996   0.83131   0.88449   0.00000  Uiso   1.00
C1524  C     0.50082   0.83139   0.61541   0.00000  Uiso   1.00
C1525  C     0.46400   0.84335   0.90641   0.00000  Uiso   1.00
C1526  C     0.53382   0.80800   0.59566   0.00000  Uiso   1.00
C1527  C     0.46168   0.83301   0.95234   0.00000  Uiso   1.00
C1528  C     0.53435   0.80502   0.54856   0.00000  Uiso   1.00
C1529  C     0.49793   0.81872   0.97669   0.00000  Uiso   1.00
C1530  C     0.49806   0.81822   0.52365   0.00000  Uiso   1.00
C1531  C     0.53414   0.80626   0.95416   0.00000  Uiso   1.00
C1532  C     0.46155   0.83059   0.54569   0.00000  Uiso   1.00
C1533  C     0.42385   0.83391   0.97425   0.00000  Uiso   1.00
C1534  C     0.56912   0.78801   0.52556   0.00000  Uiso   1.00
N1535  N     0.50000   0.95240   0.75000   0.00000  Uiso   1.00
N1536  N     0.50000   0.71427   0.75000   0.00000  Uiso   1.00
O1537  O     0.43892   0.87154   0.75000   0.00000  Uiso   1.00
O1538  O     0.56108   0.79513   0.75000   0.00000  Uiso   1.00
O1539  O     0.56108   0.87154   0.75000   0.00000  Uiso   1.00
O1540  O     0.43892   0.79513   0.74999   0.00000  Uiso   1.00
O1541  O     0.49999   0.87156   0.68392   0.00000  Uiso   1.00
O1542  O     0.50001   0.79511   0.81607   0.00000  Uiso   1.00
O1543  O     0.50001   0.87156   0.81607   0.00000  Uiso   1.00
O1544  O     0.49999   0.79511   0.68392   0.00000  Uiso   1.00
Zn1545 Zn    0.50000   0.88437   0.75000   0.00000  Uiso   1.00
Zn1546 Zn    0.50000   0.78229   0.75000   0.00000  Uiso   1.00
C1547  C     0.57395   0.81636   0.88469   0.00000  Uiso   1.00
N1548  N     0.60443   0.81764   0.86608   0.00000  Uiso   1.00
C1549  C     0.42810   0.85480   0.61625   0.00000  Uiso   1.00
N1550  N     0.39952   0.86582   0.63597   0.00000  Uiso   1.00
C1551  C     0.43163   0.87266   0.88286   0.00000  Uiso   1.00
O1552  O     0.41628   0.86125   0.84763   0.00000  Uiso   1.00
O1553  O     0.41838   0.91314   0.90184   0.00000  Uiso   1.00
H1554  H     0.39614   0.93007   0.88309   0.00000  Uiso   1.00
C1555  C     0.56365   0.78144   0.62544   0.00000  Uiso   1.00
O1556  O     0.58623   0.80064   0.65097   0.00000  Uiso   1.00
O1557  O     0.56503   0.73436   0.62459   0.00000  Uiso   1.00
H1558  H     0.58635   0.71990   0.64626   0.00000  Uiso   1.00
C1559  C     0.38492   0.82952   0.94834   0.00000  Uiso   1.00
O1560  O     0.35583   0.85615   0.95328   0.00000  Uiso   1.00
O1561  O     0.38239   0.79561   0.91707   0.00000  Uiso   1.00
H1562  H     0.35548   0.79749   0.89952   0.00000  Uiso   1.00
C1563  C     0.60850   0.77569   0.54882   0.00000  Uiso   1.00
O1564  O     0.62642   0.80464   0.56838   0.00000  Uiso   1.00
O1565  O     0.62467   0.73123   0.54867   0.00000  Uiso   1.00
H1566  H     0.65126   0.72676   0.56656   0.00000  Uiso   1.00
C1567  C     0.38604   0.82175   0.54420   0.00000  Uiso   1.00
O1568  O     0.35708   0.84929   0.54306   0.00000  Uiso   1.00
O1569  O     0.38558   0.78233   0.57073   0.00000  Uiso   1.00
H1570  H     0.36240   0.78262   0.59238   0.00000  Uiso   1.00
C1571  C     0.60050   0.75857   0.95674   0.00000  Uiso   1.00
O1572  O     0.63548   0.77088   0.95719   0.00000  Uiso   1.00
O1573  O     0.59190   0.71809   0.93670   0.00000  Uiso   1.00
H1574  H     0.56234   0.71027   0.93998   0.00000  Uiso   1.00
C1575  C     0.38078   0.75733   0.79158   0.00000  Uiso   1.00
O1576  O     0.39810   0.76311   0.82736   0.00000  Uiso   1.00
O1577  O     0.38473   0.71501   0.77231   0.00000  Uiso   1.00
H1578  H     0.37173   0.71466   0.74128   0.00000  Uiso   1.00
C1579  C     0.61949   0.90716   0.70529   0.00000  Uiso   1.00
O1580  O     0.61745   0.94536   0.71958   0.00000  Uiso   1.00
O1581  O     0.59813   0.89738   0.66603   0.00000  Uiso   1.00
H1582  H     0.58229   0.92474   0.65238   0.00000  Uiso   1.00
C1583  C     0.63027   0.74833   0.77061   0.00000  Uiso   1.00
O1584  O     0.63338   0.73092   0.80804   0.00000  Uiso   1.00
O1585  O     0.61234   0.72548   0.73557   0.00000  Uiso   1.00
H1586  H     0.60215   0.69532   0.74562   0.00000  Uiso   1.00
C1587  C     0.36910   0.91933   0.73317   0.00000  Uiso   1.00
O1588  O     0.38430   0.93764   0.76524   0.00000  Uiso   1.00
O1589  O     0.36570   0.94190   0.69161   0.00000  Uiso   1.00
H1590  H     0.37562   0.97365   0.69268   0.00000  Uiso   1.00
C1591  C     0.54152   0.70992   0.81822   0.00000  Uiso   1.00
N1592  N     0.55769   0.72632   0.84788   0.00000  Uiso   1.00
C1593  C     0.46092   0.95794   0.67956   0.00000  Uiso   1.00
N1594  N     0.44649   0.94341   0.64783   0.00000  Uiso   1.00
C1595  C     0.45263   0.71936   0.68634   0.00000  Uiso   1.00
N1596  N     0.43196   0.74014   0.66065   0.00000  Uiso   1.00
C1597  C     0.54746   0.94762   0.81374   0.00000  Uiso   1.00
N1598  N     0.56822   0.92698   0.83945   0.00000  Uiso   1.00
C1599  C     0.75330   0.83432   0.75189   0.00000  Uiso   1.00
C1600  C     0.91337   0.83232   0.74799   0.00000  Uiso   1.00
C1601  C     0.75728   0.83172   0.52114   0.00000  Uiso   1.00
C1602  C     0.90117   0.78585   0.97884   0.00000  Uiso   1.00
C1603  C     0.69013   0.79582   0.76861   0.00000  Uiso   1.00
C1604  C     0.97667   0.87027   0.73057   0.00000  Uiso   1.00
C1605  C     0.98153   0.79249   0.76142   0.00000  Uiso   1.00
C1606  C     0.68504   0.87427   0.73932   0.00000  Uiso   1.00
C1607  C     0.95783   0.83063   0.74468   0.00000  Uiso   1.00
C1608  C     0.70887   0.83582   0.75523   0.00000  Uiso   1.00
C1609  C     0.85455   0.68847   0.78220   0.00000  Uiso   1.00
C1610  C     0.81246   0.97839   0.71752   0.00000  Uiso   1.00
C1611  C     0.81139   0.69293   0.71836   0.00000  Uiso   1.00
C1612  C     0.85525   0.97387   0.78173   0.00000  Uiso   1.00
C1613  C     0.83395   0.83342   0.66357   0.00000  Uiso   1.00
C1614  C     0.83338   0.83289   0.83644   0.00000  Uiso   1.00
C1615  C     0.86878   0.81526   0.90780   0.00000  Uiso   1.00
C1616  C     0.79718   0.83989   0.59169   0.00000  Uiso   1.00
C1617  C     0.83330   0.83131   0.88449   0.00000  Uiso   1.00
C1618  C     0.83415   0.83139   0.61541   0.00000  Uiso   1.00
C1619  C     0.79733   0.84335   0.90641   0.00000  Uiso   1.00
C1620  C     0.86715   0.80800   0.59566   0.00000  Uiso   1.00
C1621  C     0.79502   0.83301   0.95234   0.00000  Uiso   1.00
C1622  C     0.86768   0.80502   0.54856   0.00000  Uiso   1.00
C1623  C     0.83127   0.81872   0.97669   0.00000  Uiso   1.00
C1624  C     0.83139   0.81822   0.52365   0.00000  Uiso   1.00
C1625  C     0.86747   0.80626   0.95416   0.00000  Uiso   1.00
C1626  C     0.79488   0.83059   0.54569   0.00000  Uiso   1.00
C1627  C     0.75718   0.83391   0.97425   0.00000  Uiso   1.00
C1628  C     0.90245   0.78801   0.52556   0.00000  Uiso   1.00
N1629  N     0.83333   0.95240   0.75000   0.00000  Uiso   1.00
N1630  N     0.83333   0.71427   0.75000   0.00000  Uiso   1.00
O1631  O     0.77226   0.87154   0.75000   0.00000  Uiso   1.00
O1632  O     0.89441   0.79513   0.75000   0.00000  Uiso   1.00
O1633  O     0.89441   0.87154   0.75000   0.00000  Uiso   1.00
O1634  O     0.77226   0.79513   0.74999   0.00000  Uiso   1.00
O1635  O     0.83333   0.87156   0.68392   0.00000  Uiso   1.00
O1636  O     0.83334   0.79511   0.81607   0.00000  Uiso   1.00
O1637  O     0.83334   0.87156   0.81607   0.00000  Uiso   1.00
O1638  O     0.83333   0.79511   0.68392   0.00000  Uiso   1.00
Zn1639 Zn    0.83333   0.88437   0.75000   0.00000  Uiso   1.00
Zn1640 Zn    0.83333   0.78229   0.75000   0.00000  Uiso   1.00
C1641  C     0.90729   0.81636   0.88469   0.00000  Uiso   1.00
N1642  N     0.93777   0.81764   0.86608   0.00000  Uiso   1.00
C1643  C     0.76143   0.85480   0.61625   0.00000  Uiso   1.00
N1644  N     0.73285   0.86582   0.63597   0.00000  Uiso   1.00
C1645  C     0.76497   0.87266   0.88286   0.00000  Uiso   1.00
O1646  O     0.74961   0.86125   0.84763   0.00000  Uiso   1.00
O1647  O     0.75171   0.91314   0.90184   0.00000  Uiso   1.00
H1648  H     0.72948   0.93007   0.88309   0.00000  Uiso   1.00
C1649  C     0.89699   0.78144   0.62544   0.00000  Uiso   1.00
O1650  O     0.91956   0.80064   0.65097   0.00000  Uiso   1.00
O1651  O     0.89836   0.73436   0.62459   0.00000  Uiso   1.00
H1652  H     0.91968   0.71990   0.64626   0.00000  Uiso   1.00
C1653  C     0.71825   0.82952   0.94834   0.00000  Uiso   1.00
O1654  O     0.68917   0.85615   0.95328   0.00000  Uiso   1.00
O1655  O     0.71572   0.79561   0.91707   0.00000  Uiso   1.00
H1656  H     0.68882   0.79749   0.89952   0.00000  Uiso   1.00
C1657  C     0.94184   0.77569   0.54882   0.00000  Uiso   1.00
O1658  O     0.95975   0.80464   0.56838   0.00000  Uiso   1.00
O1659  O     0.95800   0.73123   0.54867   0.00000  Uiso   1.00
H1660  H     0.98459   0.72676   0.56656   0.00000  Uiso   1.00
C1661  C     0.71938   0.82175   0.54420   0.00000  Uiso   1.00
O1662  O     0.69041   0.84929   0.54306   0.00000  Uiso   1.00
O1663  O     0.71891   0.78233   0.57073   0.00000  Uiso   1.00
H1664  H     0.69574   0.78262   0.59238   0.00000  Uiso   1.00
C1665  C     0.93384   0.75857   0.95674   0.00000  Uiso   1.00
O1666  O     0.96882   0.77088   0.95719   0.00000  Uiso   1.00
O1667  O     0.92523   0.71809   0.93670   0.00000  Uiso   1.00
H1668  H     0.89567   0.71027   0.93998   0.00000  Uiso   1.00
C1669  C     0.71412   0.75733   0.79158   0.00000  Uiso   1.00
O1670  O     0.73143   0.76311   0.82736   0.00000  Uiso   1.00
O1671  O     0.71806   0.71501   0.77231   0.00000  Uiso   1.00
H1672  H     0.70506   0.71466   0.74128   0.00000  Uiso   1.00
C1673  C     0.95282   0.90716   0.70529   0.00000  Uiso   1.00
O1674  O     0.95078   0.94536   0.71958   0.00000  Uiso   1.00
O1675  O     0.93147   0.89738   0.66603   0.00000  Uiso   1.00
H1676  H     0.91562   0.92474   0.65238   0.00000  Uiso   1.00
C1677  C     0.96360   0.74833   0.77061   0.00000  Uiso   1.00
O1678  O     0.96672   0.73092   0.80804   0.00000  Uiso   1.00
O1679  O     0.94567   0.72548   0.73557   0.00000  Uiso   1.00
H1680  H     0.93548   0.69532   0.74562   0.00000  Uiso   1.00
C1681  C     0.70243   0.91933   0.73317   0.00000  Uiso   1.00
O1682  O     0.71763   0.93764   0.76524   0.00000  Uiso   1.00
O1683  O     0.69903   0.94190   0.69161   0.00000  Uiso   1.00
H1684  H     0.70895   0.97365   0.69268   0.00000  Uiso   1.00
C1685  C     0.87485   0.70992   0.81822   0.00000  Uiso   1.00
N1686  N     0.89103   0.72632   0.84788   0.00000  Uiso   1.00
C1687  C     0.79425   0.95794   0.67956   0.00000  Uiso   1.00
N1688  N     0.77982   0.94341   0.64783   0.00000  Uiso   1.00
C1689  C     0.78596   0.71936   0.68634   0.00000  Uiso   1.00
N1690  N     0.76529   0.74014   0.66065   0.00000  Uiso   1.00
C1691  C     0.88079   0.94762   0.81374   0.00000  Uiso   1.00
N1692  N     0.90156   0.92698   0.83945   0.00000  Uiso   1.00
loop_
_geom_bond_atom_site_label_1
_geom_bond_atom_site_label_2
_geom_bond_distance
_geom_bond_site_symmetry_2
_ccdc_geom_bond_type
C1     O33     1.295   .     A
C1     C10     1.460   .     S
C1     O36     1.296   .     A
C2     O35     1.297   .     A
C2     O34     1.295   .     A
C2     C9      1.461   .     S
C3     C28     1.418   .     A
C3     C63     1.475   .     S
C3     C875    1.404   1_554 S
C4     C27     1.415   .     A
C4     C67     1.490   .     S
C4     C876    1.402   .     S
C5     C10     1.417   .     A
C5     C71     1.497   .     S
C5     C195    1.394   1_455 S
C6     C9      1.416   .     A
C6     C75     1.492   .     S
C6     C102    1.397   .     S
C7     C79     1.486   .     S
C7     C9      1.415   .     A
C7     C99     1.394   .     S
C8     C83     1.489   .     S
C8     C10     1.417   .     A
C8     C194    1.397   1_455 S
C11    C87     1.433   .     S
C11    N32     1.370   .     A
C11    C578    1.424   1_545 S
C12    C89     1.434   .     S
C12    N31     1.373   .     A
C12    C295    1.422   .     S
C13    N32     1.364   .     A
C13    C91     1.445   .     S
C13    C576    1.422   1_545 S
C14    N31     1.367   .     A
C14    C93     1.444   .     S
C14    C293    1.424   .     S
C15    O37     1.300   .     A
C15    C20     1.446   .     S
C15    O40     1.278   .     A
C16    C19     1.439   .     S
C16    O39     1.287   .     A
C16    O38     1.291   .     A
C17    C27     1.409   .     A
C17    C43     1.456   .     S
C17    C19     1.398   .     A
C18    C28     1.413   .     A
C18    C45     1.456   .     S
C18    C20     1.398   .     A
C19    C21     1.399   .     A
C20    C22     1.408   .     A
C21    C23     1.406   .     A
C21    C47     1.490   .     S
C22    C24     1.416   .     A
C22    C51     1.489   .     S
C23    C29     1.417   .     A
C23    C25     1.419   .     A
C24    C26     1.421   .     A
C24    C30     1.424   .     A
C25    C27     1.418   .     A
C25    C872    1.406   .     S
C26    C28     1.418   .     A
C26    C871    1.406   1_554 S
C29    C55     1.490   .     S
C29    C849    1.404   .     S
C30    C59     1.477   .     S
C30    C850    1.402   1_554 S
N31    Zn41    2.021   .     S
N32    Zn42    2.021   .     S
O33    Zn41    2.056   .     S
O34    Zn42    2.056   .     S
O35    Zn41    2.019   .     S
O36    Zn42    2.019   .     S
O37    Zn41    2.025   .     S
O38    Zn42    2.025   .     S
O39    Zn41    2.006   .     S
O40    Zn42    2.006   .     S
C43    N44     1.158   .     T
C45    N46     1.158   .     T
C47    O49     1.398   .     S
C47    O48     1.221   .     D
O49    H50     1.014   .     S
C51    O52     1.222   .     D
C51    O53     1.398   .     S
O53    H54     1.014   .     S
C55    O56     1.223   .     D
C55    O57     1.397   .     S
O57    H58     1.013   .     S
C59    O60     1.219   .     D
C59    O61     1.399   .     S
O61    H62     1.013   .     S
C63    O65     1.399   .     S
C63    O64     1.221   .     D
O65    H66     1.011   .     S
C67    O68     1.220   .     D
C67    O69     1.396   .     S
O69    H70     1.014   .     S
C71    O72     1.220   .     D
C71    O73     1.399   .     S
O73    H74     1.013   .     S
C75    O76     1.223   .     D
C75    O77     1.398   .     S
O77    H78     1.014   .     S
C79    O80     1.222   .     D
C79    O81     1.398   .     S
O81    H82     1.013   .     S
C83    O84     1.223   .     D
C83    O85     1.398   .     S
O85    H86     1.014   .     S
C87    N88     1.154   .     T
C89    N90     1.154   .     T
C91    N92     1.158   .     T
C93    N94     1.158   .     T
C95    O127    1.295   .     A
C95    C104    1.460   .     S
C95    O130    1.296   .     A
C96    O129    1.297   .     A
C96    O128    1.295   .     A
C96    C103    1.461   .     S
C97    C122    1.418   .     A
C97    C157    1.475   .     S
C97    C969    1.404   1_554 S
C98    C121    1.415   .     A
C98    C161    1.490   .     S
C98    C970    1.402   .     S
C99    C104    1.417   .     A
C99    C165    1.497   .     S
C100   C103    1.416   .     A
C100   C169    1.492   .     S
C100   C196    1.397   .     S
C101   C173    1.486   .     S
C101   C103    1.415   .     A
C101   C193    1.394   .     S
C102   C177    1.489   .     S
C102   C104    1.417   .     A
C105   C181    1.433   .     S
C105   N126    1.370   .     A
C105   C672    1.424   1_545 S
C106   C183    1.434   .     S
C106   N125    1.373   .     A
C106   C389    1.422   .     S
C107   N126    1.364   .     A
C107   C185    1.445   .     S
C107   C670    1.422   1_545 S
C108   N125    1.367   .     A
C108   C187    1.444   .     S
C108   C387    1.424   .     S
C109   O131    1.300   .     A
C109   C114    1.446   .     S
C109   O134    1.278   .     A
C110   C113    1.439   .     S
C110   O133    1.287   .     A
C110   O132    1.291   .     A
C111   C121    1.409   .     A
C111   C137    1.456   .     S
C111   C113    1.398   .     A
C112   C122    1.413   .     A
C112   C139    1.456   .     S
C112   C114    1.398   .     A
C113   C115    1.399   .     A
C114   C116    1.408   .     A
C115   C117    1.406   .     A
C115   C141    1.490   .     S
C116   C118    1.416   .     A
C116   C145    1.489   .     S
C117   C123    1.417   .     A
C117   C119    1.419   .     A
C118   C120    1.421   .     A
C118   C124    1.424   .     A
C119   C121    1.418   .     A
C119   C966    1.406   .     S
C120   C122    1.418   .     A
C120   C965    1.406   1_554 S
C123   C149    1.490   .     S
C123   C943    1.404   .     S
C124   C153    1.477   .     S
C124   C944    1.402   1_554 S
N125   Zn135   2.021   .     S
N126   Zn136   2.021   .     S
O127   Zn135   2.056   .     S
O128   Zn136   2.056   .     S
O129   Zn135   2.019   .     S
O130   Zn136   2.019   .     S
O131   Zn135   2.025   .     S
O132   Zn136   2.025   .     S
O133   Zn135   2.006   .     S
O134   Zn136   2.006   .     S
C137   N138    1.158   .     T
C139   N140    1.158   .     T
C141   O143    1.398   .     S
C141   O142    1.221   .     D
O143   H144    1.014   .     S
C145   O146    1.222   .     D
C145   O147    1.398   .     S
O147   H148    1.014   .     S
C149   O150    1.223   .     D
C149   O151    1.397   .     S
O151   H152    1.013   .     S
C153   O154    1.219   .     D
C153   O155    1.399   .     S
O155   H156    1.013   .     S
C157   O159    1.399   .     S
C157   O158    1.221   .     D
O159   H160    1.011   .     S
C161   O162    1.220   .     D
C161   O163    1.396   .     S
O163   H164    1.014   .     S
C165   O166    1.220   .     D
C165   O167    1.399   .     S
O167   H168    1.013   .     S
C169   O170    1.223   .     D
C169   O171    1.398   .     S
O171   H172    1.014   .     S
C173   O174    1.222   .     D
C173   O175    1.398   .     S
O175   H176    1.013   .     S
C177   O178    1.223   .     D
C177   O179    1.398   .     S
O179   H180    1.014   .     S
C181   N182    1.154   .     T
C183   N184    1.154   .     T
C185   N186    1.158   .     T
C187   N188    1.158   .     T
C189   O221    1.295   .     A
C189   C198    1.460   .     S
C189   O224    1.296   .     A
C190   O223    1.297   .     A
C190   O222    1.295   .     A
C190   C197    1.461   .     S
C191   C216    1.418   .     A
C191   C251    1.475   .     S
C191   C1063   1.404   1_554 S
C192   C215    1.415   .     A
C192   C255    1.490   .     S
C192   C1064   1.402   .     S
C193   C198    1.417   .     A
C193   C259    1.497   .     S
C194   C197    1.416   .     A
C194   C263    1.492   .     S
C194   C8      1.397   1_655 S
C195   C267    1.486   .     S
C195   C197    1.415   .     A
C195   C5      1.394   1_655 S
C196   C271    1.489   .     S
C196   C198    1.417   .     A
C199   C275    1.433   .     S
C199   N220    1.370   .     A
C199   C766    1.424   1_545 S
C200   C277    1.434   .     S
C200   N219    1.373   .     A
C200   C483    1.422   .     S
C201   N220    1.364   .     A
C201   C279    1.445   .     S
C201   C764    1.422   1_545 S
C202   N219    1.367   .     A
C202   C281    1.444   .     S
C202   C481    1.424   .     S
C203   O225    1.300   .     A
C203   C208    1.446   .     S
C203   O228    1.278   .     A
C204   C207    1.439   .     S
C204   O227    1.287   .     A
C204   O226    1.291   .     A
C205   C215    1.409   .     A
C205   C231    1.456   .     S
C205   C207    1.398   .     A
C206   C216    1.413   .     A
C206   C233    1.456   .     S
C206   C208    1.398   .     A
C207   C209    1.399   .     A
C208   C210    1.408   .     A
C209   C211    1.406   .     A
C209   C235    1.490   .     S
C210   C212    1.416   .     A
C210   C239    1.489   .     S
C211   C217    1.417   .     A
C211   C213    1.419   .     A
C212   C214    1.421   .     A
C212   C218    1.424   .     A
C213   C215    1.418   .     A
C213   C1060   1.406   .     S
C214   C216    1.418   .     A
C214   C1059   1.406   1_554 S
C217   C243    1.490   .     S
C217   C1037   1.404   .     S
C218   C247    1.477   .     S
C218   C1038   1.402   1_554 S
N219   Zn229   2.021   .     S
N220   Zn230   2.021   .     S
O221   Zn229   2.056   .     S
O222   Zn230   2.056   .     S
O223   Zn229   2.019   .     S
O224   Zn230   2.019   .     S
O225   Zn229   2.025   .     S
O226   Zn230   2.025   .     S
O227   Zn229   2.006   .     S
O228   Zn230   2.006   .     S
C231   N232    1.158   .     T
C233   N234    1.158   .     T
C235   O237    1.398   .     S
C235   O236    1.221   .     D
O237   H238    1.014   .     S
C239   O240    1.222   .     D
C239   O241    1.398   .     S
O241   H242    1.014   .     S
C243   O244    1.223   .     D
C243   O245    1.397   .     S
O245   H246    1.013   .     S
C247   O248    1.219   .     D
C247   O249    1.399   .     S
O249   H250    1.013   .     S
C251   O253    1.399   .     S
C251   O252    1.221   .     D
O253   H254    1.011   .     S
C255   O256    1.220   .     D
C255   O257    1.396   .     S
O257   H258    1.014   .     S
C259   O260    1.220   .     D
C259   O261    1.399   .     S
O261   H262    1.013   .     S
C263   O264    1.223   .     D
C263   O265    1.398   .     S
O265   H266    1.014   .     S
C267   O268    1.222   .     D
C267   O269    1.398   .     S
O269   H270    1.013   .     S
C271   O272    1.223   .     D
C271   O273    1.398   .     S
O273   H274    1.014   .     S
C275   N276    1.154   .     T
C277   N278    1.154   .     T
C279   N280    1.158   .     T
C281   N282    1.158   .     T
C283   O315    1.295   .     A
C283   C292    1.460   .     S
C283   O318    1.296   .     A
C284   O317    1.297   .     A
C284   O316    1.295   .     A
C284   C291    1.461   .     S
C285   C310    1.418   .     A
C285   C345    1.475   .     S
C285   C1157   1.404   1_554 S
C286   C309    1.415   .     A
C286   C349    1.490   .     S
C286   C1158   1.402   .     S
C287   C292    1.417   .     A
C287   C353    1.497   .     S
C287   C477    1.394   1_455 S
C288   C291    1.416   .     A
C288   C357    1.492   .     S
C288   C384    1.397   .     S
C289   C361    1.486   .     S
C289   C291    1.415   .     A
C289   C381    1.394   .     S
C290   C365    1.489   .     S
C290   C292    1.417   .     A
C290   C476    1.397   1_455 S
C293   C369    1.433   .     S
C293   N314    1.370   .     A
C294   C371    1.434   .     S
C294   N313    1.373   .     A
C294   C577    1.422   .     S
C295   N314    1.364   .     A
C295   C373    1.445   .     S
C296   N313    1.367   .     A
C296   C375    1.444   .     S
C296   C575    1.424   .     S
C297   O319    1.300   .     A
C297   C302    1.446   .     S
C297   O322    1.278   .     A
C298   C301    1.439   .     S
C298   O321    1.287   .     A
C298   O320    1.291   .     A
C299   C309    1.409   .     A
C299   C325    1.456   .     S
C299   C301    1.398   .     A
C300   C310    1.413   .     A
C300   C327    1.456   .     S
C300   C302    1.398   .     A
C301   C303    1.399   .     A
C302   C304    1.408   .     A
C303   C305    1.406   .     A
C303   C329    1.490   .     S
C304   C306    1.416   .     A
C304   C333    1.489   .     S
C305   C311    1.417   .     A
C305   C307    1.419   .     A
C306   C308    1.421   .     A
C306   C312    1.424   .     A
C307   C309    1.418   .     A
C307   C1154   1.406   .     S
C308   C310    1.418   .     A
C308   C1153   1.406   1_554 S
C311   C337    1.490   .     S
C311   C1131   1.404   .     S
C312   C341    1.477   .     S
C312   C1132   1.402   1_554 S
N313   Zn323   2.021   .     S
N314   Zn324   2.021   .     S
O315   Zn323   2.056   .     S
O316   Zn324   2.056   .     S
O317   Zn323   2.019   .     S
O318   Zn324   2.019   .     S
O319   Zn323   2.025   .     S
O320   Zn324   2.025   .     S
O321   Zn323   2.006   .     S
O322   Zn324   2.006   .     S
C325   N326    1.158   .     T
C327   N328    1.158   .     T
C329   O331    1.398   .     S
C329   O330    1.221   .     D
O331   H332    1.014   .     S
C333   O334    1.222   .     D
C333   O335    1.398   .     S
O335   H336    1.014   .     S
C337   O338    1.223   .     D
C337   O339    1.397   .     S
O339   H340    1.013   .     S
C341   O342    1.219   .     D
C341   O343    1.399   .     S
O343   H344    1.013   .     S
C345   O347    1.399   .     S
C345   O346    1.221   .     D
O347   H348    1.011   .     S
C349   O350    1.220   .     D
C349   O351    1.396   .     S
O351   H352    1.014   .     S
C353   O354    1.220   .     D
C353   O355    1.399   .     S
O355   H356    1.013   .     S
C357   O358    1.223   .     D
C357   O359    1.398   .     S
O359   H360    1.014   .     S
C361   O362    1.222   .     D
C361   O363    1.398   .     S
O363   H364    1.013   .     S
C365   O366    1.223   .     D
C365   O367    1.398   .     S
O367   H368    1.014   .     S
C369   N370    1.154   .     T
C371   N372    1.154   .     T
C373   N374    1.158   .     T
C375   N376    1.158   .     T
C377   O409    1.295   .     A
C377   C386    1.460   .     S
C377   O412    1.296   .     A
C378   O411    1.297   .     A
C378   O410    1.295   .     A
C378   C385    1.461   .     S
C379   C404    1.418   .     A
C379   C439    1.475   .     S
C379   C1251   1.404   1_554 S
C380   C403    1.415   .     A
C380   C443    1.490   .     S
C380   C1252   1.402   .     S
C381   C386    1.417   .     A
C381   C447    1.497   .     S
C382   C385    1.416   .     A
C382   C451    1.492   .     S
C382   C478    1.397   .     S
C383   C455    1.486   .     S
C383   C385    1.415   .     A
C383   C475    1.394   .     S
C384   C459    1.489   .     S
C384   C386    1.417   .     A
C387   C463    1.433   .     S
C387   N408    1.370   .     A
C388   C465    1.434   .     S
C388   N407    1.373   .     A
C388   C671    1.422   .     S
C389   N408    1.364   .     A
C389   C467    1.445   .     S
C390   N407    1.367   .     A
C390   C469    1.444   .     S
C390   C669    1.424   .     S
C391   O413    1.300   .     A
C391   C396    1.446   .     S
C391   O416    1.278   .     A
C392   C395    1.439   .     S
C392   O415    1.287   .     A
C392   O414    1.291   .     A
C393   C403    1.409   .     A
C393   C419    1.456   .     S
C393   C395    1.398   .     A
C394   C404    1.413   .     A
C394   C421    1.456   .     S
C394   C396    1.398   .     A
C395   C397    1.399   .     A
C396   C398    1.408   .     A
C397   C399    1.406   .     A
C397   C423    1.490   .     S
C398   C400    1.416   .     A
C398   C427    1.489   .     S
C399   C405    1.417   .     A
C399   C401    1.419   .     A
C400   C402    1.421   .     A
C400   C406    1.424   .     A
C401   C403    1.418   .     A
C401   C1248   1.406   .     S
C402   C404    1.418   .     A
C402   C1247   1.406   1_554 S
C405   C431    1.490   .     S
C405   C1225   1.404   .     S
C406   C435    1.477   .     S
C406   C1226   1.402   1_554 S
N407   Zn417   2.021   .     S
N408   Zn418   2.021   .     S
O409   Zn417   2.056   .     S
O410   Zn418   2.056   .     S
O411   Zn417   2.019   .     S
O412   Zn418   2.019   .     S
O413   Zn417   2.025   .     S
O414   Zn418   2.025   .     S
O415   Zn417   2.006   .     S
O416   Zn418   2.006   .     S
C419   N420    1.158   .     T
C421   N422    1.158   .     T
C423   O425    1.398   .     S
C423   O424    1.221   .     D
O425   H426    1.014   .     S
C427   O428    1.222   .     D
C427   O429    1.398   .     S
O429   H430    1.014   .     S
C431   O432    1.223   .     D
C431   O433    1.397   .     S
O433   H434    1.013   .     S
C435   O436    1.219   .     D
C435   O437    1.399   .     S
O437   H438    1.013   .     S
C439   O441    1.399   .     S
C439   O440    1.221   .     D
O441   H442    1.011   .     S
C443   O444    1.220   .     D
C443   O445    1.396   .     S
O445   H446    1.014   .     S
C447   O448    1.220   .     D
C447   O449    1.399   .     S
O449   H450    1.013   .     S
C451   O452    1.223   .     D
C451   O453    1.398   .     S
O453   H454    1.014   .     S
C455   O456    1.222   .     D
C455   O457    1.398   .     S
O457   H458    1.013   .     S
C459   O460    1.223   .     D
C459   O461    1.398   .     S
O461   H462    1.014   .     S
C463   N464    1.154   .     T
C465   N466    1.154   .     T
C467   N468    1.158   .     T
C469   N470    1.158   .     T
C471   O503    1.295   .     A
C471   C480    1.460   .     S
C471   O506    1.296   .     A
C472   O505    1.297   .     A
C472   O504    1.295   .     A
C472   C479    1.461   .     S
C473   C498    1.418   .     A
C473   C533    1.475   .     S
C473   C1345   1.404   1_554 S
C474   C497    1.415   .     A
C474   C537    1.490   .     S
C474   C1346   1.402   .     S
C475   C480    1.417   .     A
C475   C541    1.497   .     S
C476   C479    1.416   .     A
C476   C545    1.492   .     S
C476   C290    1.397   1_655 S
C477   C549    1.486   .     S
C477   C479    1.415   .     A
C477   C287    1.394   1_655 S
C478   C553    1.489   .     S
C478   C480    1.417   .     A
C481   C557    1.433   .     S
C481   N502    1.370   .     A
C482   C559    1.434   .     S
C482   N501    1.373   .     A
C482   C765    1.422   .     S
C483   N502    1.364   .     A
C483   C561    1.445   .     S
C484   N501    1.367   .     A
C484   C563    1.444   .     S
C484   C763    1.424   .     S
C485   O507    1.300   .     A
C485   C490    1.446   .     S
C485   O510    1.278   .     A
C486   C489    1.439   .     S
C486   O509    1.287   .     A
C486   O508    1.291   .     A
C487   C497    1.409   .     A
C487   C513    1.456   .     S
C487   C489    1.398   .     A
C488   C498    1.413   .     A
C488   C515    1.456   .     S
C488   C490    1.398   .     A
C489   C491    1.399   .     A
C490   C492    1.408   .     A
C491   C493    1.406   .     A
C491   C517    1.490   .     S
C492   C494    1.416   .     A
C492   C521    1.489   .     S
C493   C499    1.417   .     A
C493   C495    1.419   .     A
C494   C496    1.421   .     A
C494   C500    1.424   .     A
C495   C497    1.418   .     A
C495   C1342   1.406   .     S
C496   C498    1.418   .     A
C496   C1341   1.406   1_554 S
C499   C525    1.490   .     S
C499   C1319   1.404   .     S
C500   C529    1.477   .     S
C500   C1320   1.402   1_554 S
N501   Zn511   2.021   .     S
N502   Zn512   2.021   .     S
O503   Zn511   2.056   .     S
O504   Zn512   2.056   .     S
O505   Zn511   2.019   .     S
O506   Zn512   2.019   .     S
O507   Zn511   2.025   .     S
O508   Zn512   2.025   .     S
O509   Zn511   2.006   .     S
O510   Zn512   2.006   .     S
C513   N514    1.158   .     T
C515   N516    1.158   .     T
C517   O519    1.398   .     S
C517   O518    1.221   .     D
O519   H520    1.014   .     S
C521   O522    1.222   .     D
C521   O523    1.398   .     S
O523   H524    1.014   .     S
C525   O526    1.223   .     D
C525   O527    1.397   .     S
O527   H528    1.013   .     S
C529   O530    1.219   .     D
C529   O531    1.399   .     S
O531   H532    1.013   .     S
C533   O535    1.399   .     S
C533   O534    1.221   .     D
O535   H536    1.011   .     S
C537   O538    1.220   .     D
C537   O539    1.396   .     S
O539   H540    1.014   .     S
C541   O542    1.220   .     D
C541   O543    1.399   .     S
O543   H544    1.013   .     S
C545   O546    1.223   .     D
C545   O547    1.398   .     S
O547   H548    1.014   .     S
C549   O550    1.222   .     D
C549   O551    1.398   .     S
O551   H552    1.013   .     S
C553   O554    1.223   .     D
C553   O555    1.398   .     S
O555   H556    1.014   .     S
C557   N558    1.154   .     T
C559   N560    1.154   .     T
C561   N562    1.158   .     T
C563   N564    1.158   .     T
C565   O597    1.295   .     A
C565   C574    1.460   .     S
C565   O600    1.296   .     A
C566   O599    1.297   .     A
C566   O598    1.295   .     A
C566   C573    1.461   .     S
C567   C592    1.418   .     A
C567   C627    1.475   .     S
C567   C1439   1.404   1_554 S
C568   C591    1.415   .     A
C568   C631    1.490   .     S
C568   C1440   1.402   .     S
C569   C574    1.417   .     A
C569   C635    1.497   .     S
C569   C759    1.394   1_455 S
C570   C573    1.416   .     A
C570   C639    1.492   .     S
C570   C666    1.397   .     S
C571   C643    1.486   .     S
C571   C573    1.415   .     A
C571   C663    1.394   .     S
C572   C647    1.489   .     S
C572   C574    1.417   .     A
C572   C758    1.397   1_455 S
C575   C651    1.433   .     S
C575   N596    1.370   .     A
C576   C653    1.434   .     S
C576   N595    1.373   .     A
C576   C13     1.422   1_565 S
C577   N596    1.364   .     A
C577   C655    1.445   .     S
C578   N595    1.367   .     A
C578   C657    1.444   .     S
C578   C11     1.424   1_565 S
C579   O601    1.300   .     A
C579   C584    1.446   .     S
C579   O604    1.278   .     A
C580   C583    1.439   .     S
C580   O603    1.287   .     A
C580   O602    1.291   .     A
C581   C591    1.409   .     A
C581   C607    1.456   .     S
C581   C583    1.398   .     A
C582   C592    1.413   .     A
C582   C609    1.456   .     S
C582   C584    1.398   .     A
C583   C585    1.399   .     A
C584   C586    1.408   .     A
C585   C587    1.406   .     A
C585   C611    1.490   .     S
C586   C588    1.416   .     A
C586   C615    1.489   .     S
C587   C593    1.417   .     A
C587   C589    1.419   .     A
C588   C590    1.421   .     A
C588   C594    1.424   .     A
C589   C591    1.418   .     A
C589   C1436   1.406   .     S
C590   C592    1.418   .     A
C590   C1435   1.406   1_554 S
C593   C619    1.490   .     S
C593   C1413   1.404   .     S
C594   C623    1.477   .     S
C594   C1414   1.402   1_554 S
N595   Zn605   2.021   .     S
N596   Zn606   2.021   .     S
O597   Zn605   2.056   .     S
O598   Zn606   2.056   .     S
O599   Zn605   2.019   .     S
O600   Zn606   2.019   .     S
O601   Zn605   2.025   .     S
O602   Zn606   2.025   .     S
O603   Zn605   2.006   .     S
O604   Zn606   2.006   .     S
C607   N608    1.158   .     T
C609   N610    1.158   .     T
C611   O613    1.398   .     S
C611   O612    1.221   .     D
O613   H614    1.014   .     S
C615   O616    1.222   .     D
C615   O617    1.398   .     S
O617   H618    1.014   .     S
C619   O620    1.223   .     D
C619   O621    1.397   .     S
O621   H622    1.013   .     S
C623   O624    1.219   .     D
C623   O625    1.399   .     S
O625   H626    1.013   .     S
C627   O629    1.399   .     S
C627   O628    1.221   .     D
O629   H630    1.011   .     S
C631   O632    1.220   .     D
C631   O633    1.396   .     S
O633   H634    1.014   .     S
C635   O636    1.220   .     D
C635   O637    1.399   .     S
O637   H638    1.013   .     S
C639   O640    1.223   .     D
C639   O641    1.398   .     S
O641   H642    1.014   .     S
C643   O644    1.222   .     D
C643   O645    1.398   .     S
O645   H646    1.013   .     S
C647   O648    1.223   .     D
C647   O649    1.398   .     S
O649   H650    1.014   .     S
C651   N652    1.154   .     T
C653   N654    1.154   .     T
C655   N656    1.158   .     T
C657   N658    1.158   .     T
C659   O691    1.295   .     A
C659   C668    1.460   .     S
C659   O694    1.296   .     A
C660   O693    1.297   .     A
C660   O692    1.295   .     A
C660   C667    1.461   .     S
C661   C686    1.418   .     A
C661   C721    1.475   .     S
C661   C1533   1.404   1_554 S
C662   C685    1.415   .     A
C662   C725    1.490   .     S
C662   C1534   1.402   .     S
C663   C668    1.417   .     A
C663   C729    1.497   .     S
C664   C667    1.416   .     A
C664   C733    1.492   .     S
C664   C760    1.397   .     S
C665   C737    1.486   .     S
C665   C667    1.415   .     A
C665   C757    1.394   .     S
C666   C741    1.489   .     S
C666   C668    1.417   .     A
C669   C745    1.433   .     S
C669   N690    1.370   .     A
C670   C747    1.434   .     S
C670   N689    1.373   .     A
C670   C107    1.422   1_565 S
C671   N690    1.364   .     A
C671   C749    1.445   .     S
C672   N689    1.367   .     A
C672   C751    1.444   .     S
C672   C105    1.424   1_565 S
C673   O695    1.300   .     A
C673   C678    1.446   .     S
C673   O698    1.278   .     A
C674   C677    1.439   .     S
C674   O697    1.287   .     A
C674   O696    1.291   .     A
C675   C685    1.409   .     A
C675   C701    1.456   .     S
C675   C677    1.398   .     A
C676   C686    1.413   .     A
C676   C703    1.456   .     S
C676   C678    1.398   .     A
C677   C679    1.399   .     A
C678   C680    1.408   .     A
C679   C681    1.406   .     A
C679   C705    1.490   .     S
C680   C682    1.416   .     A
C680   C709    1.489   .     S
C681   C687    1.417   .     A
C681   C683    1.419   .     A
C682   C684    1.421   .     A
C682   C688    1.424   .     A
C683   C685    1.418   .     A
C683   C1530   1.406   .     S
C684   C686    1.418   .     A
C684   C1529   1.406   1_554 S
C687   C713    1.490   .     S
C687   C1507   1.404   .     S
C688   C717    1.477   .     S
C688   C1508   1.402   1_554 S
N689   Zn699   2.021   .     S
N690   Zn700   2.021   .     S
O691   Zn699   2.056   .     S
O692   Zn700   2.056   .     S
O693   Zn699   2.019   .     S
O694   Zn700   2.019   .     S
O695   Zn699   2.025   .     S
O696   Zn700   2.025   .     S
O697   Zn699   2.006   .     S
O698   Zn700   2.006   .     S
C701   N702    1.158   .     T
C703   N704    1.158   .     T
C705   O707    1.398   .     S
C705   O706    1.221   .     D
O707   H708    1.014   .     S
C709   O710    1.222   .     D
C709   O711    1.398   .     S
O711   H712    1.014   .     S
C713   O714    1.223   .     D
C713   O715    1.397   .     S
O715   H716    1.013   .     S
C717   O718    1.219   .     D
C717   O719    1.399   .     S
O719   H720    1.013   .     S
C721   O723    1.399   .     S
C721   O722    1.221   .     D
O723   H724    1.011   .     S
C725   O726    1.220   .     D
C725   O727    1.396   .     S
O727   H728    1.014   .     S
C729   O730    1.220   .     D
C729   O731    1.399   .     S
O731   H732    1.013   .     S
C733   O734    1.223   .     D
C733   O735    1.398   .     S
O735   H736    1.014   .     S
C737   O738    1.222   .     D
C737   O739    1.398   .     S
O739   H740    1.013   .     S
C741   O742    1.223   .     D
C741   O743    1.398   .     S
O743   H744    1.014   .     S
C745   N746    1.154   .     T
C747   N748    1.154   .     T
C749   N750    1.158   .     T
C751   N752    1.158   .     T
C753   O785    1.295   .     A
C753   C762    1.460   .     S
C753   O788    1.296   .     A
C754   O787    1.297   .     A
C754   O786    1.295   .     A
C754   C761    1.461   .     S
C755   C780    1.418   .     A
C755   C815    1.475   .     S
C755   C1627   1.404   1_554 S
C756   C779    1.415   .     A
C756   C819    1.490   .     S
C756   C1628   1.402   .     S
C757   C762    1.417   .     A
C757   C823    1.497   .     S
C758   C761    1.416   .     A
C758   C827    1.492   .     S
C758   C572    1.397   1_655 S
C759   C831    1.486   .     S
C759   C761    1.415   .     A
C759   C569    1.394   1_655 S
C760   C835    1.489   .     S
C760   C762    1.417   .     A
C763   C839    1.433   .     S
C763   N784    1.370   .     A
C764   C841    1.434   .     S
C764   N783    1.373   .     A
C764   C201    1.422   1_565 S
C765   N784    1.364   .     A
C765   C843    1.445   .     S
C766   N783    1.367   .     A
C766   C845    1.444   .     S
C766   C199    1.424   1_565 S
C767   O789    1.300   .     A
C767   C772    1.446   .     S
C767   O792    1.278   .     A
C768   C771    1.439   .     S
C768   O791    1.287   .     A
C768   O790    1.291   .     A
C769   C779    1.409   .     A
C769   C795    1.456   .     S
C769   C771    1.398   .     A
C770   C780    1.413   .     A
C770   C797    1.456   .     S
C770   C772    1.398   .     A
C771   C773    1.399   .     A
C772   C774    1.408   .     A
C773   C775    1.406   .     A
C773   C799    1.490   .     S
C774   C776    1.416   .     A
C774   C803    1.489   .     S
C775   C781    1.417   .     A
C775   C777    1.419   .     A
C776   C778    1.421   .     A
C776   C782    1.424   .     A
C777   C779    1.418   .     A
C777   C1624   1.406   .     S
C778   C780    1.418   .     A
C778   C1623   1.406   1_554 S
C781   C807    1.490   .     S
C781   C1601   1.404   .     S
C782   C811    1.477   .     S
C782   C1602   1.402   1_554 S
N783   Zn793   2.021   .     S
N784   Zn794   2.021   .     S
O785   Zn793   2.056   .     S
O786   Zn794   2.056   .     S
O787   Zn793   2.019   .     S
O788   Zn794   2.019   .     S
O789   Zn793   2.025   .     S
O790   Zn794   2.025   .     S
O791   Zn793   2.006   .     S
O792   Zn794   2.006   .     S
C795   N796    1.158   .     T
C797   N798    1.158   .     T
C799   O801    1.398   .     S
C799   O800    1.221   .     D
O801   H802    1.014   .     S
C803   O804    1.222   .     D
C803   O805    1.398   .     S
O805   H806    1.014   .     S
C807   O808    1.223   .     D
C807   O809    1.397   .     S
O809   H810    1.013   .     S
C811   O812    1.219   .     D
C811   O813    1.399   .     S
O813   H814    1.013   .     S
C815   O817    1.399   .     S
C815   O816    1.221   .     D
O817   H818    1.011   .     S
C819   O820    1.220   .     D
C819   O821    1.396   .     S
O821   H822    1.014   .     S
C823   O824    1.220   .     D
C823   O825    1.399   .     S
O825   H826    1.013   .     S
C827   O828    1.223   .     D
C827   O829    1.398   .     S
O829   H830    1.014   .     S
C831   O832    1.222   .     D
C831   O833    1.398   .     S
O833   H834    1.013   .     S
C835   O836    1.223   .     D
C835   O837    1.398   .     S
O837   H838    1.014   .     S
C839   N840    1.154   .     T
C841   N842    1.154   .     T
C843   N844    1.158   .     T
C845   N846    1.158   .     T
C847   O879    1.295   .     A
C847   C856    1.460   .     S
C847   O882    1.296   .     A
C848   O881    1.297   .     A
C848   O880    1.295   .     A
C848   C855    1.461   .     S
C849   C874    1.418   .     A
C849   C909    1.475   .     S
C850   C873    1.415   .     A
C850   C913    1.490   .     S
C850   C30     1.402   1_556 S
C851   C856    1.417   .     A
C851   C917    1.497   .     S
C851   C1041   1.394   1_455 S
C852   C855    1.416   .     A
C852   C921    1.492   .     S
C852   C948    1.397   .     S
C853   C925    1.486   .     S
C853   C855    1.415   .     A
C853   C945    1.394   .     S
C854   C929    1.489   .     S
C854   C856    1.417   .     A
C854   C1040   1.397   1_455 S
C857   C933    1.433   .     S
C857   N878    1.370   .     A
C857   C1424   1.424   1_545 S
C858   C935    1.434   .     S
C858   N877    1.373   .     A
C858   C1141   1.422   .     S
C859   N878    1.364   .     A
C859   C937    1.445   .     S
C859   C1422   1.422   1_545 S
C860   N877    1.367   .     A
C860   C939    1.444   .     S
C860   C1139   1.424   .     S
C861   O883    1.300   .     A
C861   C866    1.446   .     S
C861   O886    1.278   .     A
C862   C865    1.439   .     S
C862   O885    1.287   .     A
C862   O884    1.291   .     A
C863   C873    1.409   .     A
C863   C889    1.456   .     S
C863   C865    1.398   .     A
C864   C874    1.413   .     A
C864   C891    1.456   .     S
C864   C866    1.398   .     A
C865   C867    1.399   .     A
C866   C868    1.408   .     A
C867   C869    1.406   .     A
C867   C893    1.490   .     S
C868   C870    1.416   .     A
C868   C897    1.489   .     S
C869   C875    1.417   .     A
C869   C871    1.419   .     A
C870   C872    1.421   .     A
C870   C876    1.424   .     A
C871   C873    1.418   .     A
C871   C26     1.406   1_556 S
C872   C874    1.418   .     A
C875   C901    1.490   .     S
C875   C3      1.404   1_556 S
C876   C905    1.477   .     S
N877   Zn887   2.021   .     S
N878   Zn888   2.021   .     S
O879   Zn887   2.056   .     S
O880   Zn888   2.056   .     S
O881   Zn887   2.019   .     S
O882   Zn888   2.019   .     S
O883   Zn887   2.025   .     S
O884   Zn888   2.025   .     S
O885   Zn887   2.006   .     S
O886   Zn888   2.006   .     S
C889   N890    1.158   .     T
C891   N892    1.158   .     T
C893   O895    1.398   .     S
C893   O894    1.221   .     D
O895   H896    1.014   .     S
C897   O898    1.222   .     D
C897   O899    1.398   .     S
O899   H900    1.014   .     S
C901   O902    1.223   .     D
C901   O903    1.397   .     S
O903   H904    1.013   .     S
C905   O906    1.219   .     D
C905   O907    1.399   .     S
O907   H908    1.013   .     S
C909   O911    1.399   .     S
C909   O910    1.221   .     D
O911   H912    1.011   .     S
C913   O914    1.220   .     D
C913   O915    1.396   .     S
O915   H916    1.014   .     S
C917   O918    1.220   .     D
C917   O919    1.399   .     S
O919   H920    1.013   .     S
C921   O922    1.223   .     D
C921   O923    1.398   .     S
O923   H924    1.014   .     S
C925   O926    1.222   .     D
C925   O927    1.398   .     S
O927   H928    1.013   .     S
C929   O930    1.223   .     D
C929   O931    1.398   .     S
O931   H932    1.014   .     S
C933   N934    1.154   .     T
C935   N936    1.154   .     T
C937   N938    1.158   .     T
C939   N940    1.158   .     T
C941   O973    1.295   .     A
C941   C950    1.460   .     S
C941   O976    1.296   .     A
C942   O975    1.297   .     A
C942   O974    1.295   .     A
C942   C949    1.461   .     S
C943   C968    1.418   .     A
C943   C1003   1.475   .     S
C944   C967    1.415   .     A
C944   C1007   1.490   .     S
C944   C124    1.402   1_556 S
C945   C950    1.417   .     A
C945   C1011   1.497   .     S
C946   C949    1.416   .     A
C946   C1015   1.492   .     S
C946   C1042   1.397   .     S
C947   C1019   1.486   .     S
C947   C949    1.415   .     A
C947   C1039   1.394   .     S
C948   C1023   1.489   .     S
C948   C950    1.417   .     A
C951   C1027   1.433   .     S
C951   N972    1.370   .     A
C951   C1518   1.424   1_545 S
C952   C1029   1.434   .     S
C952   N971    1.373   .     A
C952   C1235   1.422   .     S
C953   N972    1.364   .     A
C953   C1031   1.445   .     S
C953   C1516   1.422   1_545 S
C954   N971    1.367   .     A
C954   C1033   1.444   .     S
C954   C1233   1.424   .     S
C955   O977    1.300   .     A
C955   C960    1.446   .     S
C955   O980    1.278   .     A
C956   C959    1.439   .     S
C956   O979    1.287   .     A
C956   O978    1.291   .     A
C957   C967    1.409   .     A
C957   C983    1.456   .     S
C957   C959    1.398   .     A
C958   C968    1.413   .     A
C958   C985    1.456   .     S
C958   C960    1.398   .     A
C959   C961    1.399   .     A
C960   C962    1.408   .     A
C961   C963    1.406   .     A
C961   C987    1.490   .     S
C962   C964    1.416   .     A
C962   C991    1.489   .     S
C963   C969    1.417   .     A
C963   C965    1.419   .     A
C964   C966    1.421   .     A
C964   C970    1.424   .     A
C965   C967    1.418   .     A
C965   C120    1.406   1_556 S
C966   C968    1.418   .     A
C969   C995    1.490   .     S
C969   C97     1.404   1_556 S
C970   C999    1.477   .     S
N971   Zn981   2.021   .     S
N972   Zn982   2.021   .     S
O973   Zn981   2.056   .     S
O974   Zn982   2.056   .     S
O975   Zn981   2.019   .     S
O976   Zn982   2.019   .     S
O977   Zn981   2.025   .     S
O978   Zn982   2.025   .     S
O979   Zn981   2.006   .     S
O980   Zn982   2.006   .     S
C983   N984    1.158   .     T
C985   N986    1.158   .     T
C987   O989    1.398   .     S
C987   O988    1.221   .     D
O989   H990    1.014   .     S
C991   O992    1.222   .     D
C991   O993    1.398   .     S
O993   H994    1.014   .     S
C995   O996    1.223   .     D
C995   O997    1.397   .     S
O997   H998    1.013   .     S
C999   O1000   1.219   .     D
C999   O1001   1.399   .     S
O1001  H1002   1.013   .     S
C1003  O1005   1.399   .     S
C1003  O1004   1.221   .     D
O1005  H1006   1.011   .     S
C1007  O1008   1.220   .     D
C1007  O1009   1.396   .     S
O1009  H1010   1.014   .     S
C1011  O1012   1.220   .     D
C1011  O1013   1.399   .     S
O1013  H1014   1.013   .     S
C1015  O1016   1.223   .     D
C1015  O1017   1.398   .     S
O1017  H1018   1.014   .     S
C1019  O1020   1.222   .     D
C1019  O1021   1.398   .     S
O1021  H1022   1.013   .     S
C1023  O1024   1.223   .     D
C1023  O1025   1.398   .     S
O1025  H1026   1.014   .     S
C1027  N1028   1.154   .     T
C1029  N1030   1.154   .     T
C1031  N1032   1.158   .     T
C1033  N1034   1.158   .     T
C1035  O1067   1.295   .     A
C1035  C1044   1.460   .     S
C1035  O1070   1.296   .     A
C1036  O1069   1.297   .     A
C1036  O1068   1.295   .     A
C1036  C1043   1.461   .     S
C1037  C1062   1.418   .     A
C1037  C1097   1.475   .     S
C1038  C1061   1.415   .     A
C1038  C1101   1.490   .     S
C1038  C218    1.402   1_556 S
C1039  C1044   1.417   .     A
C1039  C1105   1.497   .     S
C1040  C1043   1.416   .     A
C1040  C1109   1.492   .     S
C1040  C854    1.397   1_655 S
C1041  C1113   1.486   .     S
C1041  C1043   1.415   .     A
C1041  C851    1.394   1_655 S
C1042  C1117   1.489   .     S
C1042  C1044   1.417   .     A
C1045  C1121   1.433   .     S
C1045  N1066   1.370   .     A
C1045  C1612   1.424   1_545 S
C1046  C1123   1.434   .     S
C1046  N1065   1.373   .     A
C1046  C1329   1.422   .     S
C1047  N1066   1.364   .     A
C1047  C1125   1.445   .     S
C1047  C1610   1.422   1_545 S
C1048  N1065   1.367   .     A
C1048  C1127   1.444   .     S
C1048  C1327   1.424   .     S
C1049  O1071   1.300   .     A
C1049  C1054   1.446   .     S
C1049  O1074   1.278   .     A
C1050  C1053   1.439   .     S
C1050  O1073   1.287   .     A
C1050  O1072   1.291   .     A
C1051  C1061   1.409   .     A
C1051  C1077   1.456   .     S
C1051  C1053   1.398   .     A
C1052  C1062   1.413   .     A
C1052  C1079   1.456   .     S
C1052  C1054   1.398   .     A
C1053  C1055   1.399   .     A
C1054  C1056   1.408   .     A
C1055  C1057   1.406   .     A
C1055  C1081   1.490   .     S
C1056  C1058   1.416   .     A
C1056  C1085   1.489   .     S
C1057  C1063   1.417   .     A
C1057  C1059   1.419   .     A
C1058  C1060   1.421   .     A
C1058  C1064   1.424   .     A
C1059  C1061   1.418   .     A
C1059  C214    1.406   1_556 S
C1060  C1062   1.418   .     A
C1063  C1089   1.490   .     S
C1063  C191    1.404   1_556 S
C1064  C1093   1.477   .     S
N1065  Zn1075  2.021   .     S
N1066  Zn1076  2.021   .     S
O1067  Zn1075  2.056   .     S
O1068  Zn1076  2.056   .     S
O1069  Zn1075  2.019   .     S
O1070  Zn1076  2.019   .     S
O1071  Zn1075  2.025   .     S
O1072  Zn1076  2.025   .     S
O1073  Zn1075  2.006   .     S
O1074  Zn1076  2.006   .     S
C1077  N1078   1.158   .     T
C1079  N1080   1.158   .     T
C1081  O1083   1.398   .     S
C1081  O1082   1.221   .     D
O1083  H1084   1.014   .     S
C1085  O1086   1.222   .     D
C1085  O1087   1.398   .     S
O1087  H1088   1.014   .     S
C1089  O1090   1.223   .     D
C1089  O1091   1.397   .     S
O1091  H1092   1.013   .     S
C1093  O1094   1.219   .     D
C1093  O1095   1.399   .     S
O1095  H1096   1.013   .     S
C1097  O1099   1.399   .     S
C1097  O1098   1.221   .     D
O1099  H1100   1.011   .     S
C1101  O1102   1.220   .     D
C1101  O1103   1.396   .     S
O1103  H1104   1.014   .     S
C1105  O1106   1.220   .     D
C1105  O1107   1.399   .     S
O1107  H1108   1.013   .     S
C1109  O1110   1.223   .     D
C1109  O1111   1.398   .     S
O1111  H1112   1.014   .     S
C1113  O1114   1.222   .     D
C1113  O1115   1.398   .     S
O1115  H1116   1.013   .     S
C1117  O1118   1.223   .     D
C1117  O1119   1.398   .     S
O1119  H1120   1.014   .     S
C1121  N1122   1.154   .     T
C1123  N1124   1.154   .     T
C1125  N1126   1.158   .     T
C1127  N1128   1.158   .     T
C1129  O1161   1.295   .     A
C1129  C1138   1.460   .     S
C1129  O1164   1.296   .     A
C1130  O1163   1.297   .     A
C1130  O1162   1.295   .     A
C1130  C1137   1.461   .     S
C1131  C1156   1.418   .     A
C1131  C1191   1.475   .     S
C1132  C1155   1.415   .     A
C1132  C1195   1.490   .     S
C1132  C312    1.402   1_556 S
C1133  C1138   1.417   .     A
C1133  C1199   1.497   .     S
C1133  C1323   1.394   1_455 S
C1134  C1137   1.416   .     A
C1134  C1203   1.492   .     S
C1134  C1230   1.397   .     S
C1135  C1207   1.486   .     S
C1135  C1137   1.415   .     A
C1135  C1227   1.394   .     S
C1136  C1211   1.489   .     S
C1136  C1138   1.417   .     A
C1136  C1322   1.397   1_455 S
C1139  C1215   1.433   .     S
C1139  N1160   1.370   .     A
C1140  C1217   1.434   .     S
C1140  N1159   1.373   .     A
C1140  C1423   1.422   .     S
C1141  N1160   1.364   .     A
C1141  C1219   1.445   .     S
C1142  N1159   1.367   .     A
C1142  C1221   1.444   .     S
C1142  C1421   1.424   .     S
C1143  O1165   1.300   .     A
C1143  C1148   1.446   .     S
C1143  O1168   1.278   .     A
C1144  C1147   1.439   .     S
C1144  O1167   1.287   .     A
C1144  O1166   1.291   .     A
C1145  C1155   1.409   .     A
C1145  C1171   1.456   .     S
C1145  C1147   1.398   .     A
C1146  C1156   1.413   .     A
C1146  C1173   1.456   .     S
C1146  C1148   1.398   .     A
C1147  C1149   1.399   .     A
C1148  C1150   1.408   .     A
C1149  C1151   1.406   .     A
C1149  C1175   1.490   .     S
C1150  C1152   1.416   .     A
C1150  C1179   1.489   .     S
C1151  C1157   1.417   .     A
C1151  C1153   1.419   .     A
C1152  C1154   1.421   .     A
C1152  C1158   1.424   .     A
C1153  C1155   1.418   .     A
C1153  C308    1.406   1_556 S
C1154  C1156   1.418   .     A
C1157  C1183   1.490   .     S
C1157  C285    1.404   1_556 S
C1158  C1187   1.477   .     S
N1159  Zn1169  2.021   .     S
N1160  Zn1170  2.021   .     S
O1161  Zn1169  2.056   .     S
O1162  Zn1170  2.056   .     S
O1163  Zn1169  2.019   .     S
O1164  Zn1170  2.019   .     S
O1165  Zn1169  2.025   .     S
O1166  Zn1170  2.025   .     S
O1167  Zn1169  2.006   .     S
O1168  Zn1170  2.006   .     S
C1171  N1172   1.158   .     T
C1173  N1174   1.158   .     T
C1175  O1177   1.398   .     S
C1175  O1176   1.221   .     D
O1177  H1178   1.014   .     S
C1179  O1180   1.222   .     D
C1179  O1181   1.398   .     S
O1181  H1182   1.014   .     S
C1183  O1184   1.223   .     D
C1183  O1185   1.397   .     S
O1185  H1186   1.013   .     S
C1187  O1188   1.219   .     D
C1187  O1189   1.399   .     S
O1189  H1190   1.013   .     S
C1191  O1193   1.399   .     S
C1191  O1192   1.221   .     D
O1193  H1194   1.011   .     S
C1195  O1196   1.220   .     D
C1195  O1197   1.396   .     S
O1197  H1198   1.014   .     S
C1199  O1200   1.220   .     D
C1199  O1201   1.399   .     S
O1201  H1202   1.013   .     S
C1203  O1204   1.223   .     D
C1203  O1205   1.398   .     S
O1205  H1206   1.014   .     S
C1207  O1208   1.222   .     D
C1207  O1209   1.398   .     S
O1209  H1210   1.013   .     S
C1211  O1212   1.223   .     D
C1211  O1213   1.398   .     S
O1213  H1214   1.014   .     S
C1215  N1216   1.154   .     T
C1217  N1218   1.154   .     T
C1219  N1220   1.158   .     T
C1221  N1222   1.158   .     T
C1223  O1255   1.295   .     A
C1223  C1232   1.460   .     S
C1223  O1258   1.296   .     A
C1224  O1257   1.297   .     A
C1224  O1256   1.295   .     A
C1224  C1231   1.461   .     S
C1225  C1250   1.418   .     A
C1225  C1285   1.475   .     S
C1226  C1249   1.415   .     A
C1226  C1289   1.490   .     S
C1226  C406    1.402   1_556 S
C1227  C1232   1.417   .     A
C1227  C1293   1.497   .     S
C1228  C1231   1.416   .     A
C1228  C1297   1.492   .     S
C1228  C1324   1.397   .     S
C1229  C1301   1.486   .     S
C1229  C1231   1.415   .     A
C1229  C1321   1.394   .     S
C1230  C1305   1.489   .     S
C1230  C1232   1.417   .     A
C1233  C1309   1.433   .     S
C1233  N1254   1.370   .     A
C1234  C1311   1.434   .     S
C1234  N1253   1.373   .     A
C1234  C1517   1.422   .     S
C1235  N1254   1.364   .     A
C1235  C1313   1.445   .     S
C1236  N1253   1.367   .     A
C1236  C1315   1.444   .     S
C1236  C1515   1.424   .     S
C1237  O1259   1.300   .     A
C1237  C1242   1.446   .     S
C1237  O1262   1.278   .     A
C1238  C1241   1.439   .     S
C1238  O1261   1.287   .     A
C1238  O1260   1.291   .     A
C1239  C1249   1.409   .     A
C1239  C1265   1.456   .     S
C1239  C1241   1.398   .     A
C1240  C1250   1.413   .     A
C1240  C1267   1.456   .     S
C1240  C1242   1.398   .     A
C1241  C1243   1.399   .     A
C1242  C1244   1.408   .     A
C1243  C1245   1.406   .     A
C1243  C1269   1.490   .     S
C1244  C1246   1.416   .     A
C1244  C1273   1.489   .     S
C1245  C1251   1.417   .     A
C1245  C1247   1.419   .     A
C1246  C1248   1.421   .     A
C1246  C1252   1.424   .     A
C1247  C1249   1.418   .     A
C1247  C402    1.406   1_556 S
C1248  C1250   1.418   .     A
C1251  C1277   1.490   .     S
C1251  C379    1.404   1_556 S
C1252  C1281   1.477   .     S
N1253  Zn1263  2.021   .     S
N1254  Zn1264  2.021   .     S
O1255  Zn1263  2.056   .     S
O1256  Zn1264  2.056   .     S
O1257  Zn1263  2.019   .     S
O1258  Zn1264  2.019   .     S
O1259  Zn1263  2.025   .     S
O1260  Zn1264  2.025   .     S
O1261  Zn1263  2.006   .     S
O1262  Zn1264  2.006   .     S
C1265  N1266   1.158   .     T
C1267  N1268   1.158   .     T
C1269  O1271   1.398   .     S
C1269  O1270   1.221   .     D
O1271  H1272   1.014   .     S
C1273  O1274   1.222   .     D
C1273  O1275   1.398   .     S
O1275  H1276   1.014   .     S
C1277  O1278   1.223   .     D
C1277  O1279   1.397   .     S
O1279  H1280   1.013   .     S
C1281  O1282   1.219   .     D
C1281  O1283   1.399   .     S
O1283  H1284   1.013   .     S
C1285  O1287   1.399   .     S
C1285  O1286   1.221   .     D
O1287  H1288   1.011   .     S
C1289  O1290   1.220   .     D
C1289  O1291   1.396   .     S
O1291  H1292   1.014   .     S
C1293  O1294   1.220   .     D
C1293  O1295   1.399   .     S
O1295  H1296   1.013   .     S
C1297  O1298   1.223   .     D
C1297  O1299   1.398   .     S
O1299  H1300   1.014   .     S
C1301  O1302   1.222   .     D
C1301  O1303   1.398   .     S
O1303  H1304   1.013   .     S
C1305  O1306   1.223   .     D
C1305  O1307   1.398   .     S
O1307  H1308   1.014   .     S
C1309  N1310   1.154   .     T
C1311  N1312   1.154   .     T
C1313  N1314   1.158   .     T
C1315  N1316   1.158   .     T
C1317  O1349   1.295   .     A
C1317  C1326   1.460   .     S
C1317  O1352   1.296   .     A
C1318  O1351   1.297   .     A
C1318  O1350   1.295   .     A
C1318  C1325   1.461   .     S
C1319  C1344   1.418   .     A
C1319  C1379   1.475   .     S
C1320  C1343   1.415   .     A
C1320  C1383   1.490   .     S
C1320  C500    1.402   1_556 S
C1321  C1326   1.417   .     A
C1321  C1387   1.497   .     S
C1322  C1325   1.416   .     A
C1322  C1391   1.492   .     S
C1322  C1136   1.397   1_655 S
C1323  C1395   1.486   .     S
C1323  C1325   1.415   .     A
C1323  C1133   1.394   1_655 S
C1324  C1399   1.489   .     S
C1324  C1326   1.417   .     A
C1327  C1403   1.433   .     S
C1327  N1348   1.370   .     A
C1328  C1405   1.434   .     S
C1328  N1347   1.373   .     A
C1328  C1611   1.422   .     S
C1329  N1348   1.364   .     A
C1329  C1407   1.445   .     S
C1330  N1347   1.367   .     A
C1330  C1409   1.444   .     S
C1330  C1609   1.424   .     S
C1331  O1353   1.300   .     A
C1331  C1336   1.446   .     S
C1331  O1356   1.278   .     A
C1332  C1335   1.439   .     S
C1332  O1355   1.287   .     A
C1332  O1354   1.291   .     A
C1333  C1343   1.409   .     A
C1333  C1359   1.456   .     S
C1333  C1335   1.398   .     A
C1334  C1344   1.413   .     A
C1334  C1361   1.456   .     S
C1334  C1336   1.398   .     A
C1335  C1337   1.399   .     A
C1336  C1338   1.408   .     A
C1337  C1339   1.406   .     A
C1337  C1363   1.490   .     S
C1338  C1340   1.416   .     A
C1338  C1367   1.489   .     S
C1339  C1345   1.417   .     A
C1339  C1341   1.419   .     A
C1340  C1342   1.421   .     A
C1340  C1346   1.424   .     A
C1341  C1343   1.418   .     A
C1341  C496    1.406   1_556 S
C1342  C1344   1.418   .     A
C1345  C1371   1.490   .     S
C1345  C473    1.404   1_556 S
C1346  C1375   1.477   .     S
N1347  Zn1357  2.021   .     S
N1348  Zn1358  2.021   .     S
O1349  Zn1357  2.056   .     S
O1350  Zn1358  2.056   .     S
O1351  Zn1357  2.019   .     S
O1352  Zn1358  2.019   .     S
O1353  Zn1357  2.025   .     S
O1354  Zn1358  2.025   .     S
O1355  Zn1357  2.006   .     S
O1356  Zn1358  2.006   .     S
C1359  N1360   1.158   .     T
C1361  N1362   1.158   .     T
C1363  O1365   1.398   .     S
C1363  O1364   1.221   .     D
O1365  H1366   1.014   .     S
C1367  O1368   1.222   .     D
C1367  O1369   1.398   .     S
O1369  H1370   1.014   .     S
C1371  O1372   1.223   .     D
C1371  O1373   1.397   .     S
O1373  H1374   1.013   .     S
C1375  O1376   1.219   .     D
C1375  O1377   1.399   .     S
O1377  H1378   1.013   .     S
C1379  O1381   1.399   .     S
C1379  O1380   1.221   .     D
O1381  H1382   1.011   .     S
C1383  O1384   1.220   .     D
C1383  O1385   1.396   .     S
O1385  H1386   1.014   .     S
C1387  O1388   1.220   .     D
C1387  O1389   1.399   .     S
O1389  H1390   1.013   .     S
C1391  O1392   1.223   .     D
C1391  O1393   1.398   .     S
O1393  H1394   1.014   .     S
C1395  O1396   1.222   .     D
C1395  O1397   1.398   .     S
O1397  H1398   1.013   .     S
C1399  O1400   1.223   .     D
C1399  O1401   1.398   .     S
O1401  H1402   1.014   .     S
C1403  N1404   1.154   .     T
C1405  N1406   1.154   .     T
C1407  N1408   1.158   .     T
C1409  N1410   1.158   .     T
C1411  O1443   1.295   .     A
C1411  C1420   1.460   .     S
C1411  O1446   1.296   .     A
C1412  O1445   1.297   .     A
C1412  O1444   1.295   .     A
C1412  C1419   1.461   .     S
C1413  C1438   1.418   .     A
C1413  C1473   1.475   .     S
C1414  C1437   1.415   .     A
C1414  C1477   1.490   .     S
C1414  C594    1.402   1_556 S
C1415  C1420   1.417   .     A
C1415  C1481   1.497   .     S
C1415  C1605   1.394   1_455 S
C1416  C1419   1.416   .     A
C1416  C1485   1.492   .     S
C1416  C1512   1.397   .     S
C1417  C1489   1.486   .     S
C1417  C1419   1.415   .     A
C1417  C1509   1.394   .     S
C1418  C1493   1.489   .     S
C1418  C1420   1.417   .     A
C1418  C1604   1.397   1_455 S
C1421  C1497   1.433   .     S
C1421  N1442   1.370   .     A
C1422  C1499   1.434   .     S
C1422  N1441   1.373   .     A
C1422  C859    1.422   1_565 S
C1423  N1442   1.364   .     A
C1423  C1501   1.445   .     S
C1424  N1441   1.367   .     A
C1424  C1503   1.444   .     S
C1424  C857    1.424   1_565 S
C1425  O1447   1.300   .     A
C1425  C1430   1.446   .     S
C1425  O1450   1.278   .     A
C1426  C1429   1.439   .     S
C1426  O1449   1.287   .     A
C1426  O1448   1.291   .     A
C1427  C1437   1.409   .     A
C1427  C1453   1.456   .     S
C1427  C1429   1.398   .     A
C1428  C1438   1.413   .     A
C1428  C1455   1.456   .     S
C1428  C1430   1.398   .     A
C1429  C1431   1.399   .     A
C1430  C1432   1.408   .     A
C1431  C1433   1.406   .     A
C1431  C1457   1.490   .     S
C1432  C1434   1.416   .     A
C1432  C1461   1.489   .     S
C1433  C1439   1.417   .     A
C1433  C1435   1.419   .     A
C1434  C1436   1.421   .     A
C1434  C1440   1.424   .     A
C1435  C1437   1.418   .     A
C1435  C590    1.406   1_556 S
C1436  C1438   1.418   .     A
C1439  C1465   1.490   .     S
C1439  C567    1.404   1_556 S
C1440  C1469   1.477   .     S
N1441  Zn1451  2.021   .     S
N1442  Zn1452  2.021   .     S
O1443  Zn1451  2.056   .     S
O1444  Zn1452  2.056   .     S
O1445  Zn1451  2.019   .     S
O1446  Zn1452  2.019   .     S
O1447  Zn1451  2.025   .     S
O1448  Zn1452  2.025   .     S
O1449  Zn1451  2.006   .     S
O1450  Zn1452  2.006   .     S
C1453  N1454   1.158   .     T
C1455  N1456   1.158   .     T
C1457  O1459   1.398   .     S
C1457  O1458   1.221   .     D
O1459  H1460   1.014   .     S
C1461  O1462   1.222   .     D
C1461  O1463   1.398   .     S
O1463  H1464   1.014   .     S
C1465  O1466   1.223   .     D
C1465  O1467   1.397   .     S
O1467  H1468   1.013   .     S
C1469  O1470   1.219   .     D
C1469  O1471   1.399   .     S
O1471  H1472   1.013   .     S
C1473  O1475   1.399   .     S
C1473  O1474   1.221   .     D
O1475  H1476   1.011   .     S
C1477  O1478   1.220   .     D
C1477  O1479   1.396   .     S
O1479  H1480   1.014   .     S
C1481  O1482   1.220   .     D
C1481  O1483   1.399   .     S
O1483  H1484   1.013   .     S
C1485  O1486   1.223   .     D
C1485  O1487   1.398   .     S
O1487  H1488   1.014   .     S
C1489  O1490   1.222   .     D
C1489  O1491   1.398   .     S
O1491  H1492   1.013   .     S
C1493  O1494   1.223   .     D
C1493  O1495   1.398   .     S
O1495  H1496   1.014   .     S
C1497  N1498   1.154   .     T
C1499  N1500   1.154   .     T
C1501  N1502   1.158   .     T
C1503  N1504   1.158   .     T
C1505  O1537   1.295   .     A
C1505  C1514   1.460   .     S
C1505  O1540   1.296   .     A
C1506  O1539   1.297   .     A
C1506  O1538   1.295   .     A
C1506  C1513   1.461   .     S
C1507  C1532   1.418   .     A
C1507  C1567   1.475   .     S
C1508  C1531   1.415   .     A
C1508  C1571   1.490   .     S
C1508  C688    1.402   1_556 S
C1509  C1514   1.417   .     A
C1509  C1575   1.497   .     S
C1510  C1513   1.416   .     A
C1510  C1579   1.492   .     S
C1510  C1606   1.397   .     S
C1511  C1583   1.486   .     S
C1511  C1513   1.415   .     A
C1511  C1603   1.394   .     S
C1512  C1587   1.489   .     S
C1512  C1514   1.417   .     A
C1515  C1591   1.433   .     S
C1515  N1536   1.370   .     A
C1516  C1593   1.434   .     S
C1516  N1535   1.373   .     A
C1516  C953    1.422   1_565 S
C1517  N1536   1.364   .     A
C1517  C1595   1.445   .     S
C1518  N1535   1.367   .     A
C1518  C1597   1.444   .     S
C1518  C951    1.424   1_565 S
C1519  O1541   1.300   .     A
C1519  C1524   1.446   .     S
C1519  O1544   1.278   .     A
C1520  C1523   1.439   .     S
C1520  O1543   1.287   .     A
C1520  O1542   1.291   .     A
C1521  C1531   1.409   .     A
C1521  C1547   1.456   .     S
C1521  C1523   1.398   .     A
C1522  C1532   1.413   .     A
C1522  C1549   1.456   .     S
C1522  C1524   1.398   .     A
C1523  C1525   1.399   .     A
C1524  C1526   1.408   .     A
C1525  C1527   1.406   .     A
C1525  C1551   1.490   .     S
C1526  C1528   1.416   .     A
C1526  C1555   1.489   .     S
C1527  C1533   1.417   .     A
C1527  C1529   1.419   .     A
C1528  C1530   1.421   .     A
C1528  C1534   1.424   .     A
C1529  C1531   1.418   .     A
C1529  C684    1.406   1_556 S
C1530  C1532   1.418   .     A
C1533  C1559   1.490   .     S
C1533  C661    1.404   1_556 S
C1534  C1563   1.477   .     S
N1535  Zn1545  2.021   .     S
N1536  Zn1546  2.021   .     S
O1537  Zn1545  2.056   .     S
O1538  Zn1546  2.056   .     S
O1539  Zn1545  2.019   .     S
O1540  Zn1546  2.019   .     S
O1541  Zn1545  2.025   .     S
O1542  Zn1546  2.025   .     S
O1543  Zn1545  2.006   .     S
O1544  Zn1546  2.006   .     S
C1547  N1548   1.158   .     T
C1549  N1550   1.158   .     T
C1551  O1553   1.398   .     S
C1551  O1552   1.221   .     D
O1553  H1554   1.014   .     S
C1555  O1556   1.222   .     D
C1555  O1557   1.398   .     S
O1557  H1558   1.014   .     S
C1559  O1560   1.223   .     D
C1559  O1561   1.397   .     S
O1561  H1562   1.013   .     S
C1563  O1564   1.219   .     D
C1563  O1565   1.399   .     S
O1565  H1566   1.013   .     S
C1567  O1569   1.399   .     S
C1567  O1568   1.221   .     D
O1569  H1570   1.011   .     S
C1571  O1572   1.220   .     D
C1571  O1573   1.396   .     S
O1573  H1574   1.014   .     S
C1575  O1576   1.220   .     D
C1575  O1577   1.399   .     S
O1577  H1578   1.013   .     S
C1579  O1580   1.223   .     D
C1579  O1581   1.398   .     S
O1581  H1582   1.014   .     S
C1583  O1584   1.222   .     D
C1583  O1585   1.398   .     S
O1585  H1586   1.013   .     S
C1587  O1588   1.223   .     D
C1587  O1589   1.398   .     S
O1589  H1590   1.014   .     S
C1591  N1592   1.154   .     T
C1593  N1594   1.154   .     T
C1595  N1596   1.158   .     T
C1597  N1598   1.158   .     T
C1599  O1631   1.295   .     A
C1599  C1608   1.460   .     S
C1599  O1634   1.296   .     A
C1600  O1633   1.297   .     A
C1600  O1632   1.295   .     A
C1600  C1607   1.461   .     S
C1601  C1626   1.418   .     A
C1601  C1661   1.475   .     S
C1602  C1625   1.415   .     A
C1602  C1665   1.490   .     S
C1602  C782    1.402   1_556 S
C1603  C1608   1.417   .     A
C1603  C1669   1.497   .     S
C1604  C1607   1.416   .     A
C1604  C1673   1.492   .     S
C1604  C1418   1.397   1_655 S
C1605  C1677   1.486   .     S
C1605  C1607   1.415   .     A
C1605  C1415   1.394   1_655 S
C1606  C1681   1.489   .     S
C1606  C1608   1.417   .     A
C1609  C1685   1.433   .     S
C1609  N1630   1.370   .     A
C1610  C1687   1.434   .     S
C1610  N1629   1.373   .     A
C1610  C1047   1.422   1_565 S
C1611  N1630   1.364   .     A
C1611  C1689   1.445   .     S
C1612  N1629   1.367   .     A
C1612  C1691   1.444   .     S
C1612  C1045   1.424   1_565 S
C1613  O1635   1.300   .     A
C1613  C1618   1.446   .     S
C1613  O1638   1.278   .     A
C1614  C1617   1.439   .     S
C1614  O1637   1.287   .     A
C1614  O1636   1.291   .     A
C1615  C1625   1.409   .     A
C1615  C1641   1.456   .     S
C1615  C1617   1.398   .     A
C1616  C1626   1.413   .     A
C1616  C1643   1.456   .     S
C1616  C1618   1.398   .     A
C1617  C1619   1.399   .     A
C1618  C1620   1.408   .     A
C1619  C1621   1.406   .     A
C1619  C1645   1.490   .     S
C1620  C1622   1.416   .     A
C1620  C1649   1.489   .     S
C1621  C1627   1.417   .     A
C1621  C1623   1.419   .     A
C1622  C1624   1.421   .     A
C1622  C1628   1.424   .     A
C1623  C1625   1.418   .     A
C1623  C778    1.406   1_556 S
C1624  C1626   1.418   .     A
C1627  C1653   1.490   .     S
C1627  C755    1.404   1_556 S
C1628  C1657   1.477   .     S
N1629  Zn1639  2.021   .     S
N1630  Zn1640  2.021   .     S
O1631  Zn1639  2.056   .     S
O1632  Zn1640  2.056   .     S
O1633  Zn1639  2.019   .     S
O1634  Zn1640  2.019   .     S
O1635  Zn1639  2.025   .     S
O1636  Zn1640  2.025   .     S
O1637  Zn1639  2.006   .     S
O1638  Zn1640  2.006   .     S
C1641  N1642   1.158   .     T
C1643  N1644   1.158   .     T
C1645  O1647   1.398   .     S
C1645  O1646   1.221   .     D
O1647  H1648   1.014   .     S
C1649  O1650   1.222   .     D
C1649  O1651   1.398   .     S
O1651  H1652   1.014   .     S
C1653  O1654   1.223   .     D
C1653  O1655   1.397   .     S
O1655  H1656   1.013   .     S
C1657  O1658   1.219   .     D
C1657  O1659   1.399   .     S
O1659  H1660   1.013   .     S
C1661  O1663   1.399   .     S
C1661  O1662   1.221   .     D
O1663  H1664   1.011   .     S
C1665  O1666   1.220   .     D
C1665  O1667   1.396   .     S
O1667  H1668   1.014   .     S
C1669  O1670   1.220   .     D
C1669  O1671   1.399   .     S
O1671  H1672   1.013   .     S
C1673  O1674   1.223   .     D
C1673  O1675   1.398   .     S
O1675  H1676   1.014   .     S
C1677  O1678   1.222   .     D
C1677  O1679   1.398   .     S
O1679  H1680   1.013   .     S
C1681  O1682   1.223   .     D
C1681  O1683   1.398   .     S
O1683  H1684   1.014   .     S
C1685  N1686   1.154   .     T
C1687  N1688   1.154   .     T
C1689  N1690   1.158   .     T
C1691  N1692   1.158   .     T
