data_str_m2_o1_o10_pcu_sym.125
_audit_creation_date              2020-01-03
_audit_creation_method            'Materials Studio'
_symmetry_space_group_name_H-M    'P1'
_symmetry_Int_Tables_number       1
_symmetry_cell_setting            triclinic
loop_
_symmetry_equiv_pos_as_xyz
  x,y,z
_cell_length_a                    26.1280
_cell_length_b                    32.2709
_cell_length_c                    28.7400
_cell_angle_alpha                 89.5925
_cell_angle_beta                  97.4624
_cell_angle_gamma                 91.4021
loop_
_atom_site_label
_atom_site_type_symbol
_atom_site_fract_x
_atom_site_fract_y
_atom_site_fract_z
_atom_site_U_iso_or_equiv
_atom_site_adp_type
_atom_site_occupancy
C1     C     0.16473   0.08751   0.16651   0.00000  Uiso   1.00
C2     C     0.16840   0.24582   0.16677   0.00000  Uiso   1.00
C3     C     0.06805   0.16690   0.15472   0.00000  Uiso   1.00
C4     C     0.26531   0.16714   0.17862   0.00000  Uiso   1.00
C5     C     0.01283   0.16683   0.14815   0.00000  Uiso   1.00
C6     C     0.32056   0.16836   0.18521   0.00000  Uiso   1.00
C7     C     0.12375   0.01948   0.14123   0.00000  Uiso   1.00
C8     C     0.20986   0.31381   0.19197   0.00000  Uiso   1.00
C9     C     0.12718   0.30986   0.14126   0.00000  Uiso   1.00
C10    C     0.20666   0.02349   0.19150   0.00000  Uiso   1.00
C11    C     0.16925   0.29047   0.16658   0.00000  Uiso   1.00
C12    C     0.16430   0.04285   0.16661   0.00000  Uiso   1.00
C13    C     0.13954   0.13719   0.02225   0.00000  Uiso   1.00
C14    C     0.19389   0.19603   0.31107   0.00000  Uiso   1.00
C15    C     0.13915   0.13706   0.30623   0.00000  Uiso   1.00
C16    C     0.19403   0.19637   0.02704   0.00000  Uiso   1.00
Cu17   Cu    0.16667   0.16667   0.21355   0.00000  Uiso   1.00
Cu18   Cu    0.16667   0.16666   0.11978   0.00000  Uiso   1.00
H19    H     0.32651   0.16478   0.11251   0.00000  Uiso   1.00
H20    H     0.00688   0.17058   0.22085   0.00000  Uiso   1.00
H21    H     0.09610   0.29115   0.12264   0.00000  Uiso   1.00
H22    H     0.23787   0.04218   0.20987   0.00000  Uiso   1.00
H23    H     0.11768   0.11376   0.03887   0.00000  Uiso   1.00
H24    H     0.21584   0.21919   0.29433   0.00000  Uiso   1.00
N25    N     0.16668   0.16668   0.28403   0.00000  Uiso   1.00
N26    N     0.16665   0.16666   0.04931   0.00000  Uiso   1.00
O27    O     0.16666   0.10655   0.20625   0.00000  Uiso   1.00
O28    O     0.16667   0.22678   0.12709   0.00000  Uiso   1.00
O29    O     0.16666   0.10654   0.12706   0.00000  Uiso   1.00
O30    O     0.16667   0.22679   0.20628   0.00000  Uiso   1.00
O31    O     0.09161   0.16667   0.19712   0.00000  Uiso   1.00
O32    O     0.24172   0.16666   0.13621   0.00000  Uiso   1.00
O33    O     0.09161   0.16666   0.11793   0.00000  Uiso   1.00
O34    O     0.24172   0.16667   0.21540   0.00000  Uiso   1.00
C35    C     0.07539   0.03879   0.11628   0.00000  Uiso   1.00
C36    C     0.03863   0.05040   0.15134   0.00000  Uiso   1.00
C37    C     0.31927   0.06234   0.12618   0.00000  Uiso   1.00
H38    H     0.32360   0.08715   0.09992   0.00000  Uiso   1.00
H39    H     0.29941   0.03495   0.10812   0.00000  Uiso   1.00
H40    H     0.29501   0.07385   0.15209   0.00000  Uiso   1.00
H41    H     0.03315   0.02375   0.17509   0.00000  Uiso   1.00
H42    H     0.05552   0.07687   0.17305   0.00000  Uiso   1.00
H43    H     0.08525   0.06646   0.09586   0.00000  Uiso   1.00
H44    H     0.05508   0.01653   0.09036   0.00000  Uiso   1.00
C45    C     0.25798   0.29448   0.21754   0.00000  Uiso   1.00
C46    C     0.26233   0.30179   0.27065   0.00000  Uiso   1.00
C47    C     0.30866   0.27975   0.29670   0.00000  Uiso   1.00
H48    H     0.30526   0.24584   0.29025   0.00000  Uiso   1.00
H49    H     0.01167   0.29194   0.28492   0.00000  Uiso   1.00
H50    H     0.31041   0.28521   0.00165   0.00000  Uiso   1.00
H51    H     0.26695   0.00215   0.27826   0.00000  Uiso   1.00
H52    H     0.22652   0.29042   0.28404   0.00000  Uiso   1.00
H53    H     0.25882   0.26072   0.21076   0.00000  Uiso   1.00
H54    H     0.29236   0.30855   0.20386   0.00000  Uiso   1.00
C55    C     0.10870   0.10381   0.28029   0.00000  Uiso   1.00
O56    O     0.06537   0.11054   0.26073   0.00000  Uiso   1.00
O57    O     0.12809   0.06379   0.28122   0.00000  Uiso   1.00
H58    H     0.10347   0.04333   0.26271   0.00000  Uiso   1.00
C59    C     0.22337   0.23036   0.05270   0.00000  Uiso   1.00
O60    O     0.26562   0.22412   0.07481   0.00000  Uiso   1.00
O61    O     0.20414   0.27045   0.04884   0.00000  Uiso   1.00
H62    H     0.22798   0.29148   0.06728   0.00000  Uiso   1.00
C63    C     0.49806   0.08751   0.16651   0.00000  Uiso   1.00
C64    C     0.50174   0.24582   0.16677   0.00000  Uiso   1.00
C65    C     0.40138   0.16690   0.15472   0.00000  Uiso   1.00
C66    C     0.59864   0.16714   0.17862   0.00000  Uiso   1.00
C67    C     0.34617   0.16683   0.14815   0.00000  Uiso   1.00
C68    C     0.65389   0.16836   0.18521   0.00000  Uiso   1.00
C69    C     0.45709   0.01948   0.14123   0.00000  Uiso   1.00
C70    C     0.54319   0.31381   0.19197   0.00000  Uiso   1.00
C71    C     0.46051   0.30986   0.14126   0.00000  Uiso   1.00
C72    C     0.53999   0.02349   0.19150   0.00000  Uiso   1.00
C73    C     0.50258   0.29047   0.16658   0.00000  Uiso   1.00
C74    C     0.49763   0.04285   0.16661   0.00000  Uiso   1.00
C75    C     0.47287   0.13719   0.02225   0.00000  Uiso   1.00
C76    C     0.52722   0.19603   0.31107   0.00000  Uiso   1.00
C77    C     0.47248   0.13706   0.30623   0.00000  Uiso   1.00
C78    C     0.52736   0.19637   0.02704   0.00000  Uiso   1.00
Cu79   Cu    0.50000   0.16667   0.21355   0.00000  Uiso   1.00
Cu80   Cu    0.50000   0.16666   0.11978   0.00000  Uiso   1.00
H81    H     0.65984   0.16478   0.11251   0.00000  Uiso   1.00
H82    H     0.34021   0.17058   0.22085   0.00000  Uiso   1.00
H83    H     0.42944   0.29115   0.12264   0.00000  Uiso   1.00
H84    H     0.57121   0.04218   0.20987   0.00000  Uiso   1.00
H85    H     0.45101   0.11376   0.03887   0.00000  Uiso   1.00
H86    H     0.54917   0.21919   0.29433   0.00000  Uiso   1.00
N87    N     0.50001   0.16668   0.28403   0.00000  Uiso   1.00
N88    N     0.49999   0.16666   0.04931   0.00000  Uiso   1.00
O89    O     0.50000   0.10655   0.20625   0.00000  Uiso   1.00
O90    O     0.50000   0.22678   0.12709   0.00000  Uiso   1.00
O91    O     0.50000   0.10654   0.12706   0.00000  Uiso   1.00
O92    O     0.50000   0.22679   0.20628   0.00000  Uiso   1.00
O93    O     0.42495   0.16667   0.19712   0.00000  Uiso   1.00
O94    O     0.57505   0.16666   0.13621   0.00000  Uiso   1.00
O95    O     0.42494   0.16666   0.11793   0.00000  Uiso   1.00
O96    O     0.57506   0.16667   0.21540   0.00000  Uiso   1.00
C97    C     0.40872   0.03879   0.11628   0.00000  Uiso   1.00
C98    C     0.37197   0.05040   0.15134   0.00000  Uiso   1.00
C99    C     0.65260   0.06234   0.12618   0.00000  Uiso   1.00
H100   H     0.65694   0.08715   0.09992   0.00000  Uiso   1.00
H101   H     0.63274   0.03495   0.10812   0.00000  Uiso   1.00
H102   H     0.62834   0.07385   0.15209   0.00000  Uiso   1.00
H103   H     0.36648   0.02375   0.17509   0.00000  Uiso   1.00
H104   H     0.38885   0.07687   0.17305   0.00000  Uiso   1.00
H105   H     0.41858   0.06646   0.09586   0.00000  Uiso   1.00
H106   H     0.38842   0.01653   0.09036   0.00000  Uiso   1.00
C107   C     0.59131   0.29448   0.21754   0.00000  Uiso   1.00
C108   C     0.59566   0.30179   0.27065   0.00000  Uiso   1.00
C109   C     0.64199   0.27975   0.29670   0.00000  Uiso   1.00
H110   H     0.63859   0.24584   0.29025   0.00000  Uiso   1.00
H111   H     0.34500   0.29194   0.28492   0.00000  Uiso   1.00
H112   H     0.64375   0.28521   0.00165   0.00000  Uiso   1.00
H113   H     0.60028   0.00215   0.27826   0.00000  Uiso   1.00
H114   H     0.55985   0.29042   0.28404   0.00000  Uiso   1.00
H115   H     0.59215   0.26072   0.21076   0.00000  Uiso   1.00
H116   H     0.62569   0.30855   0.20386   0.00000  Uiso   1.00
C117   C     0.44204   0.10381   0.28029   0.00000  Uiso   1.00
O118   O     0.39871   0.11054   0.26073   0.00000  Uiso   1.00
O119   O     0.46143   0.06379   0.28122   0.00000  Uiso   1.00
H120   H     0.43680   0.04333   0.26271   0.00000  Uiso   1.00
C121   C     0.55670   0.23036   0.05270   0.00000  Uiso   1.00
O122   O     0.59895   0.22412   0.07481   0.00000  Uiso   1.00
O123   O     0.53747   0.27045   0.04884   0.00000  Uiso   1.00
H124   H     0.56132   0.29148   0.06728   0.00000  Uiso   1.00
C125   C     0.83140   0.08751   0.16651   0.00000  Uiso   1.00
C126   C     0.83507   0.24582   0.16677   0.00000  Uiso   1.00
C127   C     0.73472   0.16690   0.15472   0.00000  Uiso   1.00
C128   C     0.93197   0.16714   0.17862   0.00000  Uiso   1.00
C129   C     0.67950   0.16683   0.14815   0.00000  Uiso   1.00
C130   C     0.98722   0.16836   0.18521   0.00000  Uiso   1.00
C131   C     0.79042   0.01948   0.14123   0.00000  Uiso   1.00
C132   C     0.87652   0.31381   0.19197   0.00000  Uiso   1.00
C133   C     0.79384   0.30986   0.14126   0.00000  Uiso   1.00
C134   C     0.87332   0.02349   0.19150   0.00000  Uiso   1.00
C135   C     0.83591   0.29047   0.16658   0.00000  Uiso   1.00
C136   C     0.83096   0.04285   0.16661   0.00000  Uiso   1.00
C137   C     0.80620   0.13719   0.02225   0.00000  Uiso   1.00
C138   C     0.86055   0.19603   0.31107   0.00000  Uiso   1.00
C139   C     0.80582   0.13706   0.30623   0.00000  Uiso   1.00
C140   C     0.86070   0.19637   0.02704   0.00000  Uiso   1.00
Cu141  Cu    0.83333   0.16667   0.21355   0.00000  Uiso   1.00
Cu142  Cu    0.83333   0.16666   0.11978   0.00000  Uiso   1.00
H143   H     0.99318   0.16478   0.11251   0.00000  Uiso   1.00
H144   H     0.67354   0.17058   0.22085   0.00000  Uiso   1.00
H145   H     0.76277   0.29115   0.12264   0.00000  Uiso   1.00
H146   H     0.90454   0.04218   0.20987   0.00000  Uiso   1.00
H147   H     0.78434   0.11376   0.03887   0.00000  Uiso   1.00
H148   H     0.88250   0.21919   0.29433   0.00000  Uiso   1.00
N149   N     0.83335   0.16668   0.28403   0.00000  Uiso   1.00
N150   N     0.83332   0.16666   0.04931   0.00000  Uiso   1.00
O151   O     0.83333   0.10655   0.20625   0.00000  Uiso   1.00
O152   O     0.83334   0.22678   0.12709   0.00000  Uiso   1.00
O153   O     0.83333   0.10654   0.12706   0.00000  Uiso   1.00
O154   O     0.83334   0.22679   0.20628   0.00000  Uiso   1.00
O155   O     0.75828   0.16667   0.19712   0.00000  Uiso   1.00
O156   O     0.90839   0.16666   0.13621   0.00000  Uiso   1.00
O157   O     0.75828   0.16666   0.11793   0.00000  Uiso   1.00
O158   O     0.90839   0.16667   0.21540   0.00000  Uiso   1.00
C159   C     0.74206   0.03879   0.11628   0.00000  Uiso   1.00
C160   C     0.70530   0.05040   0.15134   0.00000  Uiso   1.00
C161   C     0.98593   0.06234   0.12618   0.00000  Uiso   1.00
H162   H     0.99027   0.08715   0.09992   0.00000  Uiso   1.00
H163   H     0.96607   0.03495   0.10812   0.00000  Uiso   1.00
H164   H     0.96168   0.07385   0.15209   0.00000  Uiso   1.00
H165   H     0.69982   0.02375   0.17509   0.00000  Uiso   1.00
H166   H     0.72219   0.07687   0.17305   0.00000  Uiso   1.00
H167   H     0.75191   0.06646   0.09586   0.00000  Uiso   1.00
H168   H     0.72175   0.01653   0.09036   0.00000  Uiso   1.00
C169   C     0.92464   0.29448   0.21754   0.00000  Uiso   1.00
C170   C     0.92900   0.30179   0.27065   0.00000  Uiso   1.00
C171   C     0.97533   0.27975   0.29670   0.00000  Uiso   1.00
H172   H     0.97192   0.24584   0.29025   0.00000  Uiso   1.00
H173   H     0.67833   0.29194   0.28492   0.00000  Uiso   1.00
H174   H     0.97708   0.28521   0.00165   0.00000  Uiso   1.00
H175   H     0.93361   0.00215   0.27826   0.00000  Uiso   1.00
H176   H     0.89318   0.29042   0.28404   0.00000  Uiso   1.00
H177   H     0.92548   0.26072   0.21076   0.00000  Uiso   1.00
H178   H     0.95903   0.30855   0.20386   0.00000  Uiso   1.00
C179   C     0.77537   0.10381   0.28029   0.00000  Uiso   1.00
O180   O     0.73204   0.11054   0.26073   0.00000  Uiso   1.00
O181   O     0.79476   0.06379   0.28122   0.00000  Uiso   1.00
H182   H     0.77014   0.04333   0.26271   0.00000  Uiso   1.00
C183   C     0.89004   0.23036   0.05270   0.00000  Uiso   1.00
O184   O     0.93229   0.22412   0.07481   0.00000  Uiso   1.00
O185   O     0.87081   0.27045   0.04884   0.00000  Uiso   1.00
H186   H     0.89465   0.29148   0.06728   0.00000  Uiso   1.00
C187   C     0.16473   0.42084   0.16651   0.00000  Uiso   1.00
C188   C     0.16840   0.57915   0.16677   0.00000  Uiso   1.00
C189   C     0.06805   0.50024   0.15472   0.00000  Uiso   1.00
C190   C     0.26531   0.50047   0.17862   0.00000  Uiso   1.00
C191   C     0.01283   0.50017   0.14815   0.00000  Uiso   1.00
C192   C     0.32056   0.50169   0.18521   0.00000  Uiso   1.00
C193   C     0.12375   0.35282   0.14123   0.00000  Uiso   1.00
C194   C     0.20986   0.64714   0.19197   0.00000  Uiso   1.00
C195   C     0.12718   0.64319   0.14126   0.00000  Uiso   1.00
C196   C     0.20666   0.35682   0.19150   0.00000  Uiso   1.00
C197   C     0.16925   0.62381   0.16658   0.00000  Uiso   1.00
C198   C     0.16430   0.37618   0.16661   0.00000  Uiso   1.00
C199   C     0.13954   0.47052   0.02225   0.00000  Uiso   1.00
C200   C     0.19389   0.52936   0.31107   0.00000  Uiso   1.00
C201   C     0.13915   0.47040   0.30623   0.00000  Uiso   1.00
C202   C     0.19403   0.52970   0.02704   0.00000  Uiso   1.00
Cu203  Cu    0.16667   0.50001   0.21355   0.00000  Uiso   1.00
Cu204  Cu    0.16667   0.49999   0.11978   0.00000  Uiso   1.00
H205   H     0.32651   0.49812   0.11251   0.00000  Uiso   1.00
H206   H     0.00688   0.50391   0.22085   0.00000  Uiso   1.00
H207   H     0.09610   0.62448   0.12264   0.00000  Uiso   1.00
H208   H     0.23787   0.37552   0.20987   0.00000  Uiso   1.00
H209   H     0.11768   0.44709   0.03887   0.00000  Uiso   1.00
H210   H     0.21584   0.55252   0.29433   0.00000  Uiso   1.00
N211   N     0.16668   0.50001   0.28403   0.00000  Uiso   1.00
N212   N     0.16665   0.49999   0.04931   0.00000  Uiso   1.00
O213   O     0.16666   0.43989   0.20625   0.00000  Uiso   1.00
O214   O     0.16667   0.56011   0.12709   0.00000  Uiso   1.00
O215   O     0.16666   0.43988   0.12706   0.00000  Uiso   1.00
O216   O     0.16667   0.56012   0.20628   0.00000  Uiso   1.00
O217   O     0.09161   0.50000   0.19712   0.00000  Uiso   1.00
O218   O     0.24172   0.50000   0.13621   0.00000  Uiso   1.00
O219   O     0.09161   0.49999   0.11793   0.00000  Uiso   1.00
O220   O     0.24172   0.50001   0.21540   0.00000  Uiso   1.00
C221   C     0.07539   0.37212   0.11628   0.00000  Uiso   1.00
C222   C     0.03863   0.38374   0.15134   0.00000  Uiso   1.00
C223   C     0.31927   0.39568   0.12618   0.00000  Uiso   1.00
H224   H     0.32360   0.42048   0.09992   0.00000  Uiso   1.00
H225   H     0.29941   0.36828   0.10812   0.00000  Uiso   1.00
H226   H     0.29501   0.40719   0.15209   0.00000  Uiso   1.00
H227   H     0.03315   0.35709   0.17509   0.00000  Uiso   1.00
H228   H     0.05552   0.41021   0.17305   0.00000  Uiso   1.00
H229   H     0.08525   0.39980   0.09586   0.00000  Uiso   1.00
H230   H     0.05508   0.34986   0.09036   0.00000  Uiso   1.00
C231   C     0.25798   0.62782   0.21754   0.00000  Uiso   1.00
C232   C     0.26233   0.63512   0.27065   0.00000  Uiso   1.00
C233   C     0.30866   0.61309   0.29670   0.00000  Uiso   1.00
H234   H     0.30526   0.57917   0.29025   0.00000  Uiso   1.00
H235   H     0.01167   0.62527   0.28492   0.00000  Uiso   1.00
H236   H     0.31041   0.61854   0.00165   0.00000  Uiso   1.00
H237   H     0.26695   0.33548   0.27826   0.00000  Uiso   1.00
H238   H     0.22652   0.62375   0.28404   0.00000  Uiso   1.00
H239   H     0.25882   0.59406   0.21076   0.00000  Uiso   1.00
H240   H     0.29236   0.64188   0.20386   0.00000  Uiso   1.00
C241   C     0.10870   0.43715   0.28029   0.00000  Uiso   1.00
O242   O     0.06537   0.44388   0.26073   0.00000  Uiso   1.00
O243   O     0.12809   0.39712   0.28122   0.00000  Uiso   1.00
H244   H     0.10347   0.37666   0.26271   0.00000  Uiso   1.00
C245   C     0.22337   0.56369   0.05270   0.00000  Uiso   1.00
O246   O     0.26562   0.55745   0.07481   0.00000  Uiso   1.00
O247   O     0.20414   0.60378   0.04884   0.00000  Uiso   1.00
H248   H     0.22798   0.62481   0.06728   0.00000  Uiso   1.00
C249   C     0.49806   0.42084   0.16651   0.00000  Uiso   1.00
C250   C     0.50174   0.57915   0.16677   0.00000  Uiso   1.00
C251   C     0.40138   0.50024   0.15472   0.00000  Uiso   1.00
C252   C     0.59864   0.50047   0.17862   0.00000  Uiso   1.00
C253   C     0.34617   0.50017   0.14815   0.00000  Uiso   1.00
C254   C     0.65389   0.50169   0.18521   0.00000  Uiso   1.00
C255   C     0.45709   0.35282   0.14123   0.00000  Uiso   1.00
C256   C     0.54319   0.64714   0.19197   0.00000  Uiso   1.00
C257   C     0.46051   0.64319   0.14126   0.00000  Uiso   1.00
C258   C     0.53999   0.35682   0.19150   0.00000  Uiso   1.00
C259   C     0.50258   0.62381   0.16658   0.00000  Uiso   1.00
C260   C     0.49763   0.37618   0.16661   0.00000  Uiso   1.00
C261   C     0.47287   0.47052   0.02225   0.00000  Uiso   1.00
C262   C     0.52722   0.52936   0.31107   0.00000  Uiso   1.00
C263   C     0.47248   0.47040   0.30623   0.00000  Uiso   1.00
C264   C     0.52736   0.52970   0.02704   0.00000  Uiso   1.00
Cu265  Cu    0.50000   0.50001   0.21355   0.00000  Uiso   1.00
Cu266  Cu    0.50000   0.49999   0.11978   0.00000  Uiso   1.00
H267   H     0.65984   0.49812   0.11251   0.00000  Uiso   1.00
H268   H     0.34021   0.50391   0.22085   0.00000  Uiso   1.00
H269   H     0.42944   0.62448   0.12264   0.00000  Uiso   1.00
H270   H     0.57121   0.37552   0.20987   0.00000  Uiso   1.00
H271   H     0.45101   0.44709   0.03887   0.00000  Uiso   1.00
H272   H     0.54917   0.55252   0.29433   0.00000  Uiso   1.00
N273   N     0.50001   0.50001   0.28403   0.00000  Uiso   1.00
N274   N     0.49999   0.49999   0.04931   0.00000  Uiso   1.00
O275   O     0.50000   0.43989   0.20625   0.00000  Uiso   1.00
O276   O     0.50000   0.56011   0.12709   0.00000  Uiso   1.00
O277   O     0.50000   0.43988   0.12706   0.00000  Uiso   1.00
O278   O     0.50000   0.56012   0.20628   0.00000  Uiso   1.00
O279   O     0.42495   0.50000   0.19712   0.00000  Uiso   1.00
O280   O     0.57505   0.50000   0.13621   0.00000  Uiso   1.00
O281   O     0.42494   0.49999   0.11793   0.00000  Uiso   1.00
O282   O     0.57506   0.50001   0.21540   0.00000  Uiso   1.00
C283   C     0.40872   0.37212   0.11628   0.00000  Uiso   1.00
C284   C     0.37197   0.38374   0.15134   0.00000  Uiso   1.00
C285   C     0.65260   0.39568   0.12618   0.00000  Uiso   1.00
H286   H     0.65694   0.42048   0.09992   0.00000  Uiso   1.00
H287   H     0.63274   0.36828   0.10812   0.00000  Uiso   1.00
H288   H     0.62834   0.40719   0.15209   0.00000  Uiso   1.00
H289   H     0.36648   0.35709   0.17509   0.00000  Uiso   1.00
H290   H     0.38885   0.41021   0.17305   0.00000  Uiso   1.00
H291   H     0.41858   0.39980   0.09586   0.00000  Uiso   1.00
H292   H     0.38842   0.34986   0.09036   0.00000  Uiso   1.00
C293   C     0.59131   0.62782   0.21754   0.00000  Uiso   1.00
C294   C     0.59566   0.63512   0.27065   0.00000  Uiso   1.00
C295   C     0.64199   0.61309   0.29670   0.00000  Uiso   1.00
H296   H     0.63859   0.57917   0.29025   0.00000  Uiso   1.00
H297   H     0.34500   0.62527   0.28492   0.00000  Uiso   1.00
H298   H     0.64375   0.61854   0.00165   0.00000  Uiso   1.00
H299   H     0.60028   0.33548   0.27826   0.00000  Uiso   1.00
H300   H     0.55985   0.62375   0.28404   0.00000  Uiso   1.00
H301   H     0.59215   0.59406   0.21076   0.00000  Uiso   1.00
H302   H     0.62569   0.64188   0.20386   0.00000  Uiso   1.00
C303   C     0.44204   0.43715   0.28029   0.00000  Uiso   1.00
O304   O     0.39871   0.44388   0.26073   0.00000  Uiso   1.00
O305   O     0.46143   0.39712   0.28122   0.00000  Uiso   1.00
H306   H     0.43680   0.37666   0.26271   0.00000  Uiso   1.00
C307   C     0.55670   0.56369   0.05270   0.00000  Uiso   1.00
O308   O     0.59895   0.55745   0.07481   0.00000  Uiso   1.00
O309   O     0.53747   0.60378   0.04884   0.00000  Uiso   1.00
H310   H     0.56132   0.62481   0.06728   0.00000  Uiso   1.00
C311   C     0.83140   0.42084   0.16651   0.00000  Uiso   1.00
C312   C     0.83507   0.57915   0.16677   0.00000  Uiso   1.00
C313   C     0.73472   0.50024   0.15472   0.00000  Uiso   1.00
C314   C     0.93197   0.50047   0.17862   0.00000  Uiso   1.00
C315   C     0.67950   0.50017   0.14815   0.00000  Uiso   1.00
C316   C     0.98722   0.50169   0.18521   0.00000  Uiso   1.00
C317   C     0.79042   0.35282   0.14123   0.00000  Uiso   1.00
C318   C     0.87652   0.64714   0.19197   0.00000  Uiso   1.00
C319   C     0.79384   0.64319   0.14126   0.00000  Uiso   1.00
C320   C     0.87332   0.35682   0.19150   0.00000  Uiso   1.00
C321   C     0.83591   0.62381   0.16658   0.00000  Uiso   1.00
C322   C     0.83096   0.37618   0.16661   0.00000  Uiso   1.00
C323   C     0.80620   0.47052   0.02225   0.00000  Uiso   1.00
C324   C     0.86055   0.52936   0.31107   0.00000  Uiso   1.00
C325   C     0.80582   0.47040   0.30623   0.00000  Uiso   1.00
C326   C     0.86070   0.52970   0.02704   0.00000  Uiso   1.00
Cu327  Cu    0.83333   0.50001   0.21355   0.00000  Uiso   1.00
Cu328  Cu    0.83333   0.49999   0.11978   0.00000  Uiso   1.00
H329   H     0.99318   0.49812   0.11251   0.00000  Uiso   1.00
H330   H     0.67354   0.50391   0.22085   0.00000  Uiso   1.00
H331   H     0.76277   0.62448   0.12264   0.00000  Uiso   1.00
H332   H     0.90454   0.37552   0.20987   0.00000  Uiso   1.00
H333   H     0.78434   0.44709   0.03887   0.00000  Uiso   1.00
H334   H     0.88250   0.55252   0.29433   0.00000  Uiso   1.00
N335   N     0.83335   0.50001   0.28403   0.00000  Uiso   1.00
N336   N     0.83332   0.49999   0.04931   0.00000  Uiso   1.00
O337   O     0.83333   0.43989   0.20625   0.00000  Uiso   1.00
O338   O     0.83334   0.56011   0.12709   0.00000  Uiso   1.00
O339   O     0.83333   0.43988   0.12706   0.00000  Uiso   1.00
O340   O     0.83334   0.56012   0.20628   0.00000  Uiso   1.00
O341   O     0.75828   0.50000   0.19712   0.00000  Uiso   1.00
O342   O     0.90839   0.50000   0.13621   0.00000  Uiso   1.00
O343   O     0.75828   0.49999   0.11793   0.00000  Uiso   1.00
O344   O     0.90839   0.50001   0.21540   0.00000  Uiso   1.00
C345   C     0.74206   0.37212   0.11628   0.00000  Uiso   1.00
C346   C     0.70530   0.38374   0.15134   0.00000  Uiso   1.00
C347   C     0.98593   0.39568   0.12618   0.00000  Uiso   1.00
H348   H     0.99027   0.42048   0.09992   0.00000  Uiso   1.00
H349   H     0.96607   0.36828   0.10812   0.00000  Uiso   1.00
H350   H     0.96168   0.40719   0.15209   0.00000  Uiso   1.00
H351   H     0.69982   0.35709   0.17509   0.00000  Uiso   1.00
H352   H     0.72219   0.41021   0.17305   0.00000  Uiso   1.00
H353   H     0.75191   0.39980   0.09586   0.00000  Uiso   1.00
H354   H     0.72175   0.34986   0.09036   0.00000  Uiso   1.00
C355   C     0.92464   0.62782   0.21754   0.00000  Uiso   1.00
C356   C     0.92900   0.63512   0.27065   0.00000  Uiso   1.00
C357   C     0.97533   0.61309   0.29670   0.00000  Uiso   1.00
H358   H     0.97192   0.57917   0.29025   0.00000  Uiso   1.00
H359   H     0.67833   0.62527   0.28492   0.00000  Uiso   1.00
H360   H     0.97708   0.61854   0.00165   0.00000  Uiso   1.00
H361   H     0.93361   0.33548   0.27826   0.00000  Uiso   1.00
H362   H     0.89318   0.62375   0.28404   0.00000  Uiso   1.00
H363   H     0.92548   0.59406   0.21076   0.00000  Uiso   1.00
H364   H     0.95903   0.64188   0.20386   0.00000  Uiso   1.00
C365   C     0.77537   0.43715   0.28029   0.00000  Uiso   1.00
O366   O     0.73204   0.44388   0.26073   0.00000  Uiso   1.00
O367   O     0.79476   0.39712   0.28122   0.00000  Uiso   1.00
H368   H     0.77014   0.37666   0.26271   0.00000  Uiso   1.00
C369   C     0.89004   0.56369   0.05270   0.00000  Uiso   1.00
O370   O     0.93229   0.55745   0.07481   0.00000  Uiso   1.00
O371   O     0.87081   0.60378   0.04884   0.00000  Uiso   1.00
H372   H     0.89465   0.62481   0.06728   0.00000  Uiso   1.00
C373   C     0.16473   0.75418   0.16651   0.00000  Uiso   1.00
C374   C     0.16840   0.91248   0.16677   0.00000  Uiso   1.00
C375   C     0.06805   0.83357   0.15472   0.00000  Uiso   1.00
C376   C     0.26531   0.83380   0.17862   0.00000  Uiso   1.00
C377   C     0.01283   0.83350   0.14815   0.00000  Uiso   1.00
C378   C     0.32056   0.83503   0.18521   0.00000  Uiso   1.00
C379   C     0.12375   0.68615   0.14123   0.00000  Uiso   1.00
C380   C     0.20986   0.98047   0.19197   0.00000  Uiso   1.00
C381   C     0.12718   0.97652   0.14126   0.00000  Uiso   1.00
C382   C     0.20666   0.69016   0.19150   0.00000  Uiso   1.00
C383   C     0.16925   0.95714   0.16658   0.00000  Uiso   1.00
C384   C     0.16430   0.70951   0.16661   0.00000  Uiso   1.00
C385   C     0.13954   0.80385   0.02225   0.00000  Uiso   1.00
C386   C     0.19389   0.86269   0.31107   0.00000  Uiso   1.00
C387   C     0.13915   0.80373   0.30623   0.00000  Uiso   1.00
C388   C     0.19403   0.86304   0.02704   0.00000  Uiso   1.00
Cu389  Cu    0.16667   0.83334   0.21355   0.00000  Uiso   1.00
Cu390  Cu    0.16667   0.83333   0.11978   0.00000  Uiso   1.00
H391   H     0.32651   0.83145   0.11251   0.00000  Uiso   1.00
H392   H     0.00688   0.83724   0.22085   0.00000  Uiso   1.00
H393   H     0.09610   0.95782   0.12264   0.00000  Uiso   1.00
H394   H     0.23787   0.70885   0.20987   0.00000  Uiso   1.00
H395   H     0.11768   0.78043   0.03887   0.00000  Uiso   1.00
H396   H     0.21584   0.88586   0.29433   0.00000  Uiso   1.00
N397   N     0.16668   0.83334   0.28403   0.00000  Uiso   1.00
N398   N     0.16665   0.83332   0.04931   0.00000  Uiso   1.00
O399   O     0.16666   0.77322   0.20625   0.00000  Uiso   1.00
O400   O     0.16667   0.89345   0.12709   0.00000  Uiso   1.00
O401   O     0.16666   0.77321   0.12706   0.00000  Uiso   1.00
O402   O     0.16667   0.89346   0.20628   0.00000  Uiso   1.00
O403   O     0.09161   0.83334   0.19712   0.00000  Uiso   1.00
O404   O     0.24172   0.83333   0.13621   0.00000  Uiso   1.00
O405   O     0.09161   0.83333   0.11793   0.00000  Uiso   1.00
O406   O     0.24172   0.83334   0.21540   0.00000  Uiso   1.00
C407   C     0.07539   0.70546   0.11628   0.00000  Uiso   1.00
C408   C     0.03863   0.71707   0.15134   0.00000  Uiso   1.00
C409   C     0.31927   0.72901   0.12618   0.00000  Uiso   1.00
H410   H     0.32360   0.75381   0.09992   0.00000  Uiso   1.00
H411   H     0.29941   0.70162   0.10812   0.00000  Uiso   1.00
H412   H     0.29501   0.74052   0.15209   0.00000  Uiso   1.00
H413   H     0.03315   0.69042   0.17509   0.00000  Uiso   1.00
H414   H     0.05552   0.74354   0.17305   0.00000  Uiso   1.00
H415   H     0.08525   0.73313   0.09586   0.00000  Uiso   1.00
H416   H     0.05508   0.68320   0.09036   0.00000  Uiso   1.00
C417   C     0.25798   0.96115   0.21754   0.00000  Uiso   1.00
C418   C     0.26233   0.96846   0.27065   0.00000  Uiso   1.00
C419   C     0.30866   0.94642   0.29670   0.00000  Uiso   1.00
H420   H     0.30526   0.91251   0.29025   0.00000  Uiso   1.00
H421   H     0.01167   0.95860   0.28492   0.00000  Uiso   1.00
H422   H     0.31041   0.95188   0.00165   0.00000  Uiso   1.00
H423   H     0.26695   0.66881   0.27826   0.00000  Uiso   1.00
H424   H     0.22652   0.95709   0.28404   0.00000  Uiso   1.00
H425   H     0.25882   0.92739   0.21076   0.00000  Uiso   1.00
H426   H     0.29236   0.97521   0.20386   0.00000  Uiso   1.00
C427   C     0.10870   0.77048   0.28029   0.00000  Uiso   1.00
O428   O     0.06537   0.77721   0.26073   0.00000  Uiso   1.00
O429   O     0.12809   0.73046   0.28122   0.00000  Uiso   1.00
H430   H     0.10347   0.71000   0.26271   0.00000  Uiso   1.00
C431   C     0.22337   0.89703   0.05270   0.00000  Uiso   1.00
O432   O     0.26562   0.89079   0.07481   0.00000  Uiso   1.00
O433   O     0.20414   0.93711   0.04884   0.00000  Uiso   1.00
H434   H     0.22798   0.95815   0.06728   0.00000  Uiso   1.00
C435   C     0.49806   0.75418   0.16651   0.00000  Uiso   1.00
C436   C     0.50174   0.91248   0.16677   0.00000  Uiso   1.00
C437   C     0.40138   0.83357   0.15472   0.00000  Uiso   1.00
C438   C     0.59864   0.83380   0.17862   0.00000  Uiso   1.00
C439   C     0.34617   0.83350   0.14815   0.00000  Uiso   1.00
C440   C     0.65389   0.83503   0.18521   0.00000  Uiso   1.00
C441   C     0.45709   0.68615   0.14123   0.00000  Uiso   1.00
C442   C     0.54319   0.98047   0.19197   0.00000  Uiso   1.00
C443   C     0.46051   0.97652   0.14126   0.00000  Uiso   1.00
C444   C     0.53999   0.69016   0.19150   0.00000  Uiso   1.00
C445   C     0.50258   0.95714   0.16658   0.00000  Uiso   1.00
C446   C     0.49763   0.70951   0.16661   0.00000  Uiso   1.00
C447   C     0.47287   0.80385   0.02225   0.00000  Uiso   1.00
C448   C     0.52722   0.86269   0.31107   0.00000  Uiso   1.00
C449   C     0.47248   0.80373   0.30623   0.00000  Uiso   1.00
C450   C     0.52736   0.86304   0.02704   0.00000  Uiso   1.00
Cu451  Cu    0.50000   0.83334   0.21355   0.00000  Uiso   1.00
Cu452  Cu    0.50000   0.83333   0.11978   0.00000  Uiso   1.00
H453   H     0.65984   0.83145   0.11251   0.00000  Uiso   1.00
H454   H     0.34021   0.83724   0.22085   0.00000  Uiso   1.00
H455   H     0.42944   0.95782   0.12264   0.00000  Uiso   1.00
H456   H     0.57121   0.70885   0.20987   0.00000  Uiso   1.00
H457   H     0.45101   0.78043   0.03887   0.00000  Uiso   1.00
H458   H     0.54917   0.88586   0.29433   0.00000  Uiso   1.00
N459   N     0.50001   0.83334   0.28403   0.00000  Uiso   1.00
N460   N     0.49999   0.83332   0.04931   0.00000  Uiso   1.00
O461   O     0.50000   0.77322   0.20625   0.00000  Uiso   1.00
O462   O     0.50000   0.89345   0.12709   0.00000  Uiso   1.00
O463   O     0.50000   0.77321   0.12706   0.00000  Uiso   1.00
O464   O     0.50000   0.89346   0.20628   0.00000  Uiso   1.00
O465   O     0.42495   0.83334   0.19712   0.00000  Uiso   1.00
O466   O     0.57505   0.83333   0.13621   0.00000  Uiso   1.00
O467   O     0.42494   0.83333   0.11793   0.00000  Uiso   1.00
O468   O     0.57506   0.83334   0.21540   0.00000  Uiso   1.00
C469   C     0.40872   0.70546   0.11628   0.00000  Uiso   1.00
C470   C     0.37197   0.71707   0.15134   0.00000  Uiso   1.00
C471   C     0.65260   0.72901   0.12618   0.00000  Uiso   1.00
H472   H     0.65694   0.75381   0.09992   0.00000  Uiso   1.00
H473   H     0.63274   0.70162   0.10812   0.00000  Uiso   1.00
H474   H     0.62834   0.74052   0.15209   0.00000  Uiso   1.00
H475   H     0.36648   0.69042   0.17509   0.00000  Uiso   1.00
H476   H     0.38885   0.74354   0.17305   0.00000  Uiso   1.00
H477   H     0.41858   0.73313   0.09586   0.00000  Uiso   1.00
H478   H     0.38842   0.68320   0.09036   0.00000  Uiso   1.00
C479   C     0.59131   0.96115   0.21754   0.00000  Uiso   1.00
C480   C     0.59566   0.96846   0.27065   0.00000  Uiso   1.00
C481   C     0.64199   0.94642   0.29670   0.00000  Uiso   1.00
H482   H     0.63859   0.91251   0.29025   0.00000  Uiso   1.00
H483   H     0.34500   0.95860   0.28492   0.00000  Uiso   1.00
H484   H     0.64375   0.95188   0.00165   0.00000  Uiso   1.00
H485   H     0.60028   0.66881   0.27826   0.00000  Uiso   1.00
H486   H     0.55985   0.95709   0.28404   0.00000  Uiso   1.00
H487   H     0.59215   0.92739   0.21076   0.00000  Uiso   1.00
H488   H     0.62569   0.97521   0.20386   0.00000  Uiso   1.00
C489   C     0.44204   0.77048   0.28029   0.00000  Uiso   1.00
O490   O     0.39871   0.77721   0.26073   0.00000  Uiso   1.00
O491   O     0.46143   0.73046   0.28122   0.00000  Uiso   1.00
H492   H     0.43680   0.71000   0.26271   0.00000  Uiso   1.00
C493   C     0.55670   0.89703   0.05270   0.00000  Uiso   1.00
O494   O     0.59895   0.89079   0.07481   0.00000  Uiso   1.00
O495   O     0.53747   0.93711   0.04884   0.00000  Uiso   1.00
H496   H     0.56132   0.95815   0.06728   0.00000  Uiso   1.00
C497   C     0.83140   0.75418   0.16651   0.00000  Uiso   1.00
C498   C     0.83507   0.91248   0.16677   0.00000  Uiso   1.00
C499   C     0.73472   0.83357   0.15472   0.00000  Uiso   1.00
C500   C     0.93197   0.83380   0.17862   0.00000  Uiso   1.00
C501   C     0.67950   0.83350   0.14815   0.00000  Uiso   1.00
C502   C     0.98722   0.83503   0.18521   0.00000  Uiso   1.00
C503   C     0.79042   0.68615   0.14123   0.00000  Uiso   1.00
C504   C     0.87652   0.98047   0.19197   0.00000  Uiso   1.00
C505   C     0.79384   0.97652   0.14126   0.00000  Uiso   1.00
C506   C     0.87332   0.69016   0.19150   0.00000  Uiso   1.00
C507   C     0.83591   0.95714   0.16658   0.00000  Uiso   1.00
C508   C     0.83096   0.70951   0.16661   0.00000  Uiso   1.00
C509   C     0.80620   0.80385   0.02225   0.00000  Uiso   1.00
C510   C     0.86055   0.86269   0.31107   0.00000  Uiso   1.00
C511   C     0.80582   0.80373   0.30623   0.00000  Uiso   1.00
C512   C     0.86070   0.86304   0.02704   0.00000  Uiso   1.00
Cu513  Cu    0.83333   0.83334   0.21355   0.00000  Uiso   1.00
Cu514  Cu    0.83333   0.83333   0.11978   0.00000  Uiso   1.00
H515   H     0.99318   0.83145   0.11251   0.00000  Uiso   1.00
H516   H     0.67354   0.83724   0.22085   0.00000  Uiso   1.00
H517   H     0.76277   0.95782   0.12264   0.00000  Uiso   1.00
H518   H     0.90454   0.70885   0.20987   0.00000  Uiso   1.00
H519   H     0.78434   0.78043   0.03887   0.00000  Uiso   1.00
H520   H     0.88250   0.88586   0.29433   0.00000  Uiso   1.00
N521   N     0.83335   0.83334   0.28403   0.00000  Uiso   1.00
N522   N     0.83332   0.83332   0.04931   0.00000  Uiso   1.00
O523   O     0.83333   0.77322   0.20625   0.00000  Uiso   1.00
O524   O     0.83334   0.89345   0.12709   0.00000  Uiso   1.00
O525   O     0.83333   0.77321   0.12706   0.00000  Uiso   1.00
O526   O     0.83334   0.89346   0.20628   0.00000  Uiso   1.00
O527   O     0.75828   0.83334   0.19712   0.00000  Uiso   1.00
O528   O     0.90839   0.83333   0.13621   0.00000  Uiso   1.00
O529   O     0.75828   0.83333   0.11793   0.00000  Uiso   1.00
O530   O     0.90839   0.83334   0.21540   0.00000  Uiso   1.00
C531   C     0.74206   0.70546   0.11628   0.00000  Uiso   1.00
C532   C     0.70530   0.71707   0.15134   0.00000  Uiso   1.00
C533   C     0.98593   0.72901   0.12618   0.00000  Uiso   1.00
H534   H     0.99027   0.75381   0.09992   0.00000  Uiso   1.00
H535   H     0.96607   0.70162   0.10812   0.00000  Uiso   1.00
H536   H     0.96168   0.74052   0.15209   0.00000  Uiso   1.00
H537   H     0.69982   0.69042   0.17509   0.00000  Uiso   1.00
H538   H     0.72219   0.74354   0.17305   0.00000  Uiso   1.00
H539   H     0.75191   0.73313   0.09586   0.00000  Uiso   1.00
H540   H     0.72175   0.68320   0.09036   0.00000  Uiso   1.00
C541   C     0.92464   0.96115   0.21754   0.00000  Uiso   1.00
C542   C     0.92900   0.96846   0.27065   0.00000  Uiso   1.00
C543   C     0.97533   0.94642   0.29670   0.00000  Uiso   1.00
H544   H     0.97192   0.91251   0.29025   0.00000  Uiso   1.00
H545   H     0.67833   0.95860   0.28492   0.00000  Uiso   1.00
H546   H     0.97708   0.95188   0.00165   0.00000  Uiso   1.00
H547   H     0.93361   0.66881   0.27826   0.00000  Uiso   1.00
H548   H     0.89318   0.95709   0.28404   0.00000  Uiso   1.00
H549   H     0.92548   0.92739   0.21076   0.00000  Uiso   1.00
H550   H     0.95903   0.97521   0.20386   0.00000  Uiso   1.00
C551   C     0.77537   0.77048   0.28029   0.00000  Uiso   1.00
O552   O     0.73204   0.77721   0.26073   0.00000  Uiso   1.00
O553   O     0.79476   0.73046   0.28122   0.00000  Uiso   1.00
H554   H     0.77014   0.71000   0.26271   0.00000  Uiso   1.00
C555   C     0.89004   0.89703   0.05270   0.00000  Uiso   1.00
O556   O     0.93229   0.89079   0.07481   0.00000  Uiso   1.00
O557   O     0.87081   0.93711   0.04884   0.00000  Uiso   1.00
H558   H     0.89465   0.95815   0.06728   0.00000  Uiso   1.00
C559   C     0.16473   0.08751   0.49985   0.00000  Uiso   1.00
C560   C     0.16840   0.24582   0.50010   0.00000  Uiso   1.00
C561   C     0.06805   0.16690   0.48805   0.00000  Uiso   1.00
C562   C     0.26531   0.16714   0.51196   0.00000  Uiso   1.00
C563   C     0.01283   0.16683   0.48148   0.00000  Uiso   1.00
C564   C     0.32056   0.16836   0.51855   0.00000  Uiso   1.00
C565   C     0.12375   0.01948   0.47457   0.00000  Uiso   1.00
C566   C     0.20986   0.31381   0.52530   0.00000  Uiso   1.00
C567   C     0.12718   0.30986   0.47460   0.00000  Uiso   1.00
C568   C     0.20666   0.02349   0.52483   0.00000  Uiso   1.00
C569   C     0.16925   0.29047   0.49991   0.00000  Uiso   1.00
C570   C     0.16430   0.04285   0.49994   0.00000  Uiso   1.00
C571   C     0.13954   0.13719   0.35559   0.00000  Uiso   1.00
C572   C     0.19389   0.19603   0.64440   0.00000  Uiso   1.00
C573   C     0.13915   0.13706   0.63957   0.00000  Uiso   1.00
C574   C     0.19403   0.19637   0.36038   0.00000  Uiso   1.00
Cu575  Cu    0.16667   0.16667   0.54689   0.00000  Uiso   1.00
Cu576  Cu    0.16667   0.16666   0.45311   0.00000  Uiso   1.00
H577   H     0.32651   0.16478   0.44584   0.00000  Uiso   1.00
H578   H     0.00688   0.17058   0.55418   0.00000  Uiso   1.00
H579   H     0.09610   0.29115   0.45598   0.00000  Uiso   1.00
H580   H     0.23787   0.04218   0.54320   0.00000  Uiso   1.00
H581   H     0.11768   0.11376   0.37220   0.00000  Uiso   1.00
H582   H     0.21584   0.21919   0.62767   0.00000  Uiso   1.00
N583   N     0.16668   0.16668   0.61736   0.00000  Uiso   1.00
N584   N     0.16665   0.16666   0.38264   0.00000  Uiso   1.00
O585   O     0.16666   0.10655   0.53958   0.00000  Uiso   1.00
O586   O     0.16667   0.22678   0.46042   0.00000  Uiso   1.00
O587   O     0.16666   0.10654   0.46039   0.00000  Uiso   1.00
O588   O     0.16667   0.22679   0.53961   0.00000  Uiso   1.00
O589   O     0.09161   0.16667   0.53046   0.00000  Uiso   1.00
O590   O     0.24172   0.16666   0.46954   0.00000  Uiso   1.00
O591   O     0.09161   0.16666   0.45127   0.00000  Uiso   1.00
O592   O     0.24172   0.16667   0.54873   0.00000  Uiso   1.00
C593   C     0.07539   0.03879   0.44961   0.00000  Uiso   1.00
C594   C     0.03863   0.05040   0.48467   0.00000  Uiso   1.00
C595   C     0.31927   0.06234   0.45951   0.00000  Uiso   1.00
H596   H     0.32360   0.08715   0.43325   0.00000  Uiso   1.00
H597   H     0.29941   0.03495   0.44145   0.00000  Uiso   1.00
H598   H     0.29501   0.07385   0.48542   0.00000  Uiso   1.00
H599   H     0.03315   0.02375   0.50842   0.00000  Uiso   1.00
H600   H     0.05552   0.07687   0.50639   0.00000  Uiso   1.00
H601   H     0.08525   0.06646   0.42920   0.00000  Uiso   1.00
H602   H     0.05508   0.01653   0.42370   0.00000  Uiso   1.00
C603   C     0.25798   0.29448   0.55087   0.00000  Uiso   1.00
C604   C     0.26233   0.30179   0.60398   0.00000  Uiso   1.00
C605   C     0.30866   0.27975   0.63003   0.00000  Uiso   1.00
H606   H     0.30526   0.24584   0.62359   0.00000  Uiso   1.00
H607   H     0.01167   0.29194   0.61825   0.00000  Uiso   1.00
H608   H     0.31041   0.28521   0.33499   0.00000  Uiso   1.00
H609   H     0.26695   0.00215   0.61160   0.00000  Uiso   1.00
H610   H     0.22652   0.29042   0.61738   0.00000  Uiso   1.00
H611   H     0.25882   0.26072   0.54409   0.00000  Uiso   1.00
H612   H     0.29236   0.30855   0.53720   0.00000  Uiso   1.00
C613   C     0.10870   0.10381   0.61362   0.00000  Uiso   1.00
O614   O     0.06537   0.11054   0.59407   0.00000  Uiso   1.00
O615   O     0.12809   0.06379   0.61456   0.00000  Uiso   1.00
H616   H     0.10347   0.04333   0.59604   0.00000  Uiso   1.00
C617   C     0.22337   0.23036   0.38604   0.00000  Uiso   1.00
O618   O     0.26562   0.22412   0.40814   0.00000  Uiso   1.00
O619   O     0.20414   0.27045   0.38217   0.00000  Uiso   1.00
H620   H     0.22798   0.29148   0.40061   0.00000  Uiso   1.00
C621   C     0.49806   0.08751   0.49985   0.00000  Uiso   1.00
C622   C     0.50174   0.24582   0.50010   0.00000  Uiso   1.00
C623   C     0.40138   0.16690   0.48805   0.00000  Uiso   1.00
C624   C     0.59864   0.16714   0.51196   0.00000  Uiso   1.00
C625   C     0.34617   0.16683   0.48148   0.00000  Uiso   1.00
C626   C     0.65389   0.16836   0.51855   0.00000  Uiso   1.00
C627   C     0.45709   0.01948   0.47457   0.00000  Uiso   1.00
C628   C     0.54319   0.31381   0.52530   0.00000  Uiso   1.00
C629   C     0.46051   0.30986   0.47460   0.00000  Uiso   1.00
C630   C     0.53999   0.02349   0.52483   0.00000  Uiso   1.00
C631   C     0.50258   0.29047   0.49991   0.00000  Uiso   1.00
C632   C     0.49763   0.04285   0.49994   0.00000  Uiso   1.00
C633   C     0.47287   0.13719   0.35559   0.00000  Uiso   1.00
C634   C     0.52722   0.19603   0.64440   0.00000  Uiso   1.00
C635   C     0.47248   0.13706   0.63957   0.00000  Uiso   1.00
C636   C     0.52736   0.19637   0.36038   0.00000  Uiso   1.00
Cu637  Cu    0.50000   0.16667   0.54689   0.00000  Uiso   1.00
Cu638  Cu    0.50000   0.16666   0.45311   0.00000  Uiso   1.00
H639   H     0.65984   0.16478   0.44584   0.00000  Uiso   1.00
H640   H     0.34021   0.17058   0.55418   0.00000  Uiso   1.00
H641   H     0.42944   0.29115   0.45598   0.00000  Uiso   1.00
H642   H     0.57121   0.04218   0.54320   0.00000  Uiso   1.00
H643   H     0.45101   0.11376   0.37220   0.00000  Uiso   1.00
H644   H     0.54917   0.21919   0.62767   0.00000  Uiso   1.00
N645   N     0.50001   0.16668   0.61736   0.00000  Uiso   1.00
N646   N     0.49999   0.16666   0.38264   0.00000  Uiso   1.00
O647   O     0.50000   0.10655   0.53958   0.00000  Uiso   1.00
O648   O     0.50000   0.22678   0.46042   0.00000  Uiso   1.00
O649   O     0.50000   0.10654   0.46039   0.00000  Uiso   1.00
O650   O     0.50000   0.22679   0.53961   0.00000  Uiso   1.00
O651   O     0.42495   0.16667   0.53046   0.00000  Uiso   1.00
O652   O     0.57505   0.16666   0.46954   0.00000  Uiso   1.00
O653   O     0.42494   0.16666   0.45127   0.00000  Uiso   1.00
O654   O     0.57506   0.16667   0.54873   0.00000  Uiso   1.00
C655   C     0.40872   0.03879   0.44961   0.00000  Uiso   1.00
C656   C     0.37197   0.05040   0.48467   0.00000  Uiso   1.00
C657   C     0.65260   0.06234   0.45951   0.00000  Uiso   1.00
H658   H     0.65694   0.08715   0.43325   0.00000  Uiso   1.00
H659   H     0.63274   0.03495   0.44145   0.00000  Uiso   1.00
H660   H     0.62834   0.07385   0.48542   0.00000  Uiso   1.00
H661   H     0.36648   0.02375   0.50842   0.00000  Uiso   1.00
H662   H     0.38885   0.07687   0.50639   0.00000  Uiso   1.00
H663   H     0.41858   0.06646   0.42920   0.00000  Uiso   1.00
H664   H     0.38842   0.01653   0.42370   0.00000  Uiso   1.00
C665   C     0.59131   0.29448   0.55087   0.00000  Uiso   1.00
C666   C     0.59566   0.30179   0.60398   0.00000  Uiso   1.00
C667   C     0.64199   0.27975   0.63003   0.00000  Uiso   1.00
H668   H     0.63859   0.24584   0.62359   0.00000  Uiso   1.00
H669   H     0.34500   0.29194   0.61825   0.00000  Uiso   1.00
H670   H     0.64375   0.28521   0.33499   0.00000  Uiso   1.00
H671   H     0.60028   0.00215   0.61160   0.00000  Uiso   1.00
H672   H     0.55985   0.29042   0.61738   0.00000  Uiso   1.00
H673   H     0.59215   0.26072   0.54409   0.00000  Uiso   1.00
H674   H     0.62569   0.30855   0.53720   0.00000  Uiso   1.00
C675   C     0.44204   0.10381   0.61362   0.00000  Uiso   1.00
O676   O     0.39871   0.11054   0.59407   0.00000  Uiso   1.00
O677   O     0.46143   0.06379   0.61456   0.00000  Uiso   1.00
H678   H     0.43680   0.04333   0.59604   0.00000  Uiso   1.00
C679   C     0.55670   0.23036   0.38604   0.00000  Uiso   1.00
O680   O     0.59895   0.22412   0.40814   0.00000  Uiso   1.00
O681   O     0.53747   0.27045   0.38217   0.00000  Uiso   1.00
H682   H     0.56132   0.29148   0.40061   0.00000  Uiso   1.00
C683   C     0.83140   0.08751   0.49985   0.00000  Uiso   1.00
C684   C     0.83507   0.24582   0.50010   0.00000  Uiso   1.00
C685   C     0.73472   0.16690   0.48805   0.00000  Uiso   1.00
C686   C     0.93197   0.16714   0.51196   0.00000  Uiso   1.00
C687   C     0.67950   0.16683   0.48148   0.00000  Uiso   1.00
C688   C     0.98722   0.16836   0.51855   0.00000  Uiso   1.00
C689   C     0.79042   0.01948   0.47457   0.00000  Uiso   1.00
C690   C     0.87652   0.31381   0.52530   0.00000  Uiso   1.00
C691   C     0.79384   0.30986   0.47460   0.00000  Uiso   1.00
C692   C     0.87332   0.02349   0.52483   0.00000  Uiso   1.00
C693   C     0.83591   0.29047   0.49991   0.00000  Uiso   1.00
C694   C     0.83096   0.04285   0.49994   0.00000  Uiso   1.00
C695   C     0.80620   0.13719   0.35559   0.00000  Uiso   1.00
C696   C     0.86055   0.19603   0.64440   0.00000  Uiso   1.00
C697   C     0.80582   0.13706   0.63957   0.00000  Uiso   1.00
C698   C     0.86070   0.19637   0.36038   0.00000  Uiso   1.00
Cu699  Cu    0.83333   0.16667   0.54689   0.00000  Uiso   1.00
Cu700  Cu    0.83333   0.16666   0.45311   0.00000  Uiso   1.00
H701   H     0.99318   0.16478   0.44584   0.00000  Uiso   1.00
H702   H     0.67354   0.17058   0.55418   0.00000  Uiso   1.00
H703   H     0.76277   0.29115   0.45598   0.00000  Uiso   1.00
H704   H     0.90454   0.04218   0.54320   0.00000  Uiso   1.00
H705   H     0.78434   0.11376   0.37220   0.00000  Uiso   1.00
H706   H     0.88250   0.21919   0.62767   0.00000  Uiso   1.00
N707   N     0.83335   0.16668   0.61736   0.00000  Uiso   1.00
N708   N     0.83332   0.16666   0.38264   0.00000  Uiso   1.00
O709   O     0.83333   0.10655   0.53958   0.00000  Uiso   1.00
O710   O     0.83334   0.22678   0.46042   0.00000  Uiso   1.00
O711   O     0.83333   0.10654   0.46039   0.00000  Uiso   1.00
O712   O     0.83334   0.22679   0.53961   0.00000  Uiso   1.00
O713   O     0.75828   0.16667   0.53046   0.00000  Uiso   1.00
O714   O     0.90839   0.16666   0.46954   0.00000  Uiso   1.00
O715   O     0.75828   0.16666   0.45127   0.00000  Uiso   1.00
O716   O     0.90839   0.16667   0.54873   0.00000  Uiso   1.00
C717   C     0.74206   0.03879   0.44961   0.00000  Uiso   1.00
C718   C     0.70530   0.05040   0.48467   0.00000  Uiso   1.00
C719   C     0.98593   0.06234   0.45951   0.00000  Uiso   1.00
H720   H     0.99027   0.08715   0.43325   0.00000  Uiso   1.00
H721   H     0.96607   0.03495   0.44145   0.00000  Uiso   1.00
H722   H     0.96168   0.07385   0.48542   0.00000  Uiso   1.00
H723   H     0.69982   0.02375   0.50842   0.00000  Uiso   1.00
H724   H     0.72219   0.07687   0.50639   0.00000  Uiso   1.00
H725   H     0.75191   0.06646   0.42920   0.00000  Uiso   1.00
H726   H     0.72175   0.01653   0.42370   0.00000  Uiso   1.00
C727   C     0.92464   0.29448   0.55087   0.00000  Uiso   1.00
C728   C     0.92900   0.30179   0.60398   0.00000  Uiso   1.00
C729   C     0.97533   0.27975   0.63003   0.00000  Uiso   1.00
H730   H     0.97192   0.24584   0.62359   0.00000  Uiso   1.00
H731   H     0.67833   0.29194   0.61825   0.00000  Uiso   1.00
H732   H     0.97708   0.28521   0.33499   0.00000  Uiso   1.00
H733   H     0.93361   0.00215   0.61160   0.00000  Uiso   1.00
H734   H     0.89318   0.29042   0.61738   0.00000  Uiso   1.00
H735   H     0.92548   0.26072   0.54409   0.00000  Uiso   1.00
H736   H     0.95903   0.30855   0.53720   0.00000  Uiso   1.00
C737   C     0.77537   0.10381   0.61362   0.00000  Uiso   1.00
O738   O     0.73204   0.11054   0.59407   0.00000  Uiso   1.00
O739   O     0.79476   0.06379   0.61456   0.00000  Uiso   1.00
H740   H     0.77014   0.04333   0.59604   0.00000  Uiso   1.00
C741   C     0.89004   0.23036   0.38604   0.00000  Uiso   1.00
O742   O     0.93229   0.22412   0.40814   0.00000  Uiso   1.00
O743   O     0.87081   0.27045   0.38217   0.00000  Uiso   1.00
H744   H     0.89465   0.29148   0.40061   0.00000  Uiso   1.00
C745   C     0.16473   0.42084   0.49985   0.00000  Uiso   1.00
C746   C     0.16840   0.57915   0.50010   0.00000  Uiso   1.00
C747   C     0.06805   0.50024   0.48805   0.00000  Uiso   1.00
C748   C     0.26531   0.50047   0.51196   0.00000  Uiso   1.00
C749   C     0.01283   0.50017   0.48148   0.00000  Uiso   1.00
C750   C     0.32056   0.50169   0.51855   0.00000  Uiso   1.00
C751   C     0.12375   0.35282   0.47457   0.00000  Uiso   1.00
C752   C     0.20986   0.64714   0.52530   0.00000  Uiso   1.00
C753   C     0.12718   0.64319   0.47460   0.00000  Uiso   1.00
C754   C     0.20666   0.35682   0.52483   0.00000  Uiso   1.00
C755   C     0.16925   0.62381   0.49991   0.00000  Uiso   1.00
C756   C     0.16430   0.37618   0.49994   0.00000  Uiso   1.00
C757   C     0.13954   0.47052   0.35559   0.00000  Uiso   1.00
C758   C     0.19389   0.52936   0.64440   0.00000  Uiso   1.00
C759   C     0.13915   0.47040   0.63957   0.00000  Uiso   1.00
C760   C     0.19403   0.52970   0.36038   0.00000  Uiso   1.00
Cu761  Cu    0.16667   0.50001   0.54689   0.00000  Uiso   1.00
Cu762  Cu    0.16667   0.49999   0.45311   0.00000  Uiso   1.00
H763   H     0.32651   0.49812   0.44584   0.00000  Uiso   1.00
H764   H     0.00688   0.50391   0.55418   0.00000  Uiso   1.00
H765   H     0.09610   0.62448   0.45598   0.00000  Uiso   1.00
H766   H     0.23787   0.37552   0.54320   0.00000  Uiso   1.00
H767   H     0.11768   0.44709   0.37220   0.00000  Uiso   1.00
H768   H     0.21584   0.55252   0.62767   0.00000  Uiso   1.00
N769   N     0.16668   0.50001   0.61736   0.00000  Uiso   1.00
N770   N     0.16665   0.49999   0.38264   0.00000  Uiso   1.00
O771   O     0.16666   0.43989   0.53958   0.00000  Uiso   1.00
O772   O     0.16667   0.56011   0.46042   0.00000  Uiso   1.00
O773   O     0.16666   0.43988   0.46039   0.00000  Uiso   1.00
O774   O     0.16667   0.56012   0.53961   0.00000  Uiso   1.00
O775   O     0.09161   0.50000   0.53046   0.00000  Uiso   1.00
O776   O     0.24172   0.50000   0.46954   0.00000  Uiso   1.00
O777   O     0.09161   0.49999   0.45127   0.00000  Uiso   1.00
O778   O     0.24172   0.50001   0.54873   0.00000  Uiso   1.00
C779   C     0.07539   0.37212   0.44961   0.00000  Uiso   1.00
C780   C     0.03863   0.38374   0.48467   0.00000  Uiso   1.00
C781   C     0.31927   0.39568   0.45951   0.00000  Uiso   1.00
H782   H     0.32360   0.42048   0.43325   0.00000  Uiso   1.00
H783   H     0.29941   0.36828   0.44145   0.00000  Uiso   1.00
H784   H     0.29501   0.40719   0.48542   0.00000  Uiso   1.00
H785   H     0.03315   0.35709   0.50842   0.00000  Uiso   1.00
H786   H     0.05552   0.41021   0.50639   0.00000  Uiso   1.00
H787   H     0.08525   0.39980   0.42920   0.00000  Uiso   1.00
H788   H     0.05508   0.34986   0.42370   0.00000  Uiso   1.00
C789   C     0.25798   0.62782   0.55087   0.00000  Uiso   1.00
C790   C     0.26233   0.63512   0.60398   0.00000  Uiso   1.00
C791   C     0.30866   0.61309   0.63003   0.00000  Uiso   1.00
H792   H     0.30526   0.57917   0.62359   0.00000  Uiso   1.00
H793   H     0.01167   0.62527   0.61825   0.00000  Uiso   1.00
H794   H     0.31041   0.61854   0.33499   0.00000  Uiso   1.00
H795   H     0.26695   0.33548   0.61160   0.00000  Uiso   1.00
H796   H     0.22652   0.62375   0.61738   0.00000  Uiso   1.00
H797   H     0.25882   0.59406   0.54409   0.00000  Uiso   1.00
H798   H     0.29236   0.64188   0.53720   0.00000  Uiso   1.00
C799   C     0.10870   0.43715   0.61362   0.00000  Uiso   1.00
O800   O     0.06537   0.44388   0.59407   0.00000  Uiso   1.00
O801   O     0.12809   0.39712   0.61456   0.00000  Uiso   1.00
H802   H     0.10347   0.37666   0.59604   0.00000  Uiso   1.00
C803   C     0.22337   0.56369   0.38604   0.00000  Uiso   1.00
O804   O     0.26562   0.55745   0.40814   0.00000  Uiso   1.00
O805   O     0.20414   0.60378   0.38217   0.00000  Uiso   1.00
H806   H     0.22798   0.62481   0.40061   0.00000  Uiso   1.00
C807   C     0.49806   0.42084   0.49985   0.00000  Uiso   1.00
C808   C     0.50174   0.57915   0.50010   0.00000  Uiso   1.00
C809   C     0.40138   0.50024   0.48805   0.00000  Uiso   1.00
C810   C     0.59864   0.50047   0.51196   0.00000  Uiso   1.00
C811   C     0.34617   0.50017   0.48148   0.00000  Uiso   1.00
C812   C     0.65389   0.50169   0.51855   0.00000  Uiso   1.00
C813   C     0.45709   0.35282   0.47457   0.00000  Uiso   1.00
C814   C     0.54319   0.64714   0.52530   0.00000  Uiso   1.00
C815   C     0.46051   0.64319   0.47460   0.00000  Uiso   1.00
C816   C     0.53999   0.35682   0.52483   0.00000  Uiso   1.00
C817   C     0.50258   0.62381   0.49991   0.00000  Uiso   1.00
C818   C     0.49763   0.37618   0.49994   0.00000  Uiso   1.00
C819   C     0.47287   0.47052   0.35559   0.00000  Uiso   1.00
C820   C     0.52722   0.52936   0.64440   0.00000  Uiso   1.00
C821   C     0.47248   0.47040   0.63957   0.00000  Uiso   1.00
C822   C     0.52736   0.52970   0.36038   0.00000  Uiso   1.00
Cu823  Cu    0.50000   0.50001   0.54689   0.00000  Uiso   1.00
Cu824  Cu    0.50000   0.49999   0.45311   0.00000  Uiso   1.00
H825   H     0.65984   0.49812   0.44584   0.00000  Uiso   1.00
H826   H     0.34021   0.50391   0.55418   0.00000  Uiso   1.00
H827   H     0.42944   0.62448   0.45598   0.00000  Uiso   1.00
H828   H     0.57121   0.37552   0.54320   0.00000  Uiso   1.00
H829   H     0.45101   0.44709   0.37220   0.00000  Uiso   1.00
H830   H     0.54917   0.55252   0.62767   0.00000  Uiso   1.00
N831   N     0.50001   0.50001   0.61736   0.00000  Uiso   1.00
N832   N     0.49999   0.49999   0.38264   0.00000  Uiso   1.00
O833   O     0.50000   0.43989   0.53958   0.00000  Uiso   1.00
O834   O     0.50000   0.56011   0.46042   0.00000  Uiso   1.00
O835   O     0.50000   0.43988   0.46039   0.00000  Uiso   1.00
O836   O     0.50000   0.56012   0.53961   0.00000  Uiso   1.00
O837   O     0.42495   0.50000   0.53046   0.00000  Uiso   1.00
O838   O     0.57505   0.50000   0.46954   0.00000  Uiso   1.00
O839   O     0.42494   0.49999   0.45127   0.00000  Uiso   1.00
O840   O     0.57506   0.50001   0.54873   0.00000  Uiso   1.00
C841   C     0.40872   0.37212   0.44961   0.00000  Uiso   1.00
C842   C     0.37197   0.38374   0.48467   0.00000  Uiso   1.00
C843   C     0.65260   0.39568   0.45951   0.00000  Uiso   1.00
H844   H     0.65694   0.42048   0.43325   0.00000  Uiso   1.00
H845   H     0.63274   0.36828   0.44145   0.00000  Uiso   1.00
H846   H     0.62834   0.40719   0.48542   0.00000  Uiso   1.00
H847   H     0.36648   0.35709   0.50842   0.00000  Uiso   1.00
H848   H     0.38885   0.41021   0.50639   0.00000  Uiso   1.00
H849   H     0.41858   0.39980   0.42920   0.00000  Uiso   1.00
H850   H     0.38842   0.34986   0.42370   0.00000  Uiso   1.00
C851   C     0.59131   0.62782   0.55087   0.00000  Uiso   1.00
C852   C     0.59566   0.63512   0.60398   0.00000  Uiso   1.00
C853   C     0.64199   0.61309   0.63003   0.00000  Uiso   1.00
H854   H     0.63859   0.57917   0.62359   0.00000  Uiso   1.00
H855   H     0.34500   0.62527   0.61825   0.00000  Uiso   1.00
H856   H     0.64375   0.61854   0.33499   0.00000  Uiso   1.00
H857   H     0.60028   0.33548   0.61160   0.00000  Uiso   1.00
H858   H     0.55985   0.62375   0.61738   0.00000  Uiso   1.00
H859   H     0.59215   0.59406   0.54409   0.00000  Uiso   1.00
H860   H     0.62569   0.64188   0.53720   0.00000  Uiso   1.00
C861   C     0.44204   0.43715   0.61362   0.00000  Uiso   1.00
O862   O     0.39871   0.44388   0.59407   0.00000  Uiso   1.00
O863   O     0.46143   0.39712   0.61456   0.00000  Uiso   1.00
H864   H     0.43680   0.37666   0.59604   0.00000  Uiso   1.00
C865   C     0.55670   0.56369   0.38604   0.00000  Uiso   1.00
O866   O     0.59895   0.55745   0.40814   0.00000  Uiso   1.00
O867   O     0.53747   0.60378   0.38217   0.00000  Uiso   1.00
H868   H     0.56132   0.62481   0.40061   0.00000  Uiso   1.00
C869   C     0.83140   0.42084   0.49985   0.00000  Uiso   1.00
C870   C     0.83507   0.57915   0.50010   0.00000  Uiso   1.00
C871   C     0.73472   0.50024   0.48805   0.00000  Uiso   1.00
C872   C     0.93197   0.50047   0.51196   0.00000  Uiso   1.00
C873   C     0.67950   0.50017   0.48148   0.00000  Uiso   1.00
C874   C     0.98722   0.50169   0.51855   0.00000  Uiso   1.00
C875   C     0.79042   0.35282   0.47457   0.00000  Uiso   1.00
C876   C     0.87652   0.64714   0.52530   0.00000  Uiso   1.00
C877   C     0.79384   0.64319   0.47460   0.00000  Uiso   1.00
C878   C     0.87332   0.35682   0.52483   0.00000  Uiso   1.00
C879   C     0.83591   0.62381   0.49991   0.00000  Uiso   1.00
C880   C     0.83096   0.37618   0.49994   0.00000  Uiso   1.00
C881   C     0.80620   0.47052   0.35559   0.00000  Uiso   1.00
C882   C     0.86055   0.52936   0.64440   0.00000  Uiso   1.00
C883   C     0.80582   0.47040   0.63957   0.00000  Uiso   1.00
C884   C     0.86070   0.52970   0.36038   0.00000  Uiso   1.00
Cu885  Cu    0.83333   0.50001   0.54689   0.00000  Uiso   1.00
Cu886  Cu    0.83333   0.49999   0.45311   0.00000  Uiso   1.00
H887   H     0.99318   0.49812   0.44584   0.00000  Uiso   1.00
H888   H     0.67354   0.50391   0.55418   0.00000  Uiso   1.00
H889   H     0.76277   0.62448   0.45598   0.00000  Uiso   1.00
H890   H     0.90454   0.37552   0.54320   0.00000  Uiso   1.00
H891   H     0.78434   0.44709   0.37220   0.00000  Uiso   1.00
H892   H     0.88250   0.55252   0.62767   0.00000  Uiso   1.00
N893   N     0.83335   0.50001   0.61736   0.00000  Uiso   1.00
N894   N     0.83332   0.49999   0.38264   0.00000  Uiso   1.00
O895   O     0.83333   0.43989   0.53958   0.00000  Uiso   1.00
O896   O     0.83334   0.56011   0.46042   0.00000  Uiso   1.00
O897   O     0.83333   0.43988   0.46039   0.00000  Uiso   1.00
O898   O     0.83334   0.56012   0.53961   0.00000  Uiso   1.00
O899   O     0.75828   0.50000   0.53046   0.00000  Uiso   1.00
O900   O     0.90839   0.50000   0.46954   0.00000  Uiso   1.00
O901   O     0.75828   0.49999   0.45127   0.00000  Uiso   1.00
O902   O     0.90839   0.50001   0.54873   0.00000  Uiso   1.00
C903   C     0.74206   0.37212   0.44961   0.00000  Uiso   1.00
C904   C     0.70530   0.38374   0.48467   0.00000  Uiso   1.00
C905   C     0.98593   0.39568   0.45951   0.00000  Uiso   1.00
H906   H     0.99027   0.42048   0.43325   0.00000  Uiso   1.00
H907   H     0.96607   0.36828   0.44145   0.00000  Uiso   1.00
H908   H     0.96168   0.40719   0.48542   0.00000  Uiso   1.00
H909   H     0.69982   0.35709   0.50842   0.00000  Uiso   1.00
H910   H     0.72219   0.41021   0.50639   0.00000  Uiso   1.00
H911   H     0.75191   0.39980   0.42920   0.00000  Uiso   1.00
H912   H     0.72175   0.34986   0.42370   0.00000  Uiso   1.00
C913   C     0.92464   0.62782   0.55087   0.00000  Uiso   1.00
C914   C     0.92900   0.63512   0.60398   0.00000  Uiso   1.00
C915   C     0.97533   0.61309   0.63003   0.00000  Uiso   1.00
H916   H     0.97192   0.57917   0.62359   0.00000  Uiso   1.00
H917   H     0.67833   0.62527   0.61825   0.00000  Uiso   1.00
H918   H     0.97708   0.61854   0.33499   0.00000  Uiso   1.00
H919   H     0.93361   0.33548   0.61160   0.00000  Uiso   1.00
H920   H     0.89318   0.62375   0.61738   0.00000  Uiso   1.00
H921   H     0.92548   0.59406   0.54409   0.00000  Uiso   1.00
H922   H     0.95903   0.64188   0.53720   0.00000  Uiso   1.00
C923   C     0.77537   0.43715   0.61362   0.00000  Uiso   1.00
O924   O     0.73204   0.44388   0.59407   0.00000  Uiso   1.00
O925   O     0.79476   0.39712   0.61456   0.00000  Uiso   1.00
H926   H     0.77014   0.37666   0.59604   0.00000  Uiso   1.00
C927   C     0.89004   0.56369   0.38604   0.00000  Uiso   1.00
O928   O     0.93229   0.55745   0.40814   0.00000  Uiso   1.00
O929   O     0.87081   0.60378   0.38217   0.00000  Uiso   1.00
H930   H     0.89465   0.62481   0.40061   0.00000  Uiso   1.00
C931   C     0.16473   0.75418   0.49985   0.00000  Uiso   1.00
C932   C     0.16840   0.91248   0.50010   0.00000  Uiso   1.00
C933   C     0.06805   0.83357   0.48805   0.00000  Uiso   1.00
C934   C     0.26531   0.83380   0.51196   0.00000  Uiso   1.00
C935   C     0.01283   0.83350   0.48148   0.00000  Uiso   1.00
C936   C     0.32056   0.83503   0.51855   0.00000  Uiso   1.00
C937   C     0.12375   0.68615   0.47457   0.00000  Uiso   1.00
C938   C     0.20986   0.98047   0.52530   0.00000  Uiso   1.00
C939   C     0.12718   0.97652   0.47460   0.00000  Uiso   1.00
C940   C     0.20666   0.69016   0.52483   0.00000  Uiso   1.00
C941   C     0.16925   0.95714   0.49991   0.00000  Uiso   1.00
C942   C     0.16430   0.70951   0.49994   0.00000  Uiso   1.00
C943   C     0.13954   0.80385   0.35559   0.00000  Uiso   1.00
C944   C     0.19389   0.86269   0.64440   0.00000  Uiso   1.00
C945   C     0.13915   0.80373   0.63957   0.00000  Uiso   1.00
C946   C     0.19403   0.86304   0.36038   0.00000  Uiso   1.00
Cu947  Cu    0.16667   0.83334   0.54689   0.00000  Uiso   1.00
Cu948  Cu    0.16667   0.83333   0.45311   0.00000  Uiso   1.00
H949   H     0.32651   0.83145   0.44584   0.00000  Uiso   1.00
H950   H     0.00688   0.83724   0.55418   0.00000  Uiso   1.00
H951   H     0.09610   0.95782   0.45598   0.00000  Uiso   1.00
H952   H     0.23787   0.70885   0.54320   0.00000  Uiso   1.00
H953   H     0.11768   0.78043   0.37220   0.00000  Uiso   1.00
H954   H     0.21584   0.88586   0.62767   0.00000  Uiso   1.00
N955   N     0.16668   0.83334   0.61736   0.00000  Uiso   1.00
N956   N     0.16665   0.83332   0.38264   0.00000  Uiso   1.00
O957   O     0.16666   0.77322   0.53958   0.00000  Uiso   1.00
O958   O     0.16667   0.89345   0.46042   0.00000  Uiso   1.00
O959   O     0.16666   0.77321   0.46039   0.00000  Uiso   1.00
O960   O     0.16667   0.89346   0.53961   0.00000  Uiso   1.00
O961   O     0.09161   0.83334   0.53046   0.00000  Uiso   1.00
O962   O     0.24172   0.83333   0.46954   0.00000  Uiso   1.00
O963   O     0.09161   0.83333   0.45127   0.00000  Uiso   1.00
O964   O     0.24172   0.83334   0.54873   0.00000  Uiso   1.00
C965   C     0.07539   0.70546   0.44961   0.00000  Uiso   1.00
C966   C     0.03863   0.71707   0.48467   0.00000  Uiso   1.00
C967   C     0.31927   0.72901   0.45951   0.00000  Uiso   1.00
H968   H     0.32360   0.75381   0.43325   0.00000  Uiso   1.00
H969   H     0.29941   0.70162   0.44145   0.00000  Uiso   1.00
H970   H     0.29501   0.74052   0.48542   0.00000  Uiso   1.00
H971   H     0.03315   0.69042   0.50842   0.00000  Uiso   1.00
H972   H     0.05552   0.74354   0.50639   0.00000  Uiso   1.00
H973   H     0.08525   0.73313   0.42920   0.00000  Uiso   1.00
H974   H     0.05508   0.68320   0.42370   0.00000  Uiso   1.00
C975   C     0.25798   0.96115   0.55087   0.00000  Uiso   1.00
C976   C     0.26233   0.96846   0.60398   0.00000  Uiso   1.00
C977   C     0.30866   0.94642   0.63003   0.00000  Uiso   1.00
H978   H     0.30526   0.91251   0.62359   0.00000  Uiso   1.00
H979   H     0.01167   0.95860   0.61825   0.00000  Uiso   1.00
H980   H     0.31041   0.95188   0.33499   0.00000  Uiso   1.00
H981   H     0.26695   0.66881   0.61160   0.00000  Uiso   1.00
H982   H     0.22652   0.95709   0.61738   0.00000  Uiso   1.00
H983   H     0.25882   0.92739   0.54409   0.00000  Uiso   1.00
H984   H     0.29236   0.97521   0.53720   0.00000  Uiso   1.00
C985   C     0.10870   0.77048   0.61362   0.00000  Uiso   1.00
O986   O     0.06537   0.77721   0.59407   0.00000  Uiso   1.00
O987   O     0.12809   0.73046   0.61456   0.00000  Uiso   1.00
H988   H     0.10347   0.71000   0.59604   0.00000  Uiso   1.00
C989   C     0.22337   0.89703   0.38604   0.00000  Uiso   1.00
O990   O     0.26562   0.89079   0.40814   0.00000  Uiso   1.00
O991   O     0.20414   0.93711   0.38217   0.00000  Uiso   1.00
H992   H     0.22798   0.95815   0.40061   0.00000  Uiso   1.00
C993   C     0.49806   0.75418   0.49985   0.00000  Uiso   1.00
C994   C     0.50174   0.91248   0.50010   0.00000  Uiso   1.00
C995   C     0.40138   0.83357   0.48805   0.00000  Uiso   1.00
C996   C     0.59864   0.83380   0.51196   0.00000  Uiso   1.00
C997   C     0.34617   0.83350   0.48148   0.00000  Uiso   1.00
C998   C     0.65389   0.83503   0.51855   0.00000  Uiso   1.00
C999   C     0.45709   0.68615   0.47457   0.00000  Uiso   1.00
C1000  C     0.54319   0.98047   0.52530   0.00000  Uiso   1.00
C1001  C     0.46051   0.97652   0.47460   0.00000  Uiso   1.00
C1002  C     0.53999   0.69016   0.52483   0.00000  Uiso   1.00
C1003  C     0.50258   0.95714   0.49991   0.00000  Uiso   1.00
C1004  C     0.49763   0.70951   0.49994   0.00000  Uiso   1.00
C1005  C     0.47287   0.80385   0.35559   0.00000  Uiso   1.00
C1006  C     0.52722   0.86269   0.64440   0.00000  Uiso   1.00
C1007  C     0.47248   0.80373   0.63957   0.00000  Uiso   1.00
C1008  C     0.52736   0.86304   0.36038   0.00000  Uiso   1.00
Cu1009 Cu    0.50000   0.83334   0.54689   0.00000  Uiso   1.00
Cu1010 Cu    0.50000   0.83333   0.45311   0.00000  Uiso   1.00
H1011  H     0.65984   0.83145   0.44584   0.00000  Uiso   1.00
H1012  H     0.34021   0.83724   0.55418   0.00000  Uiso   1.00
H1013  H     0.42944   0.95782   0.45598   0.00000  Uiso   1.00
H1014  H     0.57121   0.70885   0.54320   0.00000  Uiso   1.00
H1015  H     0.45101   0.78043   0.37220   0.00000  Uiso   1.00
H1016  H     0.54917   0.88586   0.62767   0.00000  Uiso   1.00
N1017  N     0.50001   0.83334   0.61736   0.00000  Uiso   1.00
N1018  N     0.49999   0.83332   0.38264   0.00000  Uiso   1.00
O1019  O     0.50000   0.77322   0.53958   0.00000  Uiso   1.00
O1020  O     0.50000   0.89345   0.46042   0.00000  Uiso   1.00
O1021  O     0.50000   0.77321   0.46039   0.00000  Uiso   1.00
O1022  O     0.50000   0.89346   0.53961   0.00000  Uiso   1.00
O1023  O     0.42495   0.83334   0.53046   0.00000  Uiso   1.00
O1024  O     0.57505   0.83333   0.46954   0.00000  Uiso   1.00
O1025  O     0.42494   0.83333   0.45127   0.00000  Uiso   1.00
O1026  O     0.57506   0.83334   0.54873   0.00000  Uiso   1.00
C1027  C     0.40872   0.70546   0.44961   0.00000  Uiso   1.00
C1028  C     0.37197   0.71707   0.48467   0.00000  Uiso   1.00
C1029  C     0.65260   0.72901   0.45951   0.00000  Uiso   1.00
H1030  H     0.65694   0.75381   0.43325   0.00000  Uiso   1.00
H1031  H     0.63274   0.70162   0.44145   0.00000  Uiso   1.00
H1032  H     0.62834   0.74052   0.48542   0.00000  Uiso   1.00
H1033  H     0.36648   0.69042   0.50842   0.00000  Uiso   1.00
H1034  H     0.38885   0.74354   0.50639   0.00000  Uiso   1.00
H1035  H     0.41858   0.73313   0.42920   0.00000  Uiso   1.00
H1036  H     0.38842   0.68320   0.42370   0.00000  Uiso   1.00
C1037  C     0.59131   0.96115   0.55087   0.00000  Uiso   1.00
C1038  C     0.59566   0.96846   0.60398   0.00000  Uiso   1.00
C1039  C     0.64199   0.94642   0.63003   0.00000  Uiso   1.00
H1040  H     0.63859   0.91251   0.62359   0.00000  Uiso   1.00
H1041  H     0.34500   0.95860   0.61825   0.00000  Uiso   1.00
H1042  H     0.64375   0.95188   0.33499   0.00000  Uiso   1.00
H1043  H     0.60028   0.66881   0.61160   0.00000  Uiso   1.00
H1044  H     0.55985   0.95709   0.61738   0.00000  Uiso   1.00
H1045  H     0.59215   0.92739   0.54409   0.00000  Uiso   1.00
H1046  H     0.62569   0.97521   0.53720   0.00000  Uiso   1.00
C1047  C     0.44204   0.77048   0.61362   0.00000  Uiso   1.00
O1048  O     0.39871   0.77721   0.59407   0.00000  Uiso   1.00
O1049  O     0.46143   0.73046   0.61456   0.00000  Uiso   1.00
H1050  H     0.43680   0.71000   0.59604   0.00000  Uiso   1.00
C1051  C     0.55670   0.89703   0.38604   0.00000  Uiso   1.00
O1052  O     0.59895   0.89079   0.40814   0.00000  Uiso   1.00
O1053  O     0.53747   0.93711   0.38217   0.00000  Uiso   1.00
H1054  H     0.56132   0.95815   0.40061   0.00000  Uiso   1.00
C1055  C     0.83140   0.75418   0.49985   0.00000  Uiso   1.00
C1056  C     0.83507   0.91248   0.50010   0.00000  Uiso   1.00
C1057  C     0.73472   0.83357   0.48805   0.00000  Uiso   1.00
C1058  C     0.93197   0.83380   0.51196   0.00000  Uiso   1.00
C1059  C     0.67950   0.83350   0.48148   0.00000  Uiso   1.00
C1060  C     0.98722   0.83503   0.51855   0.00000  Uiso   1.00
C1061  C     0.79042   0.68615   0.47457   0.00000  Uiso   1.00
C1062  C     0.87652   0.98047   0.52530   0.00000  Uiso   1.00
C1063  C     0.79384   0.97652   0.47460   0.00000  Uiso   1.00
C1064  C     0.87332   0.69016   0.52483   0.00000  Uiso   1.00
C1065  C     0.83591   0.95714   0.49991   0.00000  Uiso   1.00
C1066  C     0.83096   0.70951   0.49994   0.00000  Uiso   1.00
C1067  C     0.80620   0.80385   0.35559   0.00000  Uiso   1.00
C1068  C     0.86055   0.86269   0.64440   0.00000  Uiso   1.00
C1069  C     0.80582   0.80373   0.63957   0.00000  Uiso   1.00
C1070  C     0.86070   0.86304   0.36038   0.00000  Uiso   1.00
Cu1071 Cu    0.83333   0.83334   0.54689   0.00000  Uiso   1.00
Cu1072 Cu    0.83333   0.83333   0.45311   0.00000  Uiso   1.00
H1073  H     0.99318   0.83145   0.44584   0.00000  Uiso   1.00
H1074  H     0.67354   0.83724   0.55418   0.00000  Uiso   1.00
H1075  H     0.76277   0.95782   0.45598   0.00000  Uiso   1.00
H1076  H     0.90454   0.70885   0.54320   0.00000  Uiso   1.00
H1077  H     0.78434   0.78043   0.37220   0.00000  Uiso   1.00
H1078  H     0.88250   0.88586   0.62767   0.00000  Uiso   1.00
N1079  N     0.83335   0.83334   0.61736   0.00000  Uiso   1.00
N1080  N     0.83332   0.83332   0.38264   0.00000  Uiso   1.00
O1081  O     0.83333   0.77322   0.53958   0.00000  Uiso   1.00
O1082  O     0.83334   0.89345   0.46042   0.00000  Uiso   1.00
O1083  O     0.83333   0.77321   0.46039   0.00000  Uiso   1.00
O1084  O     0.83334   0.89346   0.53961   0.00000  Uiso   1.00
O1085  O     0.75828   0.83334   0.53046   0.00000  Uiso   1.00
O1086  O     0.90839   0.83333   0.46954   0.00000  Uiso   1.00
O1087  O     0.75828   0.83333   0.45127   0.00000  Uiso   1.00
O1088  O     0.90839   0.83334   0.54873   0.00000  Uiso   1.00
C1089  C     0.74206   0.70546   0.44961   0.00000  Uiso   1.00
C1090  C     0.70530   0.71707   0.48467   0.00000  Uiso   1.00
C1091  C     0.98593   0.72901   0.45951   0.00000  Uiso   1.00
H1092  H     0.99027   0.75381   0.43325   0.00000  Uiso   1.00
H1093  H     0.96607   0.70162   0.44145   0.00000  Uiso   1.00
H1094  H     0.96168   0.74052   0.48542   0.00000  Uiso   1.00
H1095  H     0.69982   0.69042   0.50842   0.00000  Uiso   1.00
H1096  H     0.72219   0.74354   0.50639   0.00000  Uiso   1.00
H1097  H     0.75191   0.73313   0.42920   0.00000  Uiso   1.00
H1098  H     0.72175   0.68320   0.42370   0.00000  Uiso   1.00
C1099  C     0.92464   0.96115   0.55087   0.00000  Uiso   1.00
C1100  C     0.92900   0.96846   0.60398   0.00000  Uiso   1.00
C1101  C     0.97533   0.94642   0.63003   0.00000  Uiso   1.00
H1102  H     0.97192   0.91251   0.62359   0.00000  Uiso   1.00
H1103  H     0.67833   0.95860   0.61825   0.00000  Uiso   1.00
H1104  H     0.97708   0.95188   0.33499   0.00000  Uiso   1.00
H1105  H     0.93361   0.66881   0.61160   0.00000  Uiso   1.00
H1106  H     0.89318   0.95709   0.61738   0.00000  Uiso   1.00
H1107  H     0.92548   0.92739   0.54409   0.00000  Uiso   1.00
H1108  H     0.95903   0.97521   0.53720   0.00000  Uiso   1.00
C1109  C     0.77537   0.77048   0.61362   0.00000  Uiso   1.00
O1110  O     0.73204   0.77721   0.59407   0.00000  Uiso   1.00
O1111  O     0.79476   0.73046   0.61456   0.00000  Uiso   1.00
H1112  H     0.77014   0.71000   0.59604   0.00000  Uiso   1.00
C1113  C     0.89004   0.89703   0.38604   0.00000  Uiso   1.00
O1114  O     0.93229   0.89079   0.40814   0.00000  Uiso   1.00
O1115  O     0.87081   0.93711   0.38217   0.00000  Uiso   1.00
H1116  H     0.89465   0.95815   0.40061   0.00000  Uiso   1.00
C1117  C     0.16473   0.08751   0.83318   0.00000  Uiso   1.00
C1118  C     0.16840   0.24582   0.83343   0.00000  Uiso   1.00
C1119  C     0.06805   0.16690   0.82138   0.00000  Uiso   1.00
C1120  C     0.26531   0.16714   0.84529   0.00000  Uiso   1.00
C1121  C     0.01283   0.16683   0.81481   0.00000  Uiso   1.00
C1122  C     0.32056   0.16836   0.85188   0.00000  Uiso   1.00
C1123  C     0.12375   0.01948   0.80790   0.00000  Uiso   1.00
C1124  C     0.20986   0.31381   0.85863   0.00000  Uiso   1.00
C1125  C     0.12718   0.30986   0.80793   0.00000  Uiso   1.00
C1126  C     0.20666   0.02349   0.85816   0.00000  Uiso   1.00
C1127  C     0.16925   0.29047   0.83325   0.00000  Uiso   1.00
C1128  C     0.16430   0.04285   0.83327   0.00000  Uiso   1.00
C1129  C     0.13954   0.13719   0.68892   0.00000  Uiso   1.00
C1130  C     0.19389   0.19603   0.97773   0.00000  Uiso   1.00
C1131  C     0.13915   0.13706   0.97290   0.00000  Uiso   1.00
C1132  C     0.19403   0.19637   0.69371   0.00000  Uiso   1.00
Cu1133 Cu    0.16667   0.16667   0.88022   0.00000  Uiso   1.00
Cu1134 Cu    0.16667   0.16666   0.78645   0.00000  Uiso   1.00
H1135  H     0.32651   0.16478   0.77917   0.00000  Uiso   1.00
H1136  H     0.00688   0.17058   0.88752   0.00000  Uiso   1.00
H1137  H     0.09610   0.29115   0.78931   0.00000  Uiso   1.00
H1138  H     0.23787   0.04218   0.87653   0.00000  Uiso   1.00
H1139  H     0.11768   0.11376   0.70553   0.00000  Uiso   1.00
H1140  H     0.21584   0.21919   0.96100   0.00000  Uiso   1.00
N1141  N     0.16668   0.16668   0.95069   0.00000  Uiso   1.00
N1142  N     0.16665   0.16666   0.71597   0.00000  Uiso   1.00
O1143  O     0.16666   0.10655   0.87291   0.00000  Uiso   1.00
O1144  O     0.16667   0.22678   0.79375   0.00000  Uiso   1.00
O1145  O     0.16666   0.10654   0.79372   0.00000  Uiso   1.00
O1146  O     0.16667   0.22679   0.87294   0.00000  Uiso   1.00
O1147  O     0.09161   0.16667   0.86379   0.00000  Uiso   1.00
O1148  O     0.24172   0.16666   0.80288   0.00000  Uiso   1.00
O1149  O     0.09161   0.16666   0.78460   0.00000  Uiso   1.00
O1150  O     0.24172   0.16667   0.88207   0.00000  Uiso   1.00
C1151  C     0.07539   0.03879   0.78295   0.00000  Uiso   1.00
C1152  C     0.03863   0.05040   0.81801   0.00000  Uiso   1.00
C1153  C     0.31927   0.06234   0.79284   0.00000  Uiso   1.00
H1154  H     0.32360   0.08715   0.76658   0.00000  Uiso   1.00
H1155  H     0.29941   0.03495   0.77478   0.00000  Uiso   1.00
H1156  H     0.29501   0.07385   0.81875   0.00000  Uiso   1.00
H1157  H     0.03315   0.02375   0.84175   0.00000  Uiso   1.00
H1158  H     0.05552   0.07687   0.83972   0.00000  Uiso   1.00
H1159  H     0.08525   0.06646   0.76253   0.00000  Uiso   1.00
H1160  H     0.05508   0.01653   0.75703   0.00000  Uiso   1.00
C1161  C     0.25798   0.29448   0.88420   0.00000  Uiso   1.00
C1162  C     0.26233   0.30179   0.93731   0.00000  Uiso   1.00
C1163  C     0.30866   0.27975   0.96337   0.00000  Uiso   1.00
H1164  H     0.30526   0.24584   0.95692   0.00000  Uiso   1.00
H1165  H     0.01167   0.29194   0.95158   0.00000  Uiso   1.00
H1166  H     0.31041   0.28521   0.66832   0.00000  Uiso   1.00
H1167  H     0.26695   0.00215   0.94493   0.00000  Uiso   1.00
H1168  H     0.22652   0.29042   0.95071   0.00000  Uiso   1.00
H1169  H     0.25882   0.26072   0.87742   0.00000  Uiso   1.00
H1170  H     0.29236   0.30855   0.87053   0.00000  Uiso   1.00
C1171  C     0.10870   0.10381   0.94696   0.00000  Uiso   1.00
O1172  O     0.06537   0.11054   0.92740   0.00000  Uiso   1.00
O1173  O     0.12809   0.06379   0.94789   0.00000  Uiso   1.00
H1174  H     0.10347   0.04333   0.92937   0.00000  Uiso   1.00
C1175  C     0.22337   0.23036   0.71937   0.00000  Uiso   1.00
O1176  O     0.26562   0.22412   0.74148   0.00000  Uiso   1.00
O1177  O     0.20414   0.27045   0.71551   0.00000  Uiso   1.00
H1178  H     0.22798   0.29148   0.73394   0.00000  Uiso   1.00
C1179  C     0.49806   0.08751   0.83318   0.00000  Uiso   1.00
C1180  C     0.50174   0.24582   0.83343   0.00000  Uiso   1.00
C1181  C     0.40138   0.16690   0.82138   0.00000  Uiso   1.00
C1182  C     0.59864   0.16714   0.84529   0.00000  Uiso   1.00
C1183  C     0.34617   0.16683   0.81481   0.00000  Uiso   1.00
C1184  C     0.65389   0.16836   0.85188   0.00000  Uiso   1.00
C1185  C     0.45709   0.01948   0.80790   0.00000  Uiso   1.00
C1186  C     0.54319   0.31381   0.85863   0.00000  Uiso   1.00
C1187  C     0.46051   0.30986   0.80793   0.00000  Uiso   1.00
C1188  C     0.53999   0.02349   0.85816   0.00000  Uiso   1.00
C1189  C     0.50258   0.29047   0.83325   0.00000  Uiso   1.00
C1190  C     0.49763   0.04285   0.83327   0.00000  Uiso   1.00
C1191  C     0.47287   0.13719   0.68892   0.00000  Uiso   1.00
C1192  C     0.52722   0.19603   0.97773   0.00000  Uiso   1.00
C1193  C     0.47248   0.13706   0.97290   0.00000  Uiso   1.00
C1194  C     0.52736   0.19637   0.69371   0.00000  Uiso   1.00
Cu1195 Cu    0.50000   0.16667   0.88022   0.00000  Uiso   1.00
Cu1196 Cu    0.50000   0.16666   0.78645   0.00000  Uiso   1.00
H1197  H     0.65984   0.16478   0.77917   0.00000  Uiso   1.00
H1198  H     0.34021   0.17058   0.88752   0.00000  Uiso   1.00
H1199  H     0.42944   0.29115   0.78931   0.00000  Uiso   1.00
H1200  H     0.57121   0.04218   0.87653   0.00000  Uiso   1.00
H1201  H     0.45101   0.11376   0.70553   0.00000  Uiso   1.00
H1202  H     0.54917   0.21919   0.96100   0.00000  Uiso   1.00
N1203  N     0.50001   0.16668   0.95069   0.00000  Uiso   1.00
N1204  N     0.49999   0.16666   0.71597   0.00000  Uiso   1.00
O1205  O     0.50000   0.10655   0.87291   0.00000  Uiso   1.00
O1206  O     0.50000   0.22678   0.79375   0.00000  Uiso   1.00
O1207  O     0.50000   0.10654   0.79372   0.00000  Uiso   1.00
O1208  O     0.50000   0.22679   0.87294   0.00000  Uiso   1.00
O1209  O     0.42495   0.16667   0.86379   0.00000  Uiso   1.00
O1210  O     0.57505   0.16666   0.80288   0.00000  Uiso   1.00
O1211  O     0.42494   0.16666   0.78460   0.00000  Uiso   1.00
O1212  O     0.57506   0.16667   0.88207   0.00000  Uiso   1.00
C1213  C     0.40872   0.03879   0.78295   0.00000  Uiso   1.00
C1214  C     0.37197   0.05040   0.81801   0.00000  Uiso   1.00
C1215  C     0.65260   0.06234   0.79284   0.00000  Uiso   1.00
H1216  H     0.65694   0.08715   0.76658   0.00000  Uiso   1.00
H1217  H     0.63274   0.03495   0.77478   0.00000  Uiso   1.00
H1218  H     0.62834   0.07385   0.81875   0.00000  Uiso   1.00
H1219  H     0.36648   0.02375   0.84175   0.00000  Uiso   1.00
H1220  H     0.38885   0.07687   0.83972   0.00000  Uiso   1.00
H1221  H     0.41858   0.06646   0.76253   0.00000  Uiso   1.00
H1222  H     0.38842   0.01653   0.75703   0.00000  Uiso   1.00
C1223  C     0.59131   0.29448   0.88420   0.00000  Uiso   1.00
C1224  C     0.59566   0.30179   0.93731   0.00000  Uiso   1.00
C1225  C     0.64199   0.27975   0.96337   0.00000  Uiso   1.00
H1226  H     0.63859   0.24584   0.95692   0.00000  Uiso   1.00
H1227  H     0.34500   0.29194   0.95158   0.00000  Uiso   1.00
H1228  H     0.64375   0.28521   0.66832   0.00000  Uiso   1.00
H1229  H     0.60028   0.00215   0.94493   0.00000  Uiso   1.00
H1230  H     0.55985   0.29042   0.95071   0.00000  Uiso   1.00
H1231  H     0.59215   0.26072   0.87742   0.00000  Uiso   1.00
H1232  H     0.62569   0.30855   0.87053   0.00000  Uiso   1.00
C1233  C     0.44204   0.10381   0.94696   0.00000  Uiso   1.00
O1234  O     0.39871   0.11054   0.92740   0.00000  Uiso   1.00
O1235  O     0.46143   0.06379   0.94789   0.00000  Uiso   1.00
H1236  H     0.43680   0.04333   0.92937   0.00000  Uiso   1.00
C1237  C     0.55670   0.23036   0.71937   0.00000  Uiso   1.00
O1238  O     0.59895   0.22412   0.74148   0.00000  Uiso   1.00
O1239  O     0.53747   0.27045   0.71551   0.00000  Uiso   1.00
H1240  H     0.56132   0.29148   0.73394   0.00000  Uiso   1.00
C1241  C     0.83140   0.08751   0.83318   0.00000  Uiso   1.00
C1242  C     0.83507   0.24582   0.83343   0.00000  Uiso   1.00
C1243  C     0.73472   0.16690   0.82138   0.00000  Uiso   1.00
C1244  C     0.93197   0.16714   0.84529   0.00000  Uiso   1.00
C1245  C     0.67950   0.16683   0.81481   0.00000  Uiso   1.00
C1246  C     0.98722   0.16836   0.85188   0.00000  Uiso   1.00
C1247  C     0.79042   0.01948   0.80790   0.00000  Uiso   1.00
C1248  C     0.87652   0.31381   0.85863   0.00000  Uiso   1.00
C1249  C     0.79384   0.30986   0.80793   0.00000  Uiso   1.00
C1250  C     0.87332   0.02349   0.85816   0.00000  Uiso   1.00
C1251  C     0.83591   0.29047   0.83325   0.00000  Uiso   1.00
C1252  C     0.83096   0.04285   0.83327   0.00000  Uiso   1.00
C1253  C     0.80620   0.13719   0.68892   0.00000  Uiso   1.00
C1254  C     0.86055   0.19603   0.97773   0.00000  Uiso   1.00
C1255  C     0.80582   0.13706   0.97290   0.00000  Uiso   1.00
C1256  C     0.86070   0.19637   0.69371   0.00000  Uiso   1.00
Cu1257 Cu    0.83333   0.16667   0.88022   0.00000  Uiso   1.00
Cu1258 Cu    0.83333   0.16666   0.78645   0.00000  Uiso   1.00
H1259  H     0.99318   0.16478   0.77917   0.00000  Uiso   1.00
H1260  H     0.67354   0.17058   0.88752   0.00000  Uiso   1.00
H1261  H     0.76277   0.29115   0.78931   0.00000  Uiso   1.00
H1262  H     0.90454   0.04218   0.87653   0.00000  Uiso   1.00
H1263  H     0.78434   0.11376   0.70553   0.00000  Uiso   1.00
H1264  H     0.88250   0.21919   0.96100   0.00000  Uiso   1.00
N1265  N     0.83335   0.16668   0.95069   0.00000  Uiso   1.00
N1266  N     0.83332   0.16666   0.71597   0.00000  Uiso   1.00
O1267  O     0.83333   0.10655   0.87291   0.00000  Uiso   1.00
O1268  O     0.83334   0.22678   0.79375   0.00000  Uiso   1.00
O1269  O     0.83333   0.10654   0.79372   0.00000  Uiso   1.00
O1270  O     0.83334   0.22679   0.87294   0.00000  Uiso   1.00
O1271  O     0.75828   0.16667   0.86379   0.00000  Uiso   1.00
O1272  O     0.90839   0.16666   0.80288   0.00000  Uiso   1.00
O1273  O     0.75828   0.16666   0.78460   0.00000  Uiso   1.00
O1274  O     0.90839   0.16667   0.88207   0.00000  Uiso   1.00
C1275  C     0.74206   0.03879   0.78295   0.00000  Uiso   1.00
C1276  C     0.70530   0.05040   0.81801   0.00000  Uiso   1.00
C1277  C     0.98593   0.06234   0.79284   0.00000  Uiso   1.00
H1278  H     0.99027   0.08715   0.76658   0.00000  Uiso   1.00
H1279  H     0.96607   0.03495   0.77478   0.00000  Uiso   1.00
H1280  H     0.96168   0.07385   0.81875   0.00000  Uiso   1.00
H1281  H     0.69982   0.02375   0.84175   0.00000  Uiso   1.00
H1282  H     0.72219   0.07687   0.83972   0.00000  Uiso   1.00
H1283  H     0.75191   0.06646   0.76253   0.00000  Uiso   1.00
H1284  H     0.72175   0.01653   0.75703   0.00000  Uiso   1.00
C1285  C     0.92464   0.29448   0.88420   0.00000  Uiso   1.00
C1286  C     0.92900   0.30179   0.93731   0.00000  Uiso   1.00
C1287  C     0.97533   0.27975   0.96337   0.00000  Uiso   1.00
H1288  H     0.97192   0.24584   0.95692   0.00000  Uiso   1.00
H1289  H     0.67833   0.29194   0.95158   0.00000  Uiso   1.00
H1290  H     0.97708   0.28521   0.66832   0.00000  Uiso   1.00
H1291  H     0.93361   0.00215   0.94493   0.00000  Uiso   1.00
H1292  H     0.89318   0.29042   0.95071   0.00000  Uiso   1.00
H1293  H     0.92548   0.26072   0.87742   0.00000  Uiso   1.00
H1294  H     0.95903   0.30855   0.87053   0.00000  Uiso   1.00
C1295  C     0.77537   0.10381   0.94696   0.00000  Uiso   1.00
O1296  O     0.73204   0.11054   0.92740   0.00000  Uiso   1.00
O1297  O     0.79476   0.06379   0.94789   0.00000  Uiso   1.00
H1298  H     0.77014   0.04333   0.92937   0.00000  Uiso   1.00
C1299  C     0.89004   0.23036   0.71937   0.00000  Uiso   1.00
O1300  O     0.93229   0.22412   0.74148   0.00000  Uiso   1.00
O1301  O     0.87081   0.27045   0.71551   0.00000  Uiso   1.00
H1302  H     0.89465   0.29148   0.73394   0.00000  Uiso   1.00
C1303  C     0.16473   0.42084   0.83318   0.00000  Uiso   1.00
C1304  C     0.16840   0.57915   0.83343   0.00000  Uiso   1.00
C1305  C     0.06805   0.50024   0.82138   0.00000  Uiso   1.00
C1306  C     0.26531   0.50047   0.84529   0.00000  Uiso   1.00
C1307  C     0.01283   0.50017   0.81481   0.00000  Uiso   1.00
C1308  C     0.32056   0.50169   0.85188   0.00000  Uiso   1.00
C1309  C     0.12375   0.35282   0.80790   0.00000  Uiso   1.00
C1310  C     0.20986   0.64714   0.85863   0.00000  Uiso   1.00
C1311  C     0.12718   0.64319   0.80793   0.00000  Uiso   1.00
C1312  C     0.20666   0.35682   0.85816   0.00000  Uiso   1.00
C1313  C     0.16925   0.62381   0.83325   0.00000  Uiso   1.00
C1314  C     0.16430   0.37618   0.83327   0.00000  Uiso   1.00
C1315  C     0.13954   0.47052   0.68892   0.00000  Uiso   1.00
C1316  C     0.19389   0.52936   0.97773   0.00000  Uiso   1.00
C1317  C     0.13915   0.47040   0.97290   0.00000  Uiso   1.00
C1318  C     0.19403   0.52970   0.69371   0.00000  Uiso   1.00
Cu1319 Cu    0.16667   0.50001   0.88022   0.00000  Uiso   1.00
Cu1320 Cu    0.16667   0.49999   0.78645   0.00000  Uiso   1.00
H1321  H     0.32651   0.49812   0.77917   0.00000  Uiso   1.00
H1322  H     0.00688   0.50391   0.88752   0.00000  Uiso   1.00
H1323  H     0.09610   0.62448   0.78931   0.00000  Uiso   1.00
H1324  H     0.23787   0.37552   0.87653   0.00000  Uiso   1.00
H1325  H     0.11768   0.44709   0.70553   0.00000  Uiso   1.00
H1326  H     0.21584   0.55252   0.96100   0.00000  Uiso   1.00
N1327  N     0.16668   0.50001   0.95069   0.00000  Uiso   1.00
N1328  N     0.16665   0.49999   0.71597   0.00000  Uiso   1.00
O1329  O     0.16666   0.43989   0.87291   0.00000  Uiso   1.00
O1330  O     0.16667   0.56011   0.79375   0.00000  Uiso   1.00
O1331  O     0.16666   0.43988   0.79372   0.00000  Uiso   1.00
O1332  O     0.16667   0.56012   0.87294   0.00000  Uiso   1.00
O1333  O     0.09161   0.50000   0.86379   0.00000  Uiso   1.00
O1334  O     0.24172   0.50000   0.80288   0.00000  Uiso   1.00
O1335  O     0.09161   0.49999   0.78460   0.00000  Uiso   1.00
O1336  O     0.24172   0.50001   0.88207   0.00000  Uiso   1.00
C1337  C     0.07539   0.37212   0.78295   0.00000  Uiso   1.00
C1338  C     0.03863   0.38374   0.81801   0.00000  Uiso   1.00
C1339  C     0.31927   0.39568   0.79284   0.00000  Uiso   1.00
H1340  H     0.32360   0.42048   0.76658   0.00000  Uiso   1.00
H1341  H     0.29941   0.36828   0.77478   0.00000  Uiso   1.00
H1342  H     0.29501   0.40719   0.81875   0.00000  Uiso   1.00
H1343  H     0.03315   0.35709   0.84175   0.00000  Uiso   1.00
H1344  H     0.05552   0.41021   0.83972   0.00000  Uiso   1.00
H1345  H     0.08525   0.39980   0.76253   0.00000  Uiso   1.00
H1346  H     0.05508   0.34986   0.75703   0.00000  Uiso   1.00
C1347  C     0.25798   0.62782   0.88420   0.00000  Uiso   1.00
C1348  C     0.26233   0.63512   0.93731   0.00000  Uiso   1.00
C1349  C     0.30866   0.61309   0.96337   0.00000  Uiso   1.00
H1350  H     0.30526   0.57917   0.95692   0.00000  Uiso   1.00
H1351  H     0.01167   0.62527   0.95158   0.00000  Uiso   1.00
H1352  H     0.31041   0.61854   0.66832   0.00000  Uiso   1.00
H1353  H     0.26695   0.33548   0.94493   0.00000  Uiso   1.00
H1354  H     0.22652   0.62375   0.95071   0.00000  Uiso   1.00
H1355  H     0.25882   0.59406   0.87742   0.00000  Uiso   1.00
H1356  H     0.29236   0.64188   0.87053   0.00000  Uiso   1.00
C1357  C     0.10870   0.43715   0.94696   0.00000  Uiso   1.00
O1358  O     0.06537   0.44388   0.92740   0.00000  Uiso   1.00
O1359  O     0.12809   0.39712   0.94789   0.00000  Uiso   1.00
H1360  H     0.10347   0.37666   0.92937   0.00000  Uiso   1.00
C1361  C     0.22337   0.56369   0.71937   0.00000  Uiso   1.00
O1362  O     0.26562   0.55745   0.74148   0.00000  Uiso   1.00
O1363  O     0.20414   0.60378   0.71551   0.00000  Uiso   1.00
H1364  H     0.22798   0.62481   0.73394   0.00000  Uiso   1.00
C1365  C     0.49806   0.42084   0.83318   0.00000  Uiso   1.00
C1366  C     0.50174   0.57915   0.83343   0.00000  Uiso   1.00
C1367  C     0.40138   0.50024   0.82138   0.00000  Uiso   1.00
C1368  C     0.59864   0.50047   0.84529   0.00000  Uiso   1.00
C1369  C     0.34617   0.50017   0.81481   0.00000  Uiso   1.00
C1370  C     0.65389   0.50169   0.85188   0.00000  Uiso   1.00
C1371  C     0.45709   0.35282   0.80790   0.00000  Uiso   1.00
C1372  C     0.54319   0.64714   0.85863   0.00000  Uiso   1.00
C1373  C     0.46051   0.64319   0.80793   0.00000  Uiso   1.00
C1374  C     0.53999   0.35682   0.85816   0.00000  Uiso   1.00
C1375  C     0.50258   0.62381   0.83325   0.00000  Uiso   1.00
C1376  C     0.49763   0.37618   0.83327   0.00000  Uiso   1.00
C1377  C     0.47287   0.47052   0.68892   0.00000  Uiso   1.00
C1378  C     0.52722   0.52936   0.97773   0.00000  Uiso   1.00
C1379  C     0.47248   0.47040   0.97290   0.00000  Uiso   1.00
C1380  C     0.52736   0.52970   0.69371   0.00000  Uiso   1.00
Cu1381 Cu    0.50000   0.50001   0.88022   0.00000  Uiso   1.00
Cu1382 Cu    0.50000   0.49999   0.78645   0.00000  Uiso   1.00
H1383  H     0.65984   0.49812   0.77917   0.00000  Uiso   1.00
H1384  H     0.34021   0.50391   0.88752   0.00000  Uiso   1.00
H1385  H     0.42944   0.62448   0.78931   0.00000  Uiso   1.00
H1386  H     0.57121   0.37552   0.87653   0.00000  Uiso   1.00
H1387  H     0.45101   0.44709   0.70553   0.00000  Uiso   1.00
H1388  H     0.54917   0.55252   0.96100   0.00000  Uiso   1.00
N1389  N     0.50001   0.50001   0.95069   0.00000  Uiso   1.00
N1390  N     0.49999   0.49999   0.71597   0.00000  Uiso   1.00
O1391  O     0.50000   0.43989   0.87291   0.00000  Uiso   1.00
O1392  O     0.50000   0.56011   0.79375   0.00000  Uiso   1.00
O1393  O     0.50000   0.43988   0.79372   0.00000  Uiso   1.00
O1394  O     0.50000   0.56012   0.87294   0.00000  Uiso   1.00
O1395  O     0.42495   0.50000   0.86379   0.00000  Uiso   1.00
O1396  O     0.57505   0.50000   0.80288   0.00000  Uiso   1.00
O1397  O     0.42494   0.49999   0.78460   0.00000  Uiso   1.00
O1398  O     0.57506   0.50001   0.88207   0.00000  Uiso   1.00
C1399  C     0.40872   0.37212   0.78295   0.00000  Uiso   1.00
C1400  C     0.37197   0.38374   0.81801   0.00000  Uiso   1.00
C1401  C     0.65260   0.39568   0.79284   0.00000  Uiso   1.00
H1402  H     0.65694   0.42048   0.76658   0.00000  Uiso   1.00
H1403  H     0.63274   0.36828   0.77478   0.00000  Uiso   1.00
H1404  H     0.62834   0.40719   0.81875   0.00000  Uiso   1.00
H1405  H     0.36648   0.35709   0.84175   0.00000  Uiso   1.00
H1406  H     0.38885   0.41021   0.83972   0.00000  Uiso   1.00
H1407  H     0.41858   0.39980   0.76253   0.00000  Uiso   1.00
H1408  H     0.38842   0.34986   0.75703   0.00000  Uiso   1.00
C1409  C     0.59131   0.62782   0.88420   0.00000  Uiso   1.00
C1410  C     0.59566   0.63512   0.93731   0.00000  Uiso   1.00
C1411  C     0.64199   0.61309   0.96337   0.00000  Uiso   1.00
H1412  H     0.63859   0.57917   0.95692   0.00000  Uiso   1.00
H1413  H     0.34500   0.62527   0.95158   0.00000  Uiso   1.00
H1414  H     0.64375   0.61854   0.66832   0.00000  Uiso   1.00
H1415  H     0.60028   0.33548   0.94493   0.00000  Uiso   1.00
H1416  H     0.55985   0.62375   0.95071   0.00000  Uiso   1.00
H1417  H     0.59215   0.59406   0.87742   0.00000  Uiso   1.00
H1418  H     0.62569   0.64188   0.87053   0.00000  Uiso   1.00
C1419  C     0.44204   0.43715   0.94696   0.00000  Uiso   1.00
O1420  O     0.39871   0.44388   0.92740   0.00000  Uiso   1.00
O1421  O     0.46143   0.39712   0.94789   0.00000  Uiso   1.00
H1422  H     0.43680   0.37666   0.92937   0.00000  Uiso   1.00
C1423  C     0.55670   0.56369   0.71937   0.00000  Uiso   1.00
O1424  O     0.59895   0.55745   0.74148   0.00000  Uiso   1.00
O1425  O     0.53747   0.60378   0.71551   0.00000  Uiso   1.00
H1426  H     0.56132   0.62481   0.73394   0.00000  Uiso   1.00
C1427  C     0.83140   0.42084   0.83318   0.00000  Uiso   1.00
C1428  C     0.83507   0.57915   0.83343   0.00000  Uiso   1.00
C1429  C     0.73472   0.50024   0.82138   0.00000  Uiso   1.00
C1430  C     0.93197   0.50047   0.84529   0.00000  Uiso   1.00
C1431  C     0.67950   0.50017   0.81481   0.00000  Uiso   1.00
C1432  C     0.98722   0.50169   0.85188   0.00000  Uiso   1.00
C1433  C     0.79042   0.35282   0.80790   0.00000  Uiso   1.00
C1434  C     0.87652   0.64714   0.85863   0.00000  Uiso   1.00
C1435  C     0.79384   0.64319   0.80793   0.00000  Uiso   1.00
C1436  C     0.87332   0.35682   0.85816   0.00000  Uiso   1.00
C1437  C     0.83591   0.62381   0.83325   0.00000  Uiso   1.00
C1438  C     0.83096   0.37618   0.83327   0.00000  Uiso   1.00
C1439  C     0.80620   0.47052   0.68892   0.00000  Uiso   1.00
C1440  C     0.86055   0.52936   0.97773   0.00000  Uiso   1.00
C1441  C     0.80582   0.47040   0.97290   0.00000  Uiso   1.00
C1442  C     0.86070   0.52970   0.69371   0.00000  Uiso   1.00
Cu1443 Cu    0.83333   0.50001   0.88022   0.00000  Uiso   1.00
Cu1444 Cu    0.83333   0.49999   0.78645   0.00000  Uiso   1.00
H1445  H     0.99318   0.49812   0.77917   0.00000  Uiso   1.00
H1446  H     0.67354   0.50391   0.88752   0.00000  Uiso   1.00
H1447  H     0.76277   0.62448   0.78931   0.00000  Uiso   1.00
H1448  H     0.90454   0.37552   0.87653   0.00000  Uiso   1.00
H1449  H     0.78434   0.44709   0.70553   0.00000  Uiso   1.00
H1450  H     0.88250   0.55252   0.96100   0.00000  Uiso   1.00
N1451  N     0.83335   0.50001   0.95069   0.00000  Uiso   1.00
N1452  N     0.83332   0.49999   0.71597   0.00000  Uiso   1.00
O1453  O     0.83333   0.43989   0.87291   0.00000  Uiso   1.00
O1454  O     0.83334   0.56011   0.79375   0.00000  Uiso   1.00
O1455  O     0.83333   0.43988   0.79372   0.00000  Uiso   1.00
O1456  O     0.83334   0.56012   0.87294   0.00000  Uiso   1.00
O1457  O     0.75828   0.50000   0.86379   0.00000  Uiso   1.00
O1458  O     0.90839   0.50000   0.80288   0.00000  Uiso   1.00
O1459  O     0.75828   0.49999   0.78460   0.00000  Uiso   1.00
O1460  O     0.90839   0.50001   0.88207   0.00000  Uiso   1.00
C1461  C     0.74206   0.37212   0.78295   0.00000  Uiso   1.00
C1462  C     0.70530   0.38374   0.81801   0.00000  Uiso   1.00
C1463  C     0.98593   0.39568   0.79284   0.00000  Uiso   1.00
H1464  H     0.99027   0.42048   0.76658   0.00000  Uiso   1.00
H1465  H     0.96607   0.36828   0.77478   0.00000  Uiso   1.00
H1466  H     0.96168   0.40719   0.81875   0.00000  Uiso   1.00
H1467  H     0.69982   0.35709   0.84175   0.00000  Uiso   1.00
H1468  H     0.72219   0.41021   0.83972   0.00000  Uiso   1.00
H1469  H     0.75191   0.39980   0.76253   0.00000  Uiso   1.00
H1470  H     0.72175   0.34986   0.75703   0.00000  Uiso   1.00
C1471  C     0.92464   0.62782   0.88420   0.00000  Uiso   1.00
C1472  C     0.92900   0.63512   0.93731   0.00000  Uiso   1.00
C1473  C     0.97533   0.61309   0.96337   0.00000  Uiso   1.00
H1474  H     0.97192   0.57917   0.95692   0.00000  Uiso   1.00
H1475  H     0.67833   0.62527   0.95158   0.00000  Uiso   1.00
H1476  H     0.97708   0.61854   0.66832   0.00000  Uiso   1.00
H1477  H     0.93361   0.33548   0.94493   0.00000  Uiso   1.00
H1478  H     0.89318   0.62375   0.95071   0.00000  Uiso   1.00
H1479  H     0.92548   0.59406   0.87742   0.00000  Uiso   1.00
H1480  H     0.95903   0.64188   0.87053   0.00000  Uiso   1.00
C1481  C     0.77537   0.43715   0.94696   0.00000  Uiso   1.00
O1482  O     0.73204   0.44388   0.92740   0.00000  Uiso   1.00
O1483  O     0.79476   0.39712   0.94789   0.00000  Uiso   1.00
H1484  H     0.77014   0.37666   0.92937   0.00000  Uiso   1.00
C1485  C     0.89004   0.56369   0.71937   0.00000  Uiso   1.00
O1486  O     0.93229   0.55745   0.74148   0.00000  Uiso   1.00
O1487  O     0.87081   0.60378   0.71551   0.00000  Uiso   1.00
H1488  H     0.89465   0.62481   0.73394   0.00000  Uiso   1.00
C1489  C     0.16473   0.75418   0.83318   0.00000  Uiso   1.00
C1490  C     0.16840   0.91248   0.83343   0.00000  Uiso   1.00
C1491  C     0.06805   0.83357   0.82138   0.00000  Uiso   1.00
C1492  C     0.26531   0.83380   0.84529   0.00000  Uiso   1.00
C1493  C     0.01283   0.83350   0.81481   0.00000  Uiso   1.00
C1494  C     0.32056   0.83503   0.85188   0.00000  Uiso   1.00
C1495  C     0.12375   0.68615   0.80790   0.00000  Uiso   1.00
C1496  C     0.20986   0.98047   0.85863   0.00000  Uiso   1.00
C1497  C     0.12718   0.97652   0.80793   0.00000  Uiso   1.00
C1498  C     0.20666   0.69016   0.85816   0.00000  Uiso   1.00
C1499  C     0.16925   0.95714   0.83325   0.00000  Uiso   1.00
C1500  C     0.16430   0.70951   0.83327   0.00000  Uiso   1.00
C1501  C     0.13954   0.80385   0.68892   0.00000  Uiso   1.00
C1502  C     0.19389   0.86269   0.97773   0.00000  Uiso   1.00
C1503  C     0.13915   0.80373   0.97290   0.00000  Uiso   1.00
C1504  C     0.19403   0.86304   0.69371   0.00000  Uiso   1.00
Cu1505 Cu    0.16667   0.83334   0.88022   0.00000  Uiso   1.00
Cu1506 Cu    0.16667   0.83333   0.78645   0.00000  Uiso   1.00
H1507  H     0.32651   0.83145   0.77917   0.00000  Uiso   1.00
H1508  H     0.00688   0.83724   0.88752   0.00000  Uiso   1.00
H1509  H     0.09610   0.95782   0.78931   0.00000  Uiso   1.00
H1510  H     0.23787   0.70885   0.87653   0.00000  Uiso   1.00
H1511  H     0.11768   0.78043   0.70553   0.00000  Uiso   1.00
H1512  H     0.21584   0.88586   0.96100   0.00000  Uiso   1.00
N1513  N     0.16668   0.83334   0.95069   0.00000  Uiso   1.00
N1514  N     0.16665   0.83332   0.71597   0.00000  Uiso   1.00
O1515  O     0.16666   0.77322   0.87291   0.00000  Uiso   1.00
O1516  O     0.16667   0.89345   0.79375   0.00000  Uiso   1.00
O1517  O     0.16666   0.77321   0.79372   0.00000  Uiso   1.00
O1518  O     0.16667   0.89346   0.87294   0.00000  Uiso   1.00
O1519  O     0.09161   0.83334   0.86379   0.00000  Uiso   1.00
O1520  O     0.24172   0.83333   0.80288   0.00000  Uiso   1.00
O1521  O     0.09161   0.83333   0.78460   0.00000  Uiso   1.00
O1522  O     0.24172   0.83334   0.88207   0.00000  Uiso   1.00
C1523  C     0.07539   0.70546   0.78295   0.00000  Uiso   1.00
C1524  C     0.03863   0.71707   0.81801   0.00000  Uiso   1.00
C1525  C     0.31927   0.72901   0.79284   0.00000  Uiso   1.00
H1526  H     0.32360   0.75381   0.76658   0.00000  Uiso   1.00
H1527  H     0.29941   0.70162   0.77478   0.00000  Uiso   1.00
H1528  H     0.29501   0.74052   0.81875   0.00000  Uiso   1.00
H1529  H     0.03315   0.69042   0.84175   0.00000  Uiso   1.00
H1530  H     0.05552   0.74354   0.83972   0.00000  Uiso   1.00
H1531  H     0.08525   0.73313   0.76253   0.00000  Uiso   1.00
H1532  H     0.05508   0.68320   0.75703   0.00000  Uiso   1.00
C1533  C     0.25798   0.96115   0.88420   0.00000  Uiso   1.00
C1534  C     0.26233   0.96846   0.93731   0.00000  Uiso   1.00
C1535  C     0.30866   0.94642   0.96337   0.00000  Uiso   1.00
H1536  H     0.30526   0.91251   0.95692   0.00000  Uiso   1.00
H1537  H     0.01167   0.95860   0.95158   0.00000  Uiso   1.00
H1538  H     0.31041   0.95188   0.66832   0.00000  Uiso   1.00
H1539  H     0.26695   0.66881   0.94493   0.00000  Uiso   1.00
H1540  H     0.22652   0.95709   0.95071   0.00000  Uiso   1.00
H1541  H     0.25882   0.92739   0.87742   0.00000  Uiso   1.00
H1542  H     0.29236   0.97521   0.87053   0.00000  Uiso   1.00
C1543  C     0.10870   0.77048   0.94696   0.00000  Uiso   1.00
O1544  O     0.06537   0.77721   0.92740   0.00000  Uiso   1.00
O1545  O     0.12809   0.73046   0.94789   0.00000  Uiso   1.00
H1546  H     0.10347   0.71000   0.92937   0.00000  Uiso   1.00
C1547  C     0.22337   0.89703   0.71937   0.00000  Uiso   1.00
O1548  O     0.26562   0.89079   0.74148   0.00000  Uiso   1.00
O1549  O     0.20414   0.93711   0.71551   0.00000  Uiso   1.00
H1550  H     0.22798   0.95815   0.73394   0.00000  Uiso   1.00
C1551  C     0.49806   0.75418   0.83318   0.00000  Uiso   1.00
C1552  C     0.50174   0.91248   0.83343   0.00000  Uiso   1.00
C1553  C     0.40138   0.83357   0.82138   0.00000  Uiso   1.00
C1554  C     0.59864   0.83380   0.84529   0.00000  Uiso   1.00
C1555  C     0.34617   0.83350   0.81481   0.00000  Uiso   1.00
C1556  C     0.65389   0.83503   0.85188   0.00000  Uiso   1.00
C1557  C     0.45709   0.68615   0.80790   0.00000  Uiso   1.00
C1558  C     0.54319   0.98047   0.85863   0.00000  Uiso   1.00
C1559  C     0.46051   0.97652   0.80793   0.00000  Uiso   1.00
C1560  C     0.53999   0.69016   0.85816   0.00000  Uiso   1.00
C1561  C     0.50258   0.95714   0.83325   0.00000  Uiso   1.00
C1562  C     0.49763   0.70951   0.83327   0.00000  Uiso   1.00
C1563  C     0.47287   0.80385   0.68892   0.00000  Uiso   1.00
C1564  C     0.52722   0.86269   0.97773   0.00000  Uiso   1.00
C1565  C     0.47248   0.80373   0.97290   0.00000  Uiso   1.00
C1566  C     0.52736   0.86304   0.69371   0.00000  Uiso   1.00
Cu1567 Cu    0.50000   0.83334   0.88022   0.00000  Uiso   1.00
Cu1568 Cu    0.50000   0.83333   0.78645   0.00000  Uiso   1.00
H1569  H     0.65984   0.83145   0.77917   0.00000  Uiso   1.00
H1570  H     0.34021   0.83724   0.88752   0.00000  Uiso   1.00
H1571  H     0.42944   0.95782   0.78931   0.00000  Uiso   1.00
H1572  H     0.57121   0.70885   0.87653   0.00000  Uiso   1.00
H1573  H     0.45101   0.78043   0.70553   0.00000  Uiso   1.00
H1574  H     0.54917   0.88586   0.96100   0.00000  Uiso   1.00
N1575  N     0.50001   0.83334   0.95069   0.00000  Uiso   1.00
N1576  N     0.49999   0.83332   0.71597   0.00000  Uiso   1.00
O1577  O     0.50000   0.77322   0.87291   0.00000  Uiso   1.00
O1578  O     0.50000   0.89345   0.79375   0.00000  Uiso   1.00
O1579  O     0.50000   0.77321   0.79372   0.00000  Uiso   1.00
O1580  O     0.50000   0.89346   0.87294   0.00000  Uiso   1.00
O1581  O     0.42495   0.83334   0.86379   0.00000  Uiso   1.00
O1582  O     0.57505   0.83333   0.80288   0.00000  Uiso   1.00
O1583  O     0.42494   0.83333   0.78460   0.00000  Uiso   1.00
O1584  O     0.57506   0.83334   0.88207   0.00000  Uiso   1.00
C1585  C     0.40872   0.70546   0.78295   0.00000  Uiso   1.00
C1586  C     0.37197   0.71707   0.81801   0.00000  Uiso   1.00
C1587  C     0.65260   0.72901   0.79284   0.00000  Uiso   1.00
H1588  H     0.65694   0.75381   0.76658   0.00000  Uiso   1.00
H1589  H     0.63274   0.70162   0.77478   0.00000  Uiso   1.00
H1590  H     0.62834   0.74052   0.81875   0.00000  Uiso   1.00
H1591  H     0.36648   0.69042   0.84175   0.00000  Uiso   1.00
H1592  H     0.38885   0.74354   0.83972   0.00000  Uiso   1.00
H1593  H     0.41858   0.73313   0.76253   0.00000  Uiso   1.00
H1594  H     0.38842   0.68320   0.75703   0.00000  Uiso   1.00
C1595  C     0.59131   0.96115   0.88420   0.00000  Uiso   1.00
C1596  C     0.59566   0.96846   0.93731   0.00000  Uiso   1.00
C1597  C     0.64199   0.94642   0.96337   0.00000  Uiso   1.00
H1598  H     0.63859   0.91251   0.95692   0.00000  Uiso   1.00
H1599  H     0.34500   0.95860   0.95158   0.00000  Uiso   1.00
H1600  H     0.64375   0.95188   0.66832   0.00000  Uiso   1.00
H1601  H     0.60028   0.66881   0.94493   0.00000  Uiso   1.00
H1602  H     0.55985   0.95709   0.95071   0.00000  Uiso   1.00
H1603  H     0.59215   0.92739   0.87742   0.00000  Uiso   1.00
H1604  H     0.62569   0.97521   0.87053   0.00000  Uiso   1.00
C1605  C     0.44204   0.77048   0.94696   0.00000  Uiso   1.00
O1606  O     0.39871   0.77721   0.92740   0.00000  Uiso   1.00
O1607  O     0.46143   0.73046   0.94789   0.00000  Uiso   1.00
H1608  H     0.43680   0.71000   0.92937   0.00000  Uiso   1.00
C1609  C     0.55670   0.89703   0.71937   0.00000  Uiso   1.00
O1610  O     0.59895   0.89079   0.74148   0.00000  Uiso   1.00
O1611  O     0.53747   0.93711   0.71551   0.00000  Uiso   1.00
H1612  H     0.56132   0.95815   0.73394   0.00000  Uiso   1.00
C1613  C     0.83140   0.75418   0.83318   0.00000  Uiso   1.00
C1614  C     0.83507   0.91248   0.83343   0.00000  Uiso   1.00
C1615  C     0.73472   0.83357   0.82138   0.00000  Uiso   1.00
C1616  C     0.93197   0.83380   0.84529   0.00000  Uiso   1.00
C1617  C     0.67950   0.83350   0.81481   0.00000  Uiso   1.00
C1618  C     0.98722   0.83503   0.85188   0.00000  Uiso   1.00
C1619  C     0.79042   0.68615   0.80790   0.00000  Uiso   1.00
C1620  C     0.87652   0.98047   0.85863   0.00000  Uiso   1.00
C1621  C     0.79384   0.97652   0.80793   0.00000  Uiso   1.00
C1622  C     0.87332   0.69016   0.85816   0.00000  Uiso   1.00
C1623  C     0.83591   0.95714   0.83325   0.00000  Uiso   1.00
C1624  C     0.83096   0.70951   0.83327   0.00000  Uiso   1.00
C1625  C     0.80620   0.80385   0.68892   0.00000  Uiso   1.00
C1626  C     0.86055   0.86269   0.97773   0.00000  Uiso   1.00
C1627  C     0.80582   0.80373   0.97290   0.00000  Uiso   1.00
C1628  C     0.86070   0.86304   0.69371   0.00000  Uiso   1.00
Cu1629 Cu    0.83333   0.83334   0.88022   0.00000  Uiso   1.00
Cu1630 Cu    0.83333   0.83333   0.78645   0.00000  Uiso   1.00
H1631  H     0.99318   0.83145   0.77917   0.00000  Uiso   1.00
H1632  H     0.67354   0.83724   0.88752   0.00000  Uiso   1.00
H1633  H     0.76277   0.95782   0.78931   0.00000  Uiso   1.00
H1634  H     0.90454   0.70885   0.87653   0.00000  Uiso   1.00
H1635  H     0.78434   0.78043   0.70553   0.00000  Uiso   1.00
H1636  H     0.88250   0.88586   0.96100   0.00000  Uiso   1.00
N1637  N     0.83335   0.83334   0.95069   0.00000  Uiso   1.00
N1638  N     0.83332   0.83332   0.71597   0.00000  Uiso   1.00
O1639  O     0.83333   0.77322   0.87291   0.00000  Uiso   1.00
O1640  O     0.83334   0.89345   0.79375   0.00000  Uiso   1.00
O1641  O     0.83333   0.77321   0.79372   0.00000  Uiso   1.00
O1642  O     0.83334   0.89346   0.87294   0.00000  Uiso   1.00
O1643  O     0.75828   0.83334   0.86379   0.00000  Uiso   1.00
O1644  O     0.90839   0.83333   0.80288   0.00000  Uiso   1.00
O1645  O     0.75828   0.83333   0.78460   0.00000  Uiso   1.00
O1646  O     0.90839   0.83334   0.88207   0.00000  Uiso   1.00
C1647  C     0.74206   0.70546   0.78295   0.00000  Uiso   1.00
C1648  C     0.70530   0.71707   0.81801   0.00000  Uiso   1.00
C1649  C     0.98593   0.72901   0.79284   0.00000  Uiso   1.00
H1650  H     0.99027   0.75381   0.76658   0.00000  Uiso   1.00
H1651  H     0.96607   0.70162   0.77478   0.00000  Uiso   1.00
H1652  H     0.96168   0.74052   0.81875   0.00000  Uiso   1.00
H1653  H     0.69982   0.69042   0.84175   0.00000  Uiso   1.00
H1654  H     0.72219   0.74354   0.83972   0.00000  Uiso   1.00
H1655  H     0.75191   0.73313   0.76253   0.00000  Uiso   1.00
H1656  H     0.72175   0.68320   0.75703   0.00000  Uiso   1.00
C1657  C     0.92464   0.96115   0.88420   0.00000  Uiso   1.00
C1658  C     0.92900   0.96846   0.93731   0.00000  Uiso   1.00
C1659  C     0.97533   0.94642   0.96337   0.00000  Uiso   1.00
H1660  H     0.97192   0.91251   0.95692   0.00000  Uiso   1.00
H1661  H     0.67833   0.95860   0.95158   0.00000  Uiso   1.00
H1662  H     0.97708   0.95188   0.66832   0.00000  Uiso   1.00
H1663  H     0.93361   0.66881   0.94493   0.00000  Uiso   1.00
H1664  H     0.89318   0.95709   0.95071   0.00000  Uiso   1.00
H1665  H     0.92548   0.92739   0.87742   0.00000  Uiso   1.00
H1666  H     0.95903   0.97521   0.87053   0.00000  Uiso   1.00
C1667  C     0.77537   0.77048   0.94696   0.00000  Uiso   1.00
O1668  O     0.73204   0.77721   0.92740   0.00000  Uiso   1.00
O1669  O     0.79476   0.73046   0.94789   0.00000  Uiso   1.00
H1670  H     0.77014   0.71000   0.92937   0.00000  Uiso   1.00
C1671  C     0.89004   0.89703   0.71937   0.00000  Uiso   1.00
O1672  O     0.93229   0.89079   0.74148   0.00000  Uiso   1.00
O1673  O     0.87081   0.93711   0.71551   0.00000  Uiso   1.00
H1674  H     0.89465   0.95815   0.73394   0.00000  Uiso   1.00
loop_
_geom_bond_atom_site_label_1
_geom_bond_atom_site_label_2
_geom_bond_distance
_geom_bond_site_symmetry_2
_ccdc_geom_bond_type
C1     O29     1.292   .     A
C1     C12     1.441   .     S
C1     O27     1.295   .     A
C2     O30     1.293   .     A
C2     C11     1.441   .     S
C2     O28     1.294   .     A
C3     O31     1.292   .     A
C3     O33     1.291   .     A
C3     C5      1.430   .     S
C4     O32     1.293   .     A
C4     C6      1.431   .     S
C4     O34     1.291   .     A
C5     C130    1.331   1_455 S
C5     H143    1.086   1_455 S
C6     C67     1.331   .     S
C6     H82     1.086   .     S
C7     C12     1.411   .     A
C7     C35     1.515   .     S
C7     C381    1.391   1_545 S
C8     C11     1.412   .     A
C8     C45     1.517   .     S
C8     C196    1.393   .     S
C9     C11     1.396   .     A
C9     H21     1.085   .     S
C9     C193    1.391   .     S
C10    H22     1.085   .     S
C10    C12     1.396   .     A
C10    C380    1.393   1_545 S
C13    N26     1.358   .     A
C13    H23     1.082   .     S
C13    C1131   1.417   1_554 S
C14    N25     1.357   .     A
C14    H24     1.079   .     S
C14    C574    1.417   .     S
C15    N25     1.384   .     A
C15    C55     1.468   .     S
C15    C571    1.417   .     S
C16    N26     1.385   .     A
C16    C59     1.469   .     S
C16    C1130   1.417   1_554 S
Cu17   O30     1.950   .     S
Cu17   N25     2.025   .     S
Cu17   Cu18    2.695   .     S
Cu17   O31     1.957   .     S
Cu17   O34     1.955   .     S
Cu17   O27     1.953   .     S
Cu18   N26     2.025   .     S
Cu18   O29     1.950   .     S
Cu18   O33     1.955   .     S
Cu18   O32     1.957   .     S
Cu18   O28     1.953   .     S
H19    C67     1.086   .     S
H20    C130    1.086   1_455 S
C35    C36     1.534   .     S
C35    H43     1.108   .     S
C35    H44     1.113   .     S
C36    H42     1.110   .     S
C36    H41     1.112   .     S
C36    C161    1.527   1_455 S
C37    H38     1.110   .     S
C37    H40     1.110   .     S
C37    H39     1.111   .     S
C37    C98     1.527   .     S
C45    H53     1.109   .     S
C45    C46     1.535   .     S
C45    H54     1.112   .     S
C46    H52     1.110   .     S
C46    C47     1.527   .     S
C46    H237    1.111   .     S
C47    H48     1.111   .     S
C47    H111    1.111   .     S
C47    H608    1.111   .     S
H49    C171    1.111   1_455 S
H50    C1163   1.111   1_554 S
H51    C418    1.111   1_545 S
C55    O56     1.221   .     D
C55    O57     1.398   .     S
O57    H58     1.014   .     S
C59    O60     1.221   .     D
C59    O61     1.398   .     S
O61    H62     1.014   .     S
C63    O91     1.292   .     A
C63    C74     1.441   .     S
C63    O89     1.295   .     A
C64    O92     1.293   .     A
C64    C73     1.441   .     S
C64    O90     1.294   .     A
C65    O93     1.292   .     A
C65    O95     1.291   .     A
C65    C67     1.430   .     S
C66    O94     1.293   .     A
C66    C68     1.431   .     S
C66    O96     1.291   .     A
C68    C129    1.331   .     S
C68    H144    1.086   .     S
C69    C74     1.411   .     A
C69    C97     1.515   .     S
C69    C443    1.391   1_545 S
C70    C73     1.412   .     A
C70    C107    1.517   .     S
C70    C258    1.393   .     S
C71    C73     1.396   .     A
C71    H83     1.085   .     S
C71    C255    1.391   .     S
C72    H84     1.085   .     S
C72    C74     1.396   .     A
C72    C442    1.393   1_545 S
C75    N88     1.358   .     A
C75    H85     1.082   .     S
C75    C1193   1.417   1_554 S
C76    N87     1.357   .     A
C76    H86     1.079   .     S
C76    C636    1.417   .     S
C77    N87     1.384   .     A
C77    C117    1.468   .     S
C77    C633    1.417   .     S
C78    N88     1.385   .     A
C78    C121    1.469   .     S
C78    C1192   1.417   1_554 S
Cu79   O92     1.950   .     S
Cu79   N87     2.025   .     S
Cu79   Cu80    2.695   .     S
Cu79   O93     1.957   .     S
Cu79   O96     1.955   .     S
Cu79   O89     1.953   .     S
Cu80   N88     2.025   .     S
Cu80   O91     1.950   .     S
Cu80   O95     1.955   .     S
Cu80   O94     1.957   .     S
Cu80   O90     1.953   .     S
H81    C129    1.086   .     S
C97    C98     1.534   .     S
C97    H105    1.108   .     S
C97    H106    1.113   .     S
C98    H104    1.110   .     S
C98    H103    1.112   .     S
C99    H100    1.110   .     S
C99    H102    1.110   .     S
C99    H101    1.111   .     S
C99    C160    1.527   .     S
C107   H115    1.109   .     S
C107   C108    1.535   .     S
C107   H116    1.112   .     S
C108   H114    1.110   .     S
C108   C109    1.527   .     S
C108   H299    1.111   .     S
C109   H110    1.111   .     S
C109   H173    1.111   .     S
C109   H670    1.111   .     S
H112   C1225   1.111   1_554 S
H113   C480    1.111   1_545 S
C117   O118    1.221   .     D
C117   O119    1.398   .     S
O119   H120    1.014   .     S
C121   O122    1.221   .     D
C121   O123    1.398   .     S
O123   H124    1.014   .     S
C125   O153    1.292   .     A
C125   C136    1.441   .     S
C125   O151    1.295   .     A
C126   O154    1.293   .     A
C126   C135    1.441   .     S
C126   O152    1.294   .     A
C127   O155    1.292   .     A
C127   O157    1.291   .     A
C127   C129    1.430   .     S
C128   O156    1.293   .     A
C128   C130    1.431   .     S
C128   O158    1.291   .     A
C130   C5      1.331   1_655 S
C130   H20     1.086   1_655 S
C131   C136    1.411   .     A
C131   C159    1.515   .     S
C131   C505    1.391   1_545 S
C132   C135    1.412   .     A
C132   C169    1.517   .     S
C132   C320    1.393   .     S
C133   C135    1.396   .     A
C133   H145    1.085   .     S
C133   C317    1.391   .     S
C134   H146    1.085   .     S
C134   C136    1.396   .     A
C134   C504    1.393   1_545 S
C137   N150    1.358   .     A
C137   H147    1.082   .     S
C137   C1255   1.417   1_554 S
C138   N149    1.357   .     A
C138   H148    1.079   .     S
C138   C698    1.417   .     S
C139   N149    1.384   .     A
C139   C179    1.468   .     S
C139   C695    1.417   .     S
C140   N150    1.385   .     A
C140   C183    1.469   .     S
C140   C1254   1.417   1_554 S
Cu141  O154    1.950   .     S
Cu141  N149    2.025   .     S
Cu141  Cu142   2.695   .     S
Cu141  O155    1.957   .     S
Cu141  O158    1.955   .     S
Cu141  O151    1.953   .     S
Cu142  N150    2.025   .     S
Cu142  O153    1.950   .     S
Cu142  O157    1.955   .     S
Cu142  O156    1.957   .     S
Cu142  O152    1.953   .     S
H143   C5      1.086   1_655 S
C159   C160    1.534   .     S
C159   H167    1.108   .     S
C159   H168    1.113   .     S
C160   H166    1.110   .     S
C160   H165    1.112   .     S
C161   H162    1.110   .     S
C161   H164    1.110   .     S
C161   H163    1.111   .     S
C161   C36     1.527   1_655 S
C169   H177    1.109   .     S
C169   C170    1.535   .     S
C169   H178    1.112   .     S
C170   H176    1.110   .     S
C170   C171    1.527   .     S
C170   H361    1.111   .     S
C171   H172    1.111   .     S
C171   H49     1.111   1_655 S
C171   H732    1.111   .     S
H174   C1287   1.111   1_554 S
H175   C542    1.111   1_545 S
C179   O180    1.221   .     D
C179   O181    1.398   .     S
O181   H182    1.014   .     S
C183   O184    1.221   .     D
C183   O185    1.398   .     S
O185   H186    1.014   .     S
C187   O215    1.292   .     A
C187   C198    1.441   .     S
C187   O213    1.295   .     A
C188   O216    1.293   .     A
C188   C197    1.441   .     S
C188   O214    1.294   .     A
C189   O217    1.292   .     A
C189   O219    1.291   .     A
C189   C191    1.430   .     S
C190   O218    1.293   .     A
C190   C192    1.431   .     S
C190   O220    1.291   .     A
C191   C316    1.331   1_455 S
C191   H329    1.086   1_455 S
C192   C253    1.331   .     S
C192   H268    1.086   .     S
C193   C198    1.411   .     A
C193   C221    1.515   .     S
C194   C197    1.412   .     A
C194   C231    1.517   .     S
C194   C382    1.393   .     S
C195   C197    1.396   .     A
C195   H207    1.085   .     S
C195   C379    1.391   .     S
C196   H208    1.085   .     S
C196   C198    1.396   .     A
C199   N212    1.358   .     A
C199   H209    1.082   .     S
C199   C1317   1.417   1_554 S
C200   N211    1.357   .     A
C200   H210    1.079   .     S
C200   C760    1.417   .     S
C201   N211    1.384   .     A
C201   C241    1.468   .     S
C201   C757    1.417   .     S
C202   N212    1.385   .     A
C202   C245    1.469   .     S
C202   C1316   1.417   1_554 S
Cu203  O216    1.950   .     S
Cu203  N211    2.025   .     S
Cu203  Cu204   2.695   .     S
Cu203  O217    1.957   .     S
Cu203  O220    1.955   .     S
Cu203  O213    1.953   .     S
Cu204  N212    2.025   .     S
Cu204  O215    1.950   .     S
Cu204  O219    1.955   .     S
Cu204  O218    1.957   .     S
Cu204  O214    1.953   .     S
H205   C253    1.086   .     S
H206   C316    1.086   1_455 S
C221   C222    1.534   .     S
C221   H229    1.108   .     S
C221   H230    1.113   .     S
C222   H228    1.110   .     S
C222   H227    1.112   .     S
C222   C347    1.527   1_455 S
C223   H224    1.110   .     S
C223   H226    1.110   .     S
C223   H225    1.111   .     S
C223   C284    1.527   .     S
C231   H239    1.109   .     S
C231   C232    1.535   .     S
C231   H240    1.112   .     S
C232   H238    1.110   .     S
C232   C233    1.527   .     S
C232   H423    1.111   .     S
C233   H234    1.111   .     S
C233   H297    1.111   .     S
C233   H794    1.111   .     S
H235   C357    1.111   1_455 S
H236   C1349   1.111   1_554 S
C241   O242    1.221   .     D
C241   O243    1.398   .     S
O243   H244    1.014   .     S
C245   O246    1.221   .     D
C245   O247    1.398   .     S
O247   H248    1.014   .     S
C249   O277    1.292   .     A
C249   C260    1.441   .     S
C249   O275    1.295   .     A
C250   O278    1.293   .     A
C250   C259    1.441   .     S
C250   O276    1.294   .     A
C251   O279    1.292   .     A
C251   O281    1.291   .     A
C251   C253    1.430   .     S
C252   O280    1.293   .     A
C252   C254    1.431   .     S
C252   O282    1.291   .     A
C254   C315    1.331   .     S
C254   H330    1.086   .     S
C255   C260    1.411   .     A
C255   C283    1.515   .     S
C256   C259    1.412   .     A
C256   C293    1.517   .     S
C256   C444    1.393   .     S
C257   C259    1.396   .     A
C257   H269    1.085   .     S
C257   C441    1.391   .     S
C258   H270    1.085   .     S
C258   C260    1.396   .     A
C261   N274    1.358   .     A
C261   H271    1.082   .     S
C261   C1379   1.417   1_554 S
C262   N273    1.357   .     A
C262   H272    1.079   .     S
C262   C822    1.417   .     S
C263   N273    1.384   .     A
C263   C303    1.468   .     S
C263   C819    1.417   .     S
C264   N274    1.385   .     A
C264   C307    1.469   .     S
C264   C1378   1.417   1_554 S
Cu265  O278    1.950   .     S
Cu265  N273    2.025   .     S
Cu265  Cu266   2.695   .     S
Cu265  O279    1.957   .     S
Cu265  O282    1.955   .     S
Cu265  O275    1.953   .     S
Cu266  N274    2.025   .     S
Cu266  O277    1.950   .     S
Cu266  O281    1.955   .     S
Cu266  O280    1.957   .     S
Cu266  O276    1.953   .     S
H267   C315    1.086   .     S
C283   C284    1.534   .     S
C283   H291    1.108   .     S
C283   H292    1.113   .     S
C284   H290    1.110   .     S
C284   H289    1.112   .     S
C285   H286    1.110   .     S
C285   H288    1.110   .     S
C285   H287    1.111   .     S
C285   C346    1.527   .     S
C293   H301    1.109   .     S
C293   C294    1.535   .     S
C293   H302    1.112   .     S
C294   H300    1.110   .     S
C294   C295    1.527   .     S
C294   H485    1.111   .     S
C295   H296    1.111   .     S
C295   H359    1.111   .     S
C295   H856    1.111   .     S
H298   C1411   1.111   1_554 S
C303   O304    1.221   .     D
C303   O305    1.398   .     S
O305   H306    1.014   .     S
C307   O308    1.221   .     D
C307   O309    1.398   .     S
O309   H310    1.014   .     S
C311   O339    1.292   .     A
C311   C322    1.441   .     S
C311   O337    1.295   .     A
C312   O340    1.293   .     A
C312   C321    1.441   .     S
C312   O338    1.294   .     A
C313   O341    1.292   .     A
C313   O343    1.291   .     A
C313   C315    1.430   .     S
C314   O342    1.293   .     A
C314   C316    1.431   .     S
C314   O344    1.291   .     A
C316   C191    1.331   1_655 S
C316   H206    1.086   1_655 S
C317   C322    1.411   .     A
C317   C345    1.515   .     S
C318   C321    1.412   .     A
C318   C355    1.517   .     S
C318   C506    1.393   .     S
C319   C321    1.396   .     A
C319   H331    1.085   .     S
C319   C503    1.391   .     S
C320   H332    1.085   .     S
C320   C322    1.396   .     A
C323   N336    1.358   .     A
C323   H333    1.082   .     S
C323   C1441   1.417   1_554 S
C324   N335    1.357   .     A
C324   H334    1.079   .     S
C324   C884    1.417   .     S
C325   N335    1.384   .     A
C325   C365    1.468   .     S
C325   C881    1.417   .     S
C326   N336    1.385   .     A
C326   C369    1.469   .     S
C326   C1440   1.417   1_554 S
Cu327  O340    1.950   .     S
Cu327  N335    2.025   .     S
Cu327  Cu328   2.695   .     S
Cu327  O341    1.957   .     S
Cu327  O344    1.955   .     S
Cu327  O337    1.953   .     S
Cu328  N336    2.025   .     S
Cu328  O339    1.950   .     S
Cu328  O343    1.955   .     S
Cu328  O342    1.957   .     S
Cu328  O338    1.953   .     S
H329   C191    1.086   1_655 S
C345   C346    1.534   .     S
C345   H353    1.108   .     S
C345   H354    1.113   .     S
C346   H352    1.110   .     S
C346   H351    1.112   .     S
C347   H348    1.110   .     S
C347   H350    1.110   .     S
C347   H349    1.111   .     S
C347   C222    1.527   1_655 S
C355   H363    1.109   .     S
C355   C356    1.535   .     S
C355   H364    1.112   .     S
C356   H362    1.110   .     S
C356   C357    1.527   .     S
C356   H547    1.111   .     S
C357   H358    1.111   .     S
C357   H235    1.111   1_655 S
C357   H918    1.111   .     S
H360   C1473   1.111   1_554 S
C365   O366    1.221   .     D
C365   O367    1.398   .     S
O367   H368    1.014   .     S
C369   O370    1.221   .     D
C369   O371    1.398   .     S
O371   H372    1.014   .     S
C373   O401    1.292   .     A
C373   C384    1.441   .     S
C373   O399    1.295   .     A
C374   O402    1.293   .     A
C374   C383    1.441   .     S
C374   O400    1.294   .     A
C375   O403    1.292   .     A
C375   O405    1.291   .     A
C375   C377    1.430   .     S
C376   O404    1.293   .     A
C376   C378    1.431   .     S
C376   O406    1.291   .     A
C377   C502    1.331   1_455 S
C377   H515    1.086   1_455 S
C378   C439    1.331   .     S
C378   H454    1.086   .     S
C379   C384    1.411   .     A
C379   C407    1.515   .     S
C380   C383    1.412   .     A
C380   C417    1.517   .     S
C380   C10     1.393   1_565 S
C381   C383    1.396   .     A
C381   H393    1.085   .     S
C381   C7      1.391   1_565 S
C382   H394    1.085   .     S
C382   C384    1.396   .     A
C385   N398    1.358   .     A
C385   H395    1.082   .     S
C385   C1503   1.417   1_554 S
C386   N397    1.357   .     A
C386   H396    1.079   .     S
C386   C946    1.417   .     S
C387   N397    1.384   .     A
C387   C427    1.468   .     S
C387   C943    1.417   .     S
C388   N398    1.385   .     A
C388   C431    1.469   .     S
C388   C1502   1.417   1_554 S
Cu389  O402    1.950   .     S
Cu389  N397    2.025   .     S
Cu389  Cu390   2.695   .     S
Cu389  O403    1.957   .     S
Cu389  O406    1.955   .     S
Cu389  O399    1.953   .     S
Cu390  N398    2.025   .     S
Cu390  O401    1.950   .     S
Cu390  O405    1.955   .     S
Cu390  O404    1.957   .     S
Cu390  O400    1.953   .     S
H391   C439    1.086   .     S
H392   C502    1.086   1_455 S
C407   C408    1.534   .     S
C407   H415    1.108   .     S
C407   H416    1.113   .     S
C408   H414    1.110   .     S
C408   H413    1.112   .     S
C408   C533    1.527   1_455 S
C409   H410    1.110   .     S
C409   H412    1.110   .     S
C409   H411    1.111   .     S
C409   C470    1.527   .     S
C417   H425    1.109   .     S
C417   C418    1.535   .     S
C417   H426    1.112   .     S
C418   H424    1.110   .     S
C418   C419    1.527   .     S
C418   H51     1.111   1_565 S
C419   H420    1.111   .     S
C419   H483    1.111   .     S
C419   H980    1.111   .     S
H421   C543    1.111   1_455 S
H422   C1535   1.111   1_554 S
C427   O428    1.221   .     D
C427   O429    1.398   .     S
O429   H430    1.014   .     S
C431   O432    1.221   .     D
C431   O433    1.398   .     S
O433   H434    1.014   .     S
C435   O463    1.292   .     A
C435   C446    1.441   .     S
C435   O461    1.295   .     A
C436   O464    1.293   .     A
C436   C445    1.441   .     S
C436   O462    1.294   .     A
C437   O465    1.292   .     A
C437   O467    1.291   .     A
C437   C439    1.430   .     S
C438   O466    1.293   .     A
C438   C440    1.431   .     S
C438   O468    1.291   .     A
C440   C501    1.331   .     S
C440   H516    1.086   .     S
C441   C446    1.411   .     A
C441   C469    1.515   .     S
C442   C445    1.412   .     A
C442   C479    1.517   .     S
C442   C72     1.393   1_565 S
C443   C445    1.396   .     A
C443   H455    1.085   .     S
C443   C69     1.391   1_565 S
C444   H456    1.085   .     S
C444   C446    1.396   .     A
C447   N460    1.358   .     A
C447   H457    1.082   .     S
C447   C1565   1.417   1_554 S
C448   N459    1.357   .     A
C448   H458    1.079   .     S
C448   C1008   1.417   .     S
C449   N459    1.384   .     A
C449   C489    1.468   .     S
C449   C1005   1.417   .     S
C450   N460    1.385   .     A
C450   C493    1.469   .     S
C450   C1564   1.417   1_554 S
Cu451  O464    1.950   .     S
Cu451  N459    2.025   .     S
Cu451  Cu452   2.695   .     S
Cu451  O465    1.957   .     S
Cu451  O468    1.955   .     S
Cu451  O461    1.953   .     S
Cu452  N460    2.025   .     S
Cu452  O463    1.950   .     S
Cu452  O467    1.955   .     S
Cu452  O466    1.957   .     S
Cu452  O462    1.953   .     S
H453   C501    1.086   .     S
C469   C470    1.534   .     S
C469   H477    1.108   .     S
C469   H478    1.113   .     S
C470   H476    1.110   .     S
C470   H475    1.112   .     S
C471   H472    1.110   .     S
C471   H474    1.110   .     S
C471   H473    1.111   .     S
C471   C532    1.527   .     S
C479   H487    1.109   .     S
C479   C480    1.535   .     S
C479   H488    1.112   .     S
C480   H486    1.110   .     S
C480   C481    1.527   .     S
C480   H113    1.111   1_565 S
C481   H482    1.111   .     S
C481   H545    1.111   .     S
C481   H1042   1.111   .     S
H484   C1597   1.111   1_554 S
C489   O490    1.221   .     D
C489   O491    1.398   .     S
O491   H492    1.014   .     S
C493   O494    1.221   .     D
C493   O495    1.398   .     S
O495   H496    1.014   .     S
C497   O525    1.292   .     A
C497   C508    1.441   .     S
C497   O523    1.295   .     A
C498   O526    1.293   .     A
C498   C507    1.441   .     S
C498   O524    1.294   .     A
C499   O527    1.292   .     A
C499   O529    1.291   .     A
C499   C501    1.430   .     S
C500   O528    1.293   .     A
C500   C502    1.431   .     S
C500   O530    1.291   .     A
C502   C377    1.331   1_655 S
C502   H392    1.086   1_655 S
C503   C508    1.411   .     A
C503   C531    1.515   .     S
C504   C507    1.412   .     A
C504   C541    1.517   .     S
C504   C134    1.393   1_565 S
C505   C507    1.396   .     A
C505   H517    1.085   .     S
C505   C131    1.391   1_565 S
C506   H518    1.085   .     S
C506   C508    1.396   .     A
C509   N522    1.358   .     A
C509   H519    1.082   .     S
C509   C1627   1.417   1_554 S
C510   N521    1.357   .     A
C510   H520    1.079   .     S
C510   C1070   1.417   .     S
C511   N521    1.384   .     A
C511   C551    1.468   .     S
C511   C1067   1.417   .     S
C512   N522    1.385   .     A
C512   C555    1.469   .     S
C512   C1626   1.417   1_554 S
Cu513  O526    1.950   .     S
Cu513  N521    2.025   .     S
Cu513  Cu514   2.695   .     S
Cu513  O527    1.957   .     S
Cu513  O530    1.955   .     S
Cu513  O523    1.953   .     S
Cu514  N522    2.025   .     S
Cu514  O525    1.950   .     S
Cu514  O529    1.955   .     S
Cu514  O528    1.957   .     S
Cu514  O524    1.953   .     S
H515   C377    1.086   1_655 S
C531   C532    1.534   .     S
C531   H539    1.108   .     S
C531   H540    1.113   .     S
C532   H538    1.110   .     S
C532   H537    1.112   .     S
C533   H534    1.110   .     S
C533   H536    1.110   .     S
C533   H535    1.111   .     S
C533   C408    1.527   1_655 S
C541   H549    1.109   .     S
C541   C542    1.535   .     S
C541   H550    1.112   .     S
C542   H548    1.110   .     S
C542   C543    1.527   .     S
C542   H175    1.111   1_565 S
C543   H544    1.111   .     S
C543   H421    1.111   1_655 S
C543   H1104   1.111   .     S
H546   C1659   1.111   1_554 S
C551   O552    1.221   .     D
C551   O553    1.398   .     S
O553   H554    1.014   .     S
C555   O556    1.221   .     D
C555   O557    1.398   .     S
O557   H558    1.014   .     S
C559   O587    1.292   .     A
C559   C570    1.441   .     S
C559   O585    1.295   .     A
C560   O588    1.293   .     A
C560   C569    1.441   .     S
C560   O586    1.294   .     A
C561   O589    1.292   .     A
C561   O591    1.291   .     A
C561   C563    1.430   .     S
C562   O590    1.293   .     A
C562   C564    1.431   .     S
C562   O592    1.291   .     A
C563   C688    1.331   1_455 S
C563   H701    1.086   1_455 S
C564   C625    1.331   .     S
C564   H640    1.086   .     S
C565   C570    1.411   .     A
C565   C593    1.515   .     S
C565   C939    1.391   1_545 S
C566   C569    1.412   .     A
C566   C603    1.517   .     S
C566   C754    1.393   .     S
C567   C569    1.396   .     A
C567   H579    1.085   .     S
C567   C751    1.391   .     S
C568   H580    1.085   .     S
C568   C570    1.396   .     A
C568   C938    1.393   1_545 S
C571   N584    1.358   .     A
C571   H581    1.082   .     S
C572   N583    1.357   .     A
C572   H582    1.079   .     S
C572   C1132   1.417   .     S
C573   N583    1.384   .     A
C573   C613    1.468   .     S
C573   C1129   1.417   .     S
C574   N584    1.385   .     A
C574   C617    1.469   .     S
Cu575  O588    1.950   .     S
Cu575  N583    2.025   .     S
Cu575  Cu576   2.695   .     S
Cu575  O589    1.957   .     S
Cu575  O592    1.955   .     S
Cu575  O585    1.953   .     S
Cu576  N584    2.025   .     S
Cu576  O587    1.950   .     S
Cu576  O591    1.955   .     S
Cu576  O590    1.957   .     S
Cu576  O586    1.953   .     S
H577   C625    1.086   .     S
H578   C688    1.086   1_455 S
C593   C594    1.534   .     S
C593   H601    1.108   .     S
C593   H602    1.113   .     S
C594   H600    1.110   .     S
C594   H599    1.112   .     S
C594   C719    1.527   1_455 S
C595   H596    1.110   .     S
C595   H598    1.110   .     S
C595   H597    1.111   .     S
C595   C656    1.527   .     S
C603   H611    1.109   .     S
C603   C604    1.535   .     S
C603   H612    1.112   .     S
C604   H610    1.110   .     S
C604   C605    1.527   .     S
C604   H795    1.111   .     S
C605   H606    1.111   .     S
C605   H669    1.111   .     S
C605   H1166   1.111   .     S
H607   C729    1.111   1_455 S
H609   C976    1.111   1_545 S
C613   O614    1.221   .     D
C613   O615    1.398   .     S
O615   H616    1.014   .     S
C617   O618    1.221   .     D
C617   O619    1.398   .     S
O619   H620    1.014   .     S
C621   O649    1.292   .     A
C621   C632    1.441   .     S
C621   O647    1.295   .     A
C622   O650    1.293   .     A
C622   C631    1.441   .     S
C622   O648    1.294   .     A
C623   O651    1.292   .     A
C623   O653    1.291   .     A
C623   C625    1.430   .     S
C624   O652    1.293   .     A
C624   C626    1.431   .     S
C624   O654    1.291   .     A
C626   C687    1.331   .     S
C626   H702    1.086   .     S
C627   C632    1.411   .     A
C627   C655    1.515   .     S
C627   C1001   1.391   1_545 S
C628   C631    1.412   .     A
C628   C665    1.517   .     S
C628   C816    1.393   .     S
C629   C631    1.396   .     A
C629   H641    1.085   .     S
C629   C813    1.391   .     S
C630   H642    1.085   .     S
C630   C632    1.396   .     A
C630   C1000   1.393   1_545 S
C633   N646    1.358   .     A
C633   H643    1.082   .     S
C634   N645    1.357   .     A
C634   H644    1.079   .     S
C634   C1194   1.417   .     S
C635   N645    1.384   .     A
C635   C675    1.468   .     S
C635   C1191   1.417   .     S
C636   N646    1.385   .     A
C636   C679    1.469   .     S
Cu637  O650    1.950   .     S
Cu637  N645    2.025   .     S
Cu637  Cu638   2.695   .     S
Cu637  O651    1.957   .     S
Cu637  O654    1.955   .     S
Cu637  O647    1.953   .     S
Cu638  N646    2.025   .     S
Cu638  O649    1.950   .     S
Cu638  O653    1.955   .     S
Cu638  O652    1.957   .     S
Cu638  O648    1.953   .     S
H639   C687    1.086   .     S
C655   C656    1.534   .     S
C655   H663    1.108   .     S
C655   H664    1.113   .     S
C656   H662    1.110   .     S
C656   H661    1.112   .     S
C657   H658    1.110   .     S
C657   H660    1.110   .     S
C657   H659    1.111   .     S
C657   C718    1.527   .     S
C665   H673    1.109   .     S
C665   C666    1.535   .     S
C665   H674    1.112   .     S
C666   H672    1.110   .     S
C666   C667    1.527   .     S
C666   H857    1.111   .     S
C667   H668    1.111   .     S
C667   H731    1.111   .     S
C667   H1228   1.111   .     S
H671   C1038   1.111   1_545 S
C675   O676    1.221   .     D
C675   O677    1.398   .     S
O677   H678    1.014   .     S
C679   O680    1.221   .     D
C679   O681    1.398   .     S
O681   H682    1.014   .     S
C683   O711    1.292   .     A
C683   C694    1.441   .     S
C683   O709    1.295   .     A
C684   O712    1.293   .     A
C684   C693    1.441   .     S
C684   O710    1.294   .     A
C685   O713    1.292   .     A
C685   O715    1.291   .     A
C685   C687    1.430   .     S
C686   O714    1.293   .     A
C686   C688    1.431   .     S
C686   O716    1.291   .     A
C688   C563    1.331   1_655 S
C688   H578    1.086   1_655 S
C689   C694    1.411   .     A
C689   C717    1.515   .     S
C689   C1063   1.391   1_545 S
C690   C693    1.412   .     A
C690   C727    1.517   .     S
C690   C878    1.393   .     S
C691   C693    1.396   .     A
C691   H703    1.085   .     S
C691   C875    1.391   .     S
C692   H704    1.085   .     S
C692   C694    1.396   .     A
C692   C1062   1.393   1_545 S
C695   N708    1.358   .     A
C695   H705    1.082   .     S
C696   N707    1.357   .     A
C696   H706    1.079   .     S
C696   C1256   1.417   .     S
C697   N707    1.384   .     A
C697   C737    1.468   .     S
C697   C1253   1.417   .     S
C698   N708    1.385   .     A
C698   C741    1.469   .     S
Cu699  O712    1.950   .     S
Cu699  N707    2.025   .     S
Cu699  Cu700   2.695   .     S
Cu699  O713    1.957   .     S
Cu699  O716    1.955   .     S
Cu699  O709    1.953   .     S
Cu700  N708    2.025   .     S
Cu700  O711    1.950   .     S
Cu700  O715    1.955   .     S
Cu700  O714    1.957   .     S
Cu700  O710    1.953   .     S
H701   C563    1.086   1_655 S
C717   C718    1.534   .     S
C717   H725    1.108   .     S
C717   H726    1.113   .     S
C718   H724    1.110   .     S
C718   H723    1.112   .     S
C719   H720    1.110   .     S
C719   H722    1.110   .     S
C719   H721    1.111   .     S
C719   C594    1.527   1_655 S
C727   H735    1.109   .     S
C727   C728    1.535   .     S
C727   H736    1.112   .     S
C728   H734    1.110   .     S
C728   C729    1.527   .     S
C728   H919    1.111   .     S
C729   H730    1.111   .     S
C729   H607    1.111   1_655 S
C729   H1290   1.111   .     S
H733   C1100   1.111   1_545 S
C737   O738    1.221   .     D
C737   O739    1.398   .     S
O739   H740    1.014   .     S
C741   O742    1.221   .     D
C741   O743    1.398   .     S
O743   H744    1.014   .     S
C745   O773    1.292   .     A
C745   C756    1.441   .     S
C745   O771    1.295   .     A
C746   O774    1.293   .     A
C746   C755    1.441   .     S
C746   O772    1.294   .     A
C747   O775    1.292   .     A
C747   O777    1.291   .     A
C747   C749    1.430   .     S
C748   O776    1.293   .     A
C748   C750    1.431   .     S
C748   O778    1.291   .     A
C749   C874    1.331   1_455 S
C749   H887    1.086   1_455 S
C750   C811    1.331   .     S
C750   H826    1.086   .     S
C751   C756    1.411   .     A
C751   C779    1.515   .     S
C752   C755    1.412   .     A
C752   C789    1.517   .     S
C752   C940    1.393   .     S
C753   C755    1.396   .     A
C753   H765    1.085   .     S
C753   C937    1.391   .     S
C754   H766    1.085   .     S
C754   C756    1.396   .     A
C757   N770    1.358   .     A
C757   H767    1.082   .     S
C758   N769    1.357   .     A
C758   H768    1.079   .     S
C758   C1318   1.417   .     S
C759   N769    1.384   .     A
C759   C799    1.468   .     S
C759   C1315   1.417   .     S
C760   N770    1.385   .     A
C760   C803    1.469   .     S
Cu761  O774    1.950   .     S
Cu761  N769    2.025   .     S
Cu761  Cu762   2.695   .     S
Cu761  O775    1.957   .     S
Cu761  O778    1.955   .     S
Cu761  O771    1.953   .     S
Cu762  N770    2.025   .     S
Cu762  O773    1.950   .     S
Cu762  O777    1.955   .     S
Cu762  O776    1.957   .     S
Cu762  O772    1.953   .     S
H763   C811    1.086   .     S
H764   C874    1.086   1_455 S
C779   C780    1.534   .     S
C779   H787    1.108   .     S
C779   H788    1.113   .     S
C780   H786    1.110   .     S
C780   H785    1.112   .     S
C780   C905    1.527   1_455 S
C781   H782    1.110   .     S
C781   H784    1.110   .     S
C781   H783    1.111   .     S
C781   C842    1.527   .     S
C789   H797    1.109   .     S
C789   C790    1.535   .     S
C789   H798    1.112   .     S
C790   H796    1.110   .     S
C790   C791    1.527   .     S
C790   H981    1.111   .     S
C791   H792    1.111   .     S
C791   H855    1.111   .     S
C791   H1352   1.111   .     S
H793   C915    1.111   1_455 S
C799   O800    1.221   .     D
C799   O801    1.398   .     S
O801   H802    1.014   .     S
C803   O804    1.221   .     D
C803   O805    1.398   .     S
O805   H806    1.014   .     S
C807   O835    1.292   .     A
C807   C818    1.441   .     S
C807   O833    1.295   .     A
C808   O836    1.293   .     A
C808   C817    1.441   .     S
C808   O834    1.294   .     A
C809   O837    1.292   .     A
C809   O839    1.291   .     A
C809   C811    1.430   .     S
C810   O838    1.293   .     A
C810   C812    1.431   .     S
C810   O840    1.291   .     A
C812   C873    1.331   .     S
C812   H888    1.086   .     S
C813   C818    1.411   .     A
C813   C841    1.515   .     S
C814   C817    1.412   .     A
C814   C851    1.517   .     S
C814   C1002   1.393   .     S
C815   C817    1.396   .     A
C815   H827    1.085   .     S
C815   C999    1.391   .     S
C816   H828    1.085   .     S
C816   C818    1.396   .     A
C819   N832    1.358   .     A
C819   H829    1.082   .     S
C820   N831    1.357   .     A
C820   H830    1.079   .     S
C820   C1380   1.417   .     S
C821   N831    1.384   .     A
C821   C861    1.468   .     S
C821   C1377   1.417   .     S
C822   N832    1.385   .     A
C822   C865    1.469   .     S
Cu823  O836    1.950   .     S
Cu823  N831    2.025   .     S
Cu823  Cu824   2.695   .     S
Cu823  O837    1.957   .     S
Cu823  O840    1.955   .     S
Cu823  O833    1.953   .     S
Cu824  N832    2.025   .     S
Cu824  O835    1.950   .     S
Cu824  O839    1.955   .     S
Cu824  O838    1.957   .     S
Cu824  O834    1.953   .     S
H825   C873    1.086   .     S
C841   C842    1.534   .     S
C841   H849    1.108   .     S
C841   H850    1.113   .     S
C842   H848    1.110   .     S
C842   H847    1.112   .     S
C843   H844    1.110   .     S
C843   H846    1.110   .     S
C843   H845    1.111   .     S
C843   C904    1.527   .     S
C851   H859    1.109   .     S
C851   C852    1.535   .     S
C851   H860    1.112   .     S
C852   H858    1.110   .     S
C852   C853    1.527   .     S
C852   H1043   1.111   .     S
C853   H854    1.111   .     S
C853   H917    1.111   .     S
C853   H1414   1.111   .     S
C861   O862    1.221   .     D
C861   O863    1.398   .     S
O863   H864    1.014   .     S
C865   O866    1.221   .     D
C865   O867    1.398   .     S
O867   H868    1.014   .     S
C869   O897    1.292   .     A
C869   C880    1.441   .     S
C869   O895    1.295   .     A
C870   O898    1.293   .     A
C870   C879    1.441   .     S
C870   O896    1.294   .     A
C871   O899    1.292   .     A
C871   O901    1.291   .     A
C871   C873    1.430   .     S
C872   O900    1.293   .     A
C872   C874    1.431   .     S
C872   O902    1.291   .     A
C874   C749    1.331   1_655 S
C874   H764    1.086   1_655 S
C875   C880    1.411   .     A
C875   C903    1.515   .     S
C876   C879    1.412   .     A
C876   C913    1.517   .     S
C876   C1064   1.393   .     S
C877   C879    1.396   .     A
C877   H889    1.085   .     S
C877   C1061   1.391   .     S
C878   H890    1.085   .     S
C878   C880    1.396   .     A
C881   N894    1.358   .     A
C881   H891    1.082   .     S
C882   N893    1.357   .     A
C882   H892    1.079   .     S
C882   C1442   1.417   .     S
C883   N893    1.384   .     A
C883   C923    1.468   .     S
C883   C1439   1.417   .     S
C884   N894    1.385   .     A
C884   C927    1.469   .     S
Cu885  O898    1.950   .     S
Cu885  N893    2.025   .     S
Cu885  Cu886   2.695   .     S
Cu885  O899    1.957   .     S
Cu885  O902    1.955   .     S
Cu885  O895    1.953   .     S
Cu886  N894    2.025   .     S
Cu886  O897    1.950   .     S
Cu886  O901    1.955   .     S
Cu886  O900    1.957   .     S
Cu886  O896    1.953   .     S
H887   C749    1.086   1_655 S
C903   C904    1.534   .     S
C903   H911    1.108   .     S
C903   H912    1.113   .     S
C904   H910    1.110   .     S
C904   H909    1.112   .     S
C905   H906    1.110   .     S
C905   H908    1.110   .     S
C905   H907    1.111   .     S
C905   C780    1.527   1_655 S
C913   H921    1.109   .     S
C913   C914    1.535   .     S
C913   H922    1.112   .     S
C914   H920    1.110   .     S
C914   C915    1.527   .     S
C914   H1105   1.111   .     S
C915   H916    1.111   .     S
C915   H793    1.111   1_655 S
C915   H1476   1.111   .     S
C923   O924    1.221   .     D
C923   O925    1.398   .     S
O925   H926    1.014   .     S
C927   O928    1.221   .     D
C927   O929    1.398   .     S
O929   H930    1.014   .     S
C931   O959    1.292   .     A
C931   C942    1.441   .     S
C931   O957    1.295   .     A
C932   O960    1.293   .     A
C932   C941    1.441   .     S
C932   O958    1.294   .     A
C933   O961    1.292   .     A
C933   O963    1.291   .     A
C933   C935    1.430   .     S
C934   O962    1.293   .     A
C934   C936    1.431   .     S
C934   O964    1.291   .     A
C935   C1060   1.331   1_455 S
C935   H1073   1.086   1_455 S
C936   C997    1.331   .     S
C936   H1012   1.086   .     S
C937   C942    1.411   .     A
C937   C965    1.515   .     S
C938   C941    1.412   .     A
C938   C975    1.517   .     S
C938   C568    1.393   1_565 S
C939   C941    1.396   .     A
C939   H951    1.085   .     S
C939   C565    1.391   1_565 S
C940   H952    1.085   .     S
C940   C942    1.396   .     A
C943   N956    1.358   .     A
C943   H953    1.082   .     S
C944   N955    1.357   .     A
C944   H954    1.079   .     S
C944   C1504   1.417   .     S
C945   N955    1.384   .     A
C945   C985    1.468   .     S
C945   C1501   1.417   .     S
C946   N956    1.385   .     A
C946   C989    1.469   .     S
Cu947  O960    1.950   .     S
Cu947  N955    2.025   .     S
Cu947  Cu948   2.695   .     S
Cu947  O961    1.957   .     S
Cu947  O964    1.955   .     S
Cu947  O957    1.953   .     S
Cu948  N956    2.025   .     S
Cu948  O959    1.950   .     S
Cu948  O963    1.955   .     S
Cu948  O962    1.957   .     S
Cu948  O958    1.953   .     S
H949   C997    1.086   .     S
H950   C1060   1.086   1_455 S
C965   C966    1.534   .     S
C965   H973    1.108   .     S
C965   H974    1.113   .     S
C966   H972    1.110   .     S
C966   H971    1.112   .     S
C966   C1091   1.527   1_455 S
C967   H968    1.110   .     S
C967   H970    1.110   .     S
C967   H969    1.111   .     S
C967   C1028   1.527   .     S
C975   H983    1.109   .     S
C975   C976    1.535   .     S
C975   H984    1.112   .     S
C976   H982    1.110   .     S
C976   C977    1.527   .     S
C976   H609    1.111   1_565 S
C977   H978    1.111   .     S
C977   H1041   1.111   .     S
C977   H1538   1.111   .     S
H979   C1101   1.111   1_455 S
C985   O986    1.221   .     D
C985   O987    1.398   .     S
O987   H988    1.014   .     S
C989   O990    1.221   .     D
C989   O991    1.398   .     S
O991   H992    1.014   .     S
C993   O1021   1.292   .     A
C993   C1004   1.441   .     S
C993   O1019   1.295   .     A
C994   O1022   1.293   .     A
C994   C1003   1.441   .     S
C994   O1020   1.294   .     A
C995   O1023   1.292   .     A
C995   O1025   1.291   .     A
C995   C997    1.430   .     S
C996   O1024   1.293   .     A
C996   C998    1.431   .     S
C996   O1026   1.291   .     A
C998   C1059   1.331   .     S
C998   H1074   1.086   .     S
C999   C1004   1.411   .     A
C999   C1027   1.515   .     S
C1000  C1003   1.412   .     A
C1000  C1037   1.517   .     S
C1000  C630    1.393   1_565 S
C1001  C1003   1.396   .     A
C1001  H1013   1.085   .     S
C1001  C627    1.391   1_565 S
C1002  H1014   1.085   .     S
C1002  C1004   1.396   .     A
C1005  N1018   1.358   .     A
C1005  H1015   1.082   .     S
C1006  N1017   1.357   .     A
C1006  H1016   1.079   .     S
C1006  C1566   1.417   .     S
C1007  N1017   1.384   .     A
C1007  C1047   1.468   .     S
C1007  C1563   1.417   .     S
C1008  N1018   1.385   .     A
C1008  C1051   1.469   .     S
Cu1009 O1022   1.950   .     S
Cu1009 N1017   2.025   .     S
Cu1009 Cu1010  2.695   .     S
Cu1009 O1023   1.957   .     S
Cu1009 O1026   1.955   .     S
Cu1009 O1019   1.953   .     S
Cu1010 N1018   2.025   .     S
Cu1010 O1021   1.950   .     S
Cu1010 O1025   1.955   .     S
Cu1010 O1024   1.957   .     S
Cu1010 O1020   1.953   .     S
H1011  C1059   1.086   .     S
C1027  C1028   1.534   .     S
C1027  H1035   1.108   .     S
C1027  H1036   1.113   .     S
C1028  H1034   1.110   .     S
C1028  H1033   1.112   .     S
C1029  H1030   1.110   .     S
C1029  H1032   1.110   .     S
C1029  H1031   1.111   .     S
C1029  C1090   1.527   .     S
C1037  H1045   1.109   .     S
C1037  C1038   1.535   .     S
C1037  H1046   1.112   .     S
C1038  H1044   1.110   .     S
C1038  C1039   1.527   .     S
C1038  H671    1.111   1_565 S
C1039  H1040   1.111   .     S
C1039  H1103   1.111   .     S
C1039  H1600   1.111   .     S
C1047  O1048   1.221   .     D
C1047  O1049   1.398   .     S
O1049  H1050   1.014   .     S
C1051  O1052   1.221   .     D
C1051  O1053   1.398   .     S
O1053  H1054   1.014   .     S
C1055  O1083   1.292   .     A
C1055  C1066   1.441   .     S
C1055  O1081   1.295   .     A
C1056  O1084   1.293   .     A
C1056  C1065   1.441   .     S
C1056  O1082   1.294   .     A
C1057  O1085   1.292   .     A
C1057  O1087   1.291   .     A
C1057  C1059   1.430   .     S
C1058  O1086   1.293   .     A
C1058  C1060   1.431   .     S
C1058  O1088   1.291   .     A
C1060  C935    1.331   1_655 S
C1060  H950    1.086   1_655 S
C1061  C1066   1.411   .     A
C1061  C1089   1.515   .     S
C1062  C1065   1.412   .     A
C1062  C1099   1.517   .     S
C1062  C692    1.393   1_565 S
C1063  C1065   1.396   .     A
C1063  H1075   1.085   .     S
C1063  C689    1.391   1_565 S
C1064  H1076   1.085   .     S
C1064  C1066   1.396   .     A
C1067  N1080   1.358   .     A
C1067  H1077   1.082   .     S
C1068  N1079   1.357   .     A
C1068  H1078   1.079   .     S
C1068  C1628   1.417   .     S
C1069  N1079   1.384   .     A
C1069  C1109   1.468   .     S
C1069  C1625   1.417   .     S
C1070  N1080   1.385   .     A
C1070  C1113   1.469   .     S
Cu1071 O1084   1.950   .     S
Cu1071 N1079   2.025   .     S
Cu1071 Cu1072  2.695   .     S
Cu1071 O1085   1.957   .     S
Cu1071 O1088   1.955   .     S
Cu1071 O1081   1.953   .     S
Cu1072 N1080   2.025   .     S
Cu1072 O1083   1.950   .     S
Cu1072 O1087   1.955   .     S
Cu1072 O1086   1.957   .     S
Cu1072 O1082   1.953   .     S
H1073  C935    1.086   1_655 S
C1089  C1090   1.534   .     S
C1089  H1097   1.108   .     S
C1089  H1098   1.113   .     S
C1090  H1096   1.110   .     S
C1090  H1095   1.112   .     S
C1091  H1092   1.110   .     S
C1091  H1094   1.110   .     S
C1091  H1093   1.111   .     S
C1091  C966    1.527   1_655 S
C1099  H1107   1.109   .     S
C1099  C1100   1.535   .     S
C1099  H1108   1.112   .     S
C1100  H1106   1.110   .     S
C1100  C1101   1.527   .     S
C1100  H733    1.111   1_565 S
C1101  H1102   1.111   .     S
C1101  H979    1.111   1_655 S
C1101  H1662   1.111   .     S
C1109  O1110   1.221   .     D
C1109  O1111   1.398   .     S
O1111  H1112   1.014   .     S
C1113  O1114   1.221   .     D
C1113  O1115   1.398   .     S
O1115  H1116   1.014   .     S
C1117  O1145   1.292   .     A
C1117  C1128   1.441   .     S
C1117  O1143   1.295   .     A
C1118  O1146   1.293   .     A
C1118  C1127   1.441   .     S
C1118  O1144   1.294   .     A
C1119  O1147   1.292   .     A
C1119  O1149   1.291   .     A
C1119  C1121   1.430   .     S
C1120  O1148   1.293   .     A
C1120  C1122   1.431   .     S
C1120  O1150   1.291   .     A
C1121  C1246   1.331   1_455 S
C1121  H1259   1.086   1_455 S
C1122  C1183   1.331   .     S
C1122  H1198   1.086   .     S
C1123  C1128   1.411   .     A
C1123  C1151   1.515   .     S
C1123  C1497   1.391   1_545 S
C1124  C1127   1.412   .     A
C1124  C1161   1.517   .     S
C1124  C1312   1.393   .     S
C1125  C1127   1.396   .     A
C1125  H1137   1.085   .     S
C1125  C1309   1.391   .     S
C1126  H1138   1.085   .     S
C1126  C1128   1.396   .     A
C1126  C1496   1.393   1_545 S
C1129  N1142   1.358   .     A
C1129  H1139   1.082   .     S
C1130  N1141   1.357   .     A
C1130  H1140   1.079   .     S
C1130  C16     1.417   1_556 S
C1131  N1141   1.384   .     A
C1131  C1171   1.468   .     S
C1131  C13     1.417   1_556 S
C1132  N1142   1.385   .     A
C1132  C1175   1.469   .     S
Cu1133 O1146   1.950   .     S
Cu1133 N1141   2.025   .     S
Cu1133 Cu1134  2.695   .     S
Cu1133 O1147   1.957   .     S
Cu1133 O1150   1.955   .     S
Cu1133 O1143   1.953   .     S
Cu1134 N1142   2.025   .     S
Cu1134 O1145   1.950   .     S
Cu1134 O1149   1.955   .     S
Cu1134 O1148   1.957   .     S
Cu1134 O1144   1.953   .     S
H1135  C1183   1.086   .     S
H1136  C1246   1.086   1_455 S
C1151  C1152   1.534   .     S
C1151  H1159   1.108   .     S
C1151  H1160   1.113   .     S
C1152  H1158   1.110   .     S
C1152  H1157   1.112   .     S
C1152  C1277   1.527   1_455 S
C1153  H1154   1.110   .     S
C1153  H1156   1.110   .     S
C1153  H1155   1.111   .     S
C1153  C1214   1.527   .     S
C1161  H1169   1.109   .     S
C1161  C1162   1.535   .     S
C1161  H1170   1.112   .     S
C1162  H1168   1.110   .     S
C1162  C1163   1.527   .     S
C1162  H1353   1.111   .     S
C1163  H1164   1.111   .     S
C1163  H1227   1.111   .     S
C1163  H50     1.111   1_556 S
H1165  C1287   1.111   1_455 S
H1167  C1534   1.111   1_545 S
C1171  O1172   1.221   .     D
C1171  O1173   1.398   .     S
O1173  H1174   1.014   .     S
C1175  O1176   1.221   .     D
C1175  O1177   1.398   .     S
O1177  H1178   1.014   .     S
C1179  O1207   1.292   .     A
C1179  C1190   1.441   .     S
C1179  O1205   1.295   .     A
C1180  O1208   1.293   .     A
C1180  C1189   1.441   .     S
C1180  O1206   1.294   .     A
C1181  O1209   1.292   .     A
C1181  O1211   1.291   .     A
C1181  C1183   1.430   .     S
C1182  O1210   1.293   .     A
C1182  C1184   1.431   .     S
C1182  O1212   1.291   .     A
C1184  C1245   1.331   .     S
C1184  H1260   1.086   .     S
C1185  C1190   1.411   .     A
C1185  C1213   1.515   .     S
C1185  C1559   1.391   1_545 S
C1186  C1189   1.412   .     A
C1186  C1223   1.517   .     S
C1186  C1374   1.393   .     S
C1187  C1189   1.396   .     A
C1187  H1199   1.085   .     S
C1187  C1371   1.391   .     S
C1188  H1200   1.085   .     S
C1188  C1190   1.396   .     A
C1188  C1558   1.393   1_545 S
C1191  N1204   1.358   .     A
C1191  H1201   1.082   .     S
C1192  N1203   1.357   .     A
C1192  H1202   1.079   .     S
C1192  C78     1.417   1_556 S
C1193  N1203   1.384   .     A
C1193  C1233   1.468   .     S
C1193  C75     1.417   1_556 S
C1194  N1204   1.385   .     A
C1194  C1237   1.469   .     S
Cu1195 O1208   1.950   .     S
Cu1195 N1203   2.025   .     S
Cu1195 Cu1196  2.695   .     S
Cu1195 O1209   1.957   .     S
Cu1195 O1212   1.955   .     S
Cu1195 O1205   1.953   .     S
Cu1196 N1204   2.025   .     S
Cu1196 O1207   1.950   .     S
Cu1196 O1211   1.955   .     S
Cu1196 O1210   1.957   .     S
Cu1196 O1206   1.953   .     S
H1197  C1245   1.086   .     S
C1213  C1214   1.534   .     S
C1213  H1221   1.108   .     S
C1213  H1222   1.113   .     S
C1214  H1220   1.110   .     S
C1214  H1219   1.112   .     S
C1215  H1216   1.110   .     S
C1215  H1218   1.110   .     S
C1215  H1217   1.111   .     S
C1215  C1276   1.527   .     S
C1223  H1231   1.109   .     S
C1223  C1224   1.535   .     S
C1223  H1232   1.112   .     S
C1224  H1230   1.110   .     S
C1224  C1225   1.527   .     S
C1224  H1415   1.111   .     S
C1225  H1226   1.111   .     S
C1225  H1289   1.111   .     S
C1225  H112    1.111   1_556 S
H1229  C1596   1.111   1_545 S
C1233  O1234   1.221   .     D
C1233  O1235   1.398   .     S
O1235  H1236   1.014   .     S
C1237  O1238   1.221   .     D
C1237  O1239   1.398   .     S
O1239  H1240   1.014   .     S
C1241  O1269   1.292   .     A
C1241  C1252   1.441   .     S
C1241  O1267   1.295   .     A
C1242  O1270   1.293   .     A
C1242  C1251   1.441   .     S
C1242  O1268   1.294   .     A
C1243  O1271   1.292   .     A
C1243  O1273   1.291   .     A
C1243  C1245   1.430   .     S
C1244  O1272   1.293   .     A
C1244  C1246   1.431   .     S
C1244  O1274   1.291   .     A
C1246  C1121   1.331   1_655 S
C1246  H1136   1.086   1_655 S
C1247  C1252   1.411   .     A
C1247  C1275   1.515   .     S
C1247  C1621   1.391   1_545 S
C1248  C1251   1.412   .     A
C1248  C1285   1.517   .     S
C1248  C1436   1.393   .     S
C1249  C1251   1.396   .     A
C1249  H1261   1.085   .     S
C1249  C1433   1.391   .     S
C1250  H1262   1.085   .     S
C1250  C1252   1.396   .     A
C1250  C1620   1.393   1_545 S
C1253  N1266   1.358   .     A
C1253  H1263   1.082   .     S
C1254  N1265   1.357   .     A
C1254  H1264   1.079   .     S
C1254  C140    1.417   1_556 S
C1255  N1265   1.384   .     A
C1255  C1295   1.468   .     S
C1255  C137    1.417   1_556 S
C1256  N1266   1.385   .     A
C1256  C1299   1.469   .     S
Cu1257 O1270   1.950   .     S
Cu1257 N1265   2.025   .     S
Cu1257 Cu1258  2.695   .     S
Cu1257 O1271   1.957   .     S
Cu1257 O1274   1.955   .     S
Cu1257 O1267   1.953   .     S
Cu1258 N1266   2.025   .     S
Cu1258 O1269   1.950   .     S
Cu1258 O1273   1.955   .     S
Cu1258 O1272   1.957   .     S
Cu1258 O1268   1.953   .     S
H1259  C1121   1.086   1_655 S
C1275  C1276   1.534   .     S
C1275  H1283   1.108   .     S
C1275  H1284   1.113   .     S
C1276  H1282   1.110   .     S
C1276  H1281   1.112   .     S
C1277  H1278   1.110   .     S
C1277  H1280   1.110   .     S
C1277  H1279   1.111   .     S
C1277  C1152   1.527   1_655 S
C1285  H1293   1.109   .     S
C1285  C1286   1.535   .     S
C1285  H1294   1.112   .     S
C1286  H1292   1.110   .     S
C1286  C1287   1.527   .     S
C1286  H1477   1.111   .     S
C1287  H1288   1.111   .     S
C1287  H1165   1.111   1_655 S
C1287  H174    1.111   1_556 S
H1291  C1658   1.111   1_545 S
C1295  O1296   1.221   .     D
C1295  O1297   1.398   .     S
O1297  H1298   1.014   .     S
C1299  O1300   1.221   .     D
C1299  O1301   1.398   .     S
O1301  H1302   1.014   .     S
C1303  O1331   1.292   .     A
C1303  C1314   1.441   .     S
C1303  O1329   1.295   .     A
C1304  O1332   1.293   .     A
C1304  C1313   1.441   .     S
C1304  O1330   1.294   .     A
C1305  O1333   1.292   .     A
C1305  O1335   1.291   .     A
C1305  C1307   1.430   .     S
C1306  O1334   1.293   .     A
C1306  C1308   1.431   .     S
C1306  O1336   1.291   .     A
C1307  C1432   1.331   1_455 S
C1307  H1445   1.086   1_455 S
C1308  C1369   1.331   .     S
C1308  H1384   1.086   .     S
C1309  C1314   1.411   .     A
C1309  C1337   1.515   .     S
C1310  C1313   1.412   .     A
C1310  C1347   1.517   .     S
C1310  C1498   1.393   .     S
C1311  C1313   1.396   .     A
C1311  H1323   1.085   .     S
C1311  C1495   1.391   .     S
C1312  H1324   1.085   .     S
C1312  C1314   1.396   .     A
C1315  N1328   1.358   .     A
C1315  H1325   1.082   .     S
C1316  N1327   1.357   .     A
C1316  H1326   1.079   .     S
C1316  C202    1.417   1_556 S
C1317  N1327   1.384   .     A
C1317  C1357   1.468   .     S
C1317  C199    1.417   1_556 S
C1318  N1328   1.385   .     A
C1318  C1361   1.469   .     S
Cu1319 O1332   1.950   .     S
Cu1319 N1327   2.025   .     S
Cu1319 Cu1320  2.695   .     S
Cu1319 O1333   1.957   .     S
Cu1319 O1336   1.955   .     S
Cu1319 O1329   1.953   .     S
Cu1320 N1328   2.025   .     S
Cu1320 O1331   1.950   .     S
Cu1320 O1335   1.955   .     S
Cu1320 O1334   1.957   .     S
Cu1320 O1330   1.953   .     S
H1321  C1369   1.086   .     S
H1322  C1432   1.086   1_455 S
C1337  C1338   1.534   .     S
C1337  H1345   1.108   .     S
C1337  H1346   1.113   .     S
C1338  H1344   1.110   .     S
C1338  H1343   1.112   .     S
C1338  C1463   1.527   1_455 S
C1339  H1340   1.110   .     S
C1339  H1342   1.110   .     S
C1339  H1341   1.111   .     S
C1339  C1400   1.527   .     S
C1347  H1355   1.109   .     S
C1347  C1348   1.535   .     S
C1347  H1356   1.112   .     S
C1348  H1354   1.110   .     S
C1348  C1349   1.527   .     S
C1348  H1539   1.111   .     S
C1349  H1350   1.111   .     S
C1349  H1413   1.111   .     S
C1349  H236    1.111   1_556 S
H1351  C1473   1.111   1_455 S
C1357  O1358   1.221   .     D
C1357  O1359   1.398   .     S
O1359  H1360   1.014   .     S
C1361  O1362   1.221   .     D
C1361  O1363   1.398   .     S
O1363  H1364   1.014   .     S
C1365  O1393   1.292   .     A
C1365  C1376   1.441   .     S
C1365  O1391   1.295   .     A
C1366  O1394   1.293   .     A
C1366  C1375   1.441   .     S
C1366  O1392   1.294   .     A
C1367  O1395   1.292   .     A
C1367  O1397   1.291   .     A
C1367  C1369   1.430   .     S
C1368  O1396   1.293   .     A
C1368  C1370   1.431   .     S
C1368  O1398   1.291   .     A
C1370  C1431   1.331   .     S
C1370  H1446   1.086   .     S
C1371  C1376   1.411   .     A
C1371  C1399   1.515   .     S
C1372  C1375   1.412   .     A
C1372  C1409   1.517   .     S
C1372  C1560   1.393   .     S
C1373  C1375   1.396   .     A
C1373  H1385   1.085   .     S
C1373  C1557   1.391   .     S
C1374  H1386   1.085   .     S
C1374  C1376   1.396   .     A
C1377  N1390   1.358   .     A
C1377  H1387   1.082   .     S
C1378  N1389   1.357   .     A
C1378  H1388   1.079   .     S
C1378  C264    1.417   1_556 S
C1379  N1389   1.384   .     A
C1379  C1419   1.468   .     S
C1379  C261    1.417   1_556 S
C1380  N1390   1.385   .     A
C1380  C1423   1.469   .     S
Cu1381 O1394   1.950   .     S
Cu1381 N1389   2.025   .     S
Cu1381 Cu1382  2.695   .     S
Cu1381 O1395   1.957   .     S
Cu1381 O1398   1.955   .     S
Cu1381 O1391   1.953   .     S
Cu1382 N1390   2.025   .     S
Cu1382 O1393   1.950   .     S
Cu1382 O1397   1.955   .     S
Cu1382 O1396   1.957   .     S
Cu1382 O1392   1.953   .     S
H1383  C1431   1.086   .     S
C1399  C1400   1.534   .     S
C1399  H1407   1.108   .     S
C1399  H1408   1.113   .     S
C1400  H1406   1.110   .     S
C1400  H1405   1.112   .     S
C1401  H1402   1.110   .     S
C1401  H1404   1.110   .     S
C1401  H1403   1.111   .     S
C1401  C1462   1.527   .     S
C1409  H1417   1.109   .     S
C1409  C1410   1.535   .     S
C1409  H1418   1.112   .     S
C1410  H1416   1.110   .     S
C1410  C1411   1.527   .     S
C1410  H1601   1.111   .     S
C1411  H1412   1.111   .     S
C1411  H1475   1.111   .     S
C1411  H298    1.111   1_556 S
C1419  O1420   1.221   .     D
C1419  O1421   1.398   .     S
O1421  H1422   1.014   .     S
C1423  O1424   1.221   .     D
C1423  O1425   1.398   .     S
O1425  H1426   1.014   .     S
C1427  O1455   1.292   .     A
C1427  C1438   1.441   .     S
C1427  O1453   1.295   .     A
C1428  O1456   1.293   .     A
C1428  C1437   1.441   .     S
C1428  O1454   1.294   .     A
C1429  O1457   1.292   .     A
C1429  O1459   1.291   .     A
C1429  C1431   1.430   .     S
C1430  O1458   1.293   .     A
C1430  C1432   1.431   .     S
C1430  O1460   1.291   .     A
C1432  C1307   1.331   1_655 S
C1432  H1322   1.086   1_655 S
C1433  C1438   1.411   .     A
C1433  C1461   1.515   .     S
C1434  C1437   1.412   .     A
C1434  C1471   1.517   .     S
C1434  C1622   1.393   .     S
C1435  C1437   1.396   .     A
C1435  H1447   1.085   .     S
C1435  C1619   1.391   .     S
C1436  H1448   1.085   .     S
C1436  C1438   1.396   .     A
C1439  N1452   1.358   .     A
C1439  H1449   1.082   .     S
C1440  N1451   1.357   .     A
C1440  H1450   1.079   .     S
C1440  C326    1.417   1_556 S
C1441  N1451   1.384   .     A
C1441  C1481   1.468   .     S
C1441  C323    1.417   1_556 S
C1442  N1452   1.385   .     A
C1442  C1485   1.469   .     S
Cu1443 O1456   1.950   .     S
Cu1443 N1451   2.025   .     S
Cu1443 Cu1444  2.695   .     S
Cu1443 O1457   1.957   .     S
Cu1443 O1460   1.955   .     S
Cu1443 O1453   1.953   .     S
Cu1444 N1452   2.025   .     S
Cu1444 O1455   1.950   .     S
Cu1444 O1459   1.955   .     S
Cu1444 O1458   1.957   .     S
Cu1444 O1454   1.953   .     S
H1445  C1307   1.086   1_655 S
C1461  C1462   1.534   .     S
C1461  H1469   1.108   .     S
C1461  H1470   1.113   .     S
C1462  H1468   1.110   .     S
C1462  H1467   1.112   .     S
C1463  H1464   1.110   .     S
C1463  H1466   1.110   .     S
C1463  H1465   1.111   .     S
C1463  C1338   1.527   1_655 S
C1471  H1479   1.109   .     S
C1471  C1472   1.535   .     S
C1471  H1480   1.112   .     S
C1472  H1478   1.110   .     S
C1472  C1473   1.527   .     S
C1472  H1663   1.111   .     S
C1473  H1474   1.111   .     S
C1473  H1351   1.111   1_655 S
C1473  H360    1.111   1_556 S
C1481  O1482   1.221   .     D
C1481  O1483   1.398   .     S
O1483  H1484   1.014   .     S
C1485  O1486   1.221   .     D
C1485  O1487   1.398   .     S
O1487  H1488   1.014   .     S
C1489  O1517   1.292   .     A
C1489  C1500   1.441   .     S
C1489  O1515   1.295   .     A
C1490  O1518   1.293   .     A
C1490  C1499   1.441   .     S
C1490  O1516   1.294   .     A
C1491  O1519   1.292   .     A
C1491  O1521   1.291   .     A
C1491  C1493   1.430   .     S
C1492  O1520   1.293   .     A
C1492  C1494   1.431   .     S
C1492  O1522   1.291   .     A
C1493  C1618   1.331   1_455 S
C1493  H1631   1.086   1_455 S
C1494  C1555   1.331   .     S
C1494  H1570   1.086   .     S
C1495  C1500   1.411   .     A
C1495  C1523   1.515   .     S
C1496  C1499   1.412   .     A
C1496  C1533   1.517   .     S
C1496  C1126   1.393   1_565 S
C1497  C1499   1.396   .     A
C1497  H1509   1.085   .     S
C1497  C1123   1.391   1_565 S
C1498  H1510   1.085   .     S
C1498  C1500   1.396   .     A
C1501  N1514   1.358   .     A
C1501  H1511   1.082   .     S
C1502  N1513   1.357   .     A
C1502  H1512   1.079   .     S
C1502  C388    1.417   1_556 S
C1503  N1513   1.384   .     A
C1503  C1543   1.468   .     S
C1503  C385    1.417   1_556 S
C1504  N1514   1.385   .     A
C1504  C1547   1.469   .     S
Cu1505 O1518   1.950   .     S
Cu1505 N1513   2.025   .     S
Cu1505 Cu1506  2.695   .     S
Cu1505 O1519   1.957   .     S
Cu1505 O1522   1.955   .     S
Cu1505 O1515   1.953   .     S
Cu1506 N1514   2.025   .     S
Cu1506 O1517   1.950   .     S
Cu1506 O1521   1.955   .     S
Cu1506 O1520   1.957   .     S
Cu1506 O1516   1.953   .     S
H1507  C1555   1.086   .     S
H1508  C1618   1.086   1_455 S
C1523  C1524   1.534   .     S
C1523  H1531   1.108   .     S
C1523  H1532   1.113   .     S
C1524  H1530   1.110   .     S
C1524  H1529   1.112   .     S
C1524  C1649   1.527   1_455 S
C1525  H1526   1.110   .     S
C1525  H1528   1.110   .     S
C1525  H1527   1.111   .     S
C1525  C1586   1.527   .     S
C1533  H1541   1.109   .     S
C1533  C1534   1.535   .     S
C1533  H1542   1.112   .     S
C1534  H1540   1.110   .     S
C1534  C1535   1.527   .     S
C1534  H1167   1.111   1_565 S
C1535  H1536   1.111   .     S
C1535  H1599   1.111   .     S
C1535  H422    1.111   1_556 S
H1537  C1659   1.111   1_455 S
C1543  O1544   1.221   .     D
C1543  O1545   1.398   .     S
O1545  H1546   1.014   .     S
C1547  O1548   1.221   .     D
C1547  O1549   1.398   .     S
O1549  H1550   1.014   .     S
C1551  O1579   1.292   .     A
C1551  C1562   1.441   .     S
C1551  O1577   1.295   .     A
C1552  O1580   1.293   .     A
C1552  C1561   1.441   .     S
C1552  O1578   1.294   .     A
C1553  O1581   1.292   .     A
C1553  O1583   1.291   .     A
C1553  C1555   1.430   .     S
C1554  O1582   1.293   .     A
C1554  C1556   1.431   .     S
C1554  O1584   1.291   .     A
C1556  C1617   1.331   .     S
C1556  H1632   1.086   .     S
C1557  C1562   1.411   .     A
C1557  C1585   1.515   .     S
C1558  C1561   1.412   .     A
C1558  C1595   1.517   .     S
C1558  C1188   1.393   1_565 S
C1559  C1561   1.396   .     A
C1559  H1571   1.085   .     S
C1559  C1185   1.391   1_565 S
C1560  H1572   1.085   .     S
C1560  C1562   1.396   .     A
C1563  N1576   1.358   .     A
C1563  H1573   1.082   .     S
C1564  N1575   1.357   .     A
C1564  H1574   1.079   .     S
C1564  C450    1.417   1_556 S
C1565  N1575   1.384   .     A
C1565  C1605   1.468   .     S
C1565  C447    1.417   1_556 S
C1566  N1576   1.385   .     A
C1566  C1609   1.469   .     S
Cu1567 O1580   1.950   .     S
Cu1567 N1575   2.025   .     S
Cu1567 Cu1568  2.695   .     S
Cu1567 O1581   1.957   .     S
Cu1567 O1584   1.955   .     S
Cu1567 O1577   1.953   .     S
Cu1568 N1576   2.025   .     S
Cu1568 O1579   1.950   .     S
Cu1568 O1583   1.955   .     S
Cu1568 O1582   1.957   .     S
Cu1568 O1578   1.953   .     S
H1569  C1617   1.086   .     S
C1585  C1586   1.534   .     S
C1585  H1593   1.108   .     S
C1585  H1594   1.113   .     S
C1586  H1592   1.110   .     S
C1586  H1591   1.112   .     S
C1587  H1588   1.110   .     S
C1587  H1590   1.110   .     S
C1587  H1589   1.111   .     S
C1587  C1648   1.527   .     S
C1595  H1603   1.109   .     S
C1595  C1596   1.535   .     S
C1595  H1604   1.112   .     S
C1596  H1602   1.110   .     S
C1596  C1597   1.527   .     S
C1596  H1229   1.111   1_565 S
C1597  H1598   1.111   .     S
C1597  H1661   1.111   .     S
C1597  H484    1.111   1_556 S
C1605  O1606   1.221   .     D
C1605  O1607   1.398   .     S
O1607  H1608   1.014   .     S
C1609  O1610   1.221   .     D
C1609  O1611   1.398   .     S
O1611  H1612   1.014   .     S
C1613  O1641   1.292   .     A
C1613  C1624   1.441   .     S
C1613  O1639   1.295   .     A
C1614  O1642   1.293   .     A
C1614  C1623   1.441   .     S
C1614  O1640   1.294   .     A
C1615  O1643   1.292   .     A
C1615  O1645   1.291   .     A
C1615  C1617   1.430   .     S
C1616  O1644   1.293   .     A
C1616  C1618   1.431   .     S
C1616  O1646   1.291   .     A
C1618  C1493   1.331   1_655 S
C1618  H1508   1.086   1_655 S
C1619  C1624   1.411   .     A
C1619  C1647   1.515   .     S
C1620  C1623   1.412   .     A
C1620  C1657   1.517   .     S
C1620  C1250   1.393   1_565 S
C1621  C1623   1.396   .     A
C1621  H1633   1.085   .     S
C1621  C1247   1.391   1_565 S
C1622  H1634   1.085   .     S
C1622  C1624   1.396   .     A
C1625  N1638   1.358   .     A
C1625  H1635   1.082   .     S
C1626  N1637   1.357   .     A
C1626  H1636   1.079   .     S
C1626  C512    1.417   1_556 S
C1627  N1637   1.384   .     A
C1627  C1667   1.468   .     S
C1627  C509    1.417   1_556 S
C1628  N1638   1.385   .     A
C1628  C1671   1.469   .     S
Cu1629 O1642   1.950   .     S
Cu1629 N1637   2.025   .     S
Cu1629 Cu1630  2.695   .     S
Cu1629 O1643   1.957   .     S
Cu1629 O1646   1.955   .     S
Cu1629 O1639   1.953   .     S
Cu1630 N1638   2.025   .     S
Cu1630 O1641   1.950   .     S
Cu1630 O1645   1.955   .     S
Cu1630 O1644   1.957   .     S
Cu1630 O1640   1.953   .     S
H1631  C1493   1.086   1_655 S
C1647  C1648   1.534   .     S
C1647  H1655   1.108   .     S
C1647  H1656   1.113   .     S
C1648  H1654   1.110   .     S
C1648  H1653   1.112   .     S
C1649  H1650   1.110   .     S
C1649  H1652   1.110   .     S
C1649  H1651   1.111   .     S
C1649  C1524   1.527   1_655 S
C1657  H1665   1.109   .     S
C1657  C1658   1.535   .     S
C1657  H1666   1.112   .     S
C1658  H1664   1.110   .     S
C1658  C1659   1.527   .     S
C1658  H1291   1.111   1_565 S
C1659  H1660   1.111   .     S
C1659  H1537   1.111   1_655 S
C1659  H546    1.111   1_556 S
C1667  O1668   1.221   .     D
C1667  O1669   1.398   .     S
O1669  H1670   1.014   .     S
C1671  O1672   1.221   .     D
C1671  O1673   1.398   .     S
O1673  H1674   1.014   .     S
