data_str_m2_o2_o10_pcu_sym.216
_audit_creation_date              2020-01-03
_audit_creation_method            'Materials Studio'
_symmetry_space_group_name_H-M    'P1'
_symmetry_Int_Tables_number       1
_symmetry_cell_setting            triclinic
loop_
_symmetry_equiv_pos_as_xyz
  x,y,z
_cell_length_a                    26.1431
_cell_length_b                    30.2322
_cell_length_c                    27.7362
_cell_angle_alpha                 89.9050
_cell_angle_beta                  97.9486
_cell_angle_gamma                 90.1706
loop_
_atom_site_label
_atom_site_type_symbol
_atom_site_fract_x
_atom_site_fract_y
_atom_site_fract_z
_atom_site_U_iso_or_equiv
_atom_site_adp_type
_atom_site_occupancy
C1     C     0.16633   0.16495   0.25000   0.00000  Uiso   1.00
C2     C     0.16639   0.33508   0.24991   0.00000  Uiso   1.00
C3     C     0.19029   0.28433   0.05698   0.00000  Uiso   1.00
C4     C     0.12720   0.22894   0.44093   0.00000  Uiso   1.00
C5     C     0.19017   0.28352   0.10769   0.00000  Uiso   1.00
C6     C     0.12815   0.22903   0.39033   0.00000  Uiso   1.00
C7     C     0.14318   0.21651   0.10167   0.00000  Uiso   1.00
C8     C     0.20519   0.27095   0.40028   0.00000  Uiso   1.00
C9     C     0.14307   0.21571   0.05093   0.00000  Uiso   1.00
C10    C     0.20613   0.27109   0.45113   0.00000  Uiso   1.00
C11    C     0.16667   0.25002   0.02733   0.00000  Uiso   1.00
C12    C     0.16667   0.25002   0.47265   0.00000  Uiso   1.00
C13    C     0.06789   0.24998   0.23755   0.00000  Uiso   1.00
C14    C     0.26544   0.25000   0.26246   0.00000  Uiso   1.00
C15    C     0.01261   0.24999   0.23068   0.00000  Uiso   1.00
C16    C     0.32073   0.24995   0.26934   0.00000  Uiso   1.00
C17    C     0.13852   0.04829   0.28556   0.00000  Uiso   1.00
C18    C     0.14178   0.45172   0.20577   0.00000  Uiso   1.00
C19    C     0.14282   0.09426   0.28644   0.00000  Uiso   1.00
C20    C     0.14613   0.40578   0.20631   0.00000  Uiso   1.00
C21    C     0.16437   0.11674   0.24987   0.00000  Uiso   1.00
C22    C     0.16448   0.38334   0.24945   0.00000  Uiso   1.00
C23    C     0.18346   0.09299   0.21300   0.00000  Uiso   1.00
C24    C     0.18044   0.40721   0.29208   0.00000  Uiso   1.00
C25    C     0.18176   0.04710   0.21307   0.00000  Uiso   1.00
C26    C     0.17866   0.45309   0.29147   0.00000  Uiso   1.00
C27    C     0.15936   0.02434   0.24905   0.00000  Uiso   1.00
C28    C     0.15931   0.47577   0.24867   0.00000  Uiso   1.00
Cu29   Cu    0.16667   0.25000   0.29821   0.00000  Uiso   1.00
Cu30   Cu    0.16667   0.25001   0.20178   0.00000  Uiso   1.00
H31    H     0.32592   0.25005   0.19361   0.00000  Uiso   1.00
H32    H     0.00742   0.24988   0.30641   0.00000  Uiso   1.00
H33    H     0.12811   0.11241   0.31524   0.00000  Uiso   1.00
H34    H     0.13387   0.38763   0.17304   0.00000  Uiso   1.00
H35    H     0.20078   0.10987   0.18478   0.00000  Uiso   1.00
H36    H     0.19534   0.39043   0.32562   0.00000  Uiso   1.00
H37    H     0.19871   0.02929   0.18538   0.00000  Uiso   1.00
H38    H     0.19317   0.47097   0.32436   0.00000  Uiso   1.00
H39    H     0.20827   0.31214   0.04131   0.00000  Uiso   1.00
H40    H     0.09519   0.21287   0.45476   0.00000  Uiso   1.00
H41    H     0.20887   0.31000   0.12969   0.00000  Uiso   1.00
H42    H     0.09770   0.21235   0.36678   0.00000  Uiso   1.00
H43    H     0.12448   0.19001   0.11887   0.00000  Uiso   1.00
H44    H     0.23564   0.28760   0.38457   0.00000  Uiso   1.00
H45    H     0.12510   0.18790   0.03067   0.00000  Uiso   1.00
H46    H     0.23814   0.28717   0.47324   0.00000  Uiso   1.00
N47    N     0.16667   0.25001   0.12934   0.00000  Uiso   1.00
N48    N     0.16667   0.24999   0.37065   0.00000  Uiso   1.00
O49    O     0.16667   0.18573   0.29071   0.00000  Uiso   1.00
O50    O     0.16666   0.31428   0.20928   0.00000  Uiso   1.00
O51    O     0.16667   0.18573   0.20928   0.00000  Uiso   1.00
O52    O     0.16666   0.31427   0.29072   0.00000  Uiso   1.00
O53    O     0.09161   0.25000   0.28132   0.00000  Uiso   1.00
O54    O     0.24172   0.25001   0.21868   0.00000  Uiso   1.00
O55    O     0.09161   0.25000   0.19988   0.00000  Uiso   1.00
O56    O     0.24172   0.25000   0.30011   0.00000  Uiso   1.00
O57    O     0.11831   0.02749   0.32334   0.00000  Uiso   1.00
C58    C     0.06716   0.01292   0.30781   0.00000  Uiso   1.00
H59    H     0.05745   0.48830   0.33492   0.00000  Uiso   1.00
H60    H     0.06322   0.49521   0.27244   0.00000  Uiso   1.00
C61    C     0.02836   0.05116   0.30596   0.00000  Uiso   1.00
H62    H     0.03435   0.06938   0.34107   0.00000  Uiso   1.00
H63    H     0.03460   0.07446   0.27630   0.00000  Uiso   1.00
C64    C     0.30606   0.03434   0.29674   0.00000  Uiso   1.00
H65    H     0.29899   0.01631   0.26161   0.00000  Uiso   1.00
H66    H     0.27907   0.06277   0.29514   0.00000  Uiso   1.00
H67    H     0.29806   0.01190   0.32657   0.00000  Uiso   1.00
O68    O     0.12463   0.47227   0.16180   0.00000  Uiso   1.00
C69    C     0.07344   0.48777   0.16095   0.00000  Uiso   1.00
H70    H     0.06509   0.00991   0.12885   0.00000  Uiso   1.00
H71    H     0.06888   0.00847   0.19307   0.00000  Uiso   1.00
C72    C     0.03386   0.44979   0.15545   0.00000  Uiso   1.00
H73    H     0.04001   0.42892   0.12382   0.00000  Uiso   1.00
H74    H     0.03893   0.42886   0.18872   0.00000  Uiso   1.00
C75    C     0.31199   0.46738   0.14784   0.00000  Uiso   1.00
H76    H     0.30500   0.48836   0.17907   0.00000  Uiso   1.00
H77    H     0.28433   0.43924   0.14492   0.00000  Uiso   1.00
H78    H     0.30498   0.48717   0.11381   0.00000  Uiso   1.00
C79    C     0.49967   0.16495   0.25000   0.00000  Uiso   1.00
C80    C     0.49972   0.33508   0.24991   0.00000  Uiso   1.00
C81    C     0.52362   0.28433   0.05698   0.00000  Uiso   1.00
C82    C     0.46053   0.22894   0.44093   0.00000  Uiso   1.00
C83    C     0.52351   0.28352   0.10769   0.00000  Uiso   1.00
C84    C     0.46148   0.22903   0.39033   0.00000  Uiso   1.00
C85    C     0.47651   0.21651   0.10167   0.00000  Uiso   1.00
C86    C     0.53852   0.27095   0.40028   0.00000  Uiso   1.00
C87    C     0.47640   0.21571   0.05093   0.00000  Uiso   1.00
C88    C     0.53947   0.27109   0.45113   0.00000  Uiso   1.00
C89    C     0.50001   0.25002   0.02733   0.00000  Uiso   1.00
C90    C     0.50000   0.25002   0.47265   0.00000  Uiso   1.00
C91    C     0.40123   0.24998   0.23755   0.00000  Uiso   1.00
C92    C     0.59877   0.25000   0.26246   0.00000  Uiso   1.00
C93    C     0.34594   0.24999   0.23068   0.00000  Uiso   1.00
C94    C     0.65406   0.24995   0.26934   0.00000  Uiso   1.00
C95    C     0.47185   0.04829   0.28556   0.00000  Uiso   1.00
C96    C     0.47511   0.45172   0.20577   0.00000  Uiso   1.00
C97    C     0.47616   0.09426   0.28644   0.00000  Uiso   1.00
C98    C     0.47946   0.40578   0.20631   0.00000  Uiso   1.00
C99    C     0.49770   0.11674   0.24987   0.00000  Uiso   1.00
C100   C     0.49781   0.38334   0.24945   0.00000  Uiso   1.00
C101   C     0.51679   0.09299   0.21300   0.00000  Uiso   1.00
C102   C     0.51378   0.40721   0.29208   0.00000  Uiso   1.00
C103   C     0.51509   0.04710   0.21307   0.00000  Uiso   1.00
C104   C     0.51199   0.45309   0.29147   0.00000  Uiso   1.00
C105   C     0.49269   0.02434   0.24905   0.00000  Uiso   1.00
C106   C     0.49265   0.47577   0.24867   0.00000  Uiso   1.00
Cu107  Cu    0.50000   0.25000   0.29821   0.00000  Uiso   1.00
Cu108  Cu    0.50000   0.25001   0.20178   0.00000  Uiso   1.00
H109   H     0.65925   0.25005   0.19361   0.00000  Uiso   1.00
H110   H     0.34075   0.24988   0.30641   0.00000  Uiso   1.00
H111   H     0.46144   0.11241   0.31524   0.00000  Uiso   1.00
H112   H     0.46720   0.38763   0.17304   0.00000  Uiso   1.00
H113   H     0.53412   0.10987   0.18478   0.00000  Uiso   1.00
H114   H     0.52867   0.39043   0.32562   0.00000  Uiso   1.00
H115   H     0.53204   0.02929   0.18538   0.00000  Uiso   1.00
H116   H     0.52650   0.47097   0.32436   0.00000  Uiso   1.00
H117   H     0.54160   0.31214   0.04131   0.00000  Uiso   1.00
H118   H     0.42852   0.21287   0.45476   0.00000  Uiso   1.00
H119   H     0.54221   0.31000   0.12969   0.00000  Uiso   1.00
H120   H     0.43104   0.21235   0.36678   0.00000  Uiso   1.00
H121   H     0.45781   0.19001   0.11887   0.00000  Uiso   1.00
H122   H     0.56897   0.28760   0.38457   0.00000  Uiso   1.00
H123   H     0.45844   0.18790   0.03067   0.00000  Uiso   1.00
H124   H     0.57148   0.28717   0.47324   0.00000  Uiso   1.00
N125   N     0.50000   0.25001   0.12934   0.00000  Uiso   1.00
N126   N     0.50000   0.24999   0.37065   0.00000  Uiso   1.00
O127   O     0.50000   0.18573   0.29071   0.00000  Uiso   1.00
O128   O     0.50000   0.31428   0.20928   0.00000  Uiso   1.00
O129   O     0.50000   0.18573   0.20928   0.00000  Uiso   1.00
O130   O     0.50000   0.31427   0.29072   0.00000  Uiso   1.00
O131   O     0.42495   0.25000   0.28132   0.00000  Uiso   1.00
O132   O     0.57505   0.25001   0.21868   0.00000  Uiso   1.00
O133   O     0.42495   0.25000   0.19988   0.00000  Uiso   1.00
O134   O     0.57505   0.25000   0.30011   0.00000  Uiso   1.00
O135   O     0.45165   0.02749   0.32334   0.00000  Uiso   1.00
C136   C     0.40049   0.01292   0.30781   0.00000  Uiso   1.00
H137   H     0.39079   0.48830   0.33492   0.00000  Uiso   1.00
H138   H     0.39655   0.49521   0.27244   0.00000  Uiso   1.00
C139   C     0.36170   0.05116   0.30596   0.00000  Uiso   1.00
H140   H     0.36769   0.06938   0.34107   0.00000  Uiso   1.00
H141   H     0.36793   0.07446   0.27630   0.00000  Uiso   1.00
C142   C     0.63939   0.03434   0.29674   0.00000  Uiso   1.00
H143   H     0.63232   0.01631   0.26161   0.00000  Uiso   1.00
H144   H     0.61240   0.06277   0.29514   0.00000  Uiso   1.00
H145   H     0.63140   0.01190   0.32657   0.00000  Uiso   1.00
O146   O     0.45796   0.47227   0.16180   0.00000  Uiso   1.00
C147   C     0.40677   0.48777   0.16095   0.00000  Uiso   1.00
H148   H     0.39842   0.00991   0.12885   0.00000  Uiso   1.00
H149   H     0.40222   0.00847   0.19307   0.00000  Uiso   1.00
C150   C     0.36719   0.44979   0.15545   0.00000  Uiso   1.00
H151   H     0.37335   0.42892   0.12382   0.00000  Uiso   1.00
H152   H     0.37226   0.42886   0.18872   0.00000  Uiso   1.00
C153   C     0.64532   0.46738   0.14784   0.00000  Uiso   1.00
H154   H     0.63833   0.48836   0.17907   0.00000  Uiso   1.00
H155   H     0.61766   0.43924   0.14492   0.00000  Uiso   1.00
H156   H     0.63831   0.48717   0.11381   0.00000  Uiso   1.00
C157   C     0.83300   0.16495   0.25000   0.00000  Uiso   1.00
C158   C     0.83305   0.33508   0.24991   0.00000  Uiso   1.00
C159   C     0.85696   0.28433   0.05698   0.00000  Uiso   1.00
C160   C     0.79386   0.22894   0.44093   0.00000  Uiso   1.00
C161   C     0.85684   0.28352   0.10769   0.00000  Uiso   1.00
C162   C     0.79481   0.22903   0.39033   0.00000  Uiso   1.00
C163   C     0.80984   0.21651   0.10167   0.00000  Uiso   1.00
C164   C     0.87186   0.27095   0.40028   0.00000  Uiso   1.00
C165   C     0.80974   0.21571   0.05093   0.00000  Uiso   1.00
C166   C     0.87280   0.27109   0.45113   0.00000  Uiso   1.00
C167   C     0.83334   0.25002   0.02733   0.00000  Uiso   1.00
C168   C     0.83333   0.25002   0.47265   0.00000  Uiso   1.00
C169   C     0.73456   0.24998   0.23755   0.00000  Uiso   1.00
C170   C     0.93211   0.25000   0.26246   0.00000  Uiso   1.00
C171   C     0.67927   0.24999   0.23068   0.00000  Uiso   1.00
C172   C     0.98740   0.24995   0.26934   0.00000  Uiso   1.00
C173   C     0.80518   0.04829   0.28556   0.00000  Uiso   1.00
C174   C     0.80844   0.45172   0.20577   0.00000  Uiso   1.00
C175   C     0.80949   0.09426   0.28644   0.00000  Uiso   1.00
C176   C     0.81280   0.40578   0.20631   0.00000  Uiso   1.00
C177   C     0.83103   0.11674   0.24987   0.00000  Uiso   1.00
C178   C     0.83115   0.38334   0.24945   0.00000  Uiso   1.00
C179   C     0.85013   0.09299   0.21300   0.00000  Uiso   1.00
C180   C     0.84711   0.40721   0.29208   0.00000  Uiso   1.00
C181   C     0.84842   0.04710   0.21307   0.00000  Uiso   1.00
C182   C     0.84533   0.45309   0.29147   0.00000  Uiso   1.00
C183   C     0.82603   0.02434   0.24905   0.00000  Uiso   1.00
C184   C     0.82598   0.47577   0.24867   0.00000  Uiso   1.00
Cu185  Cu    0.83333   0.25000   0.29821   0.00000  Uiso   1.00
Cu186  Cu    0.83333   0.25001   0.20178   0.00000  Uiso   1.00
H187   H     0.99258   0.25005   0.19361   0.00000  Uiso   1.00
H188   H     0.67409   0.24988   0.30641   0.00000  Uiso   1.00
H189   H     0.79478   0.11241   0.31524   0.00000  Uiso   1.00
H190   H     0.80054   0.38763   0.17304   0.00000  Uiso   1.00
H191   H     0.86745   0.10987   0.18478   0.00000  Uiso   1.00
H192   H     0.86200   0.39043   0.32562   0.00000  Uiso   1.00
H193   H     0.86538   0.02929   0.18538   0.00000  Uiso   1.00
H194   H     0.85984   0.47097   0.32436   0.00000  Uiso   1.00
H195   H     0.87494   0.31214   0.04131   0.00000  Uiso   1.00
H196   H     0.76185   0.21287   0.45476   0.00000  Uiso   1.00
H197   H     0.87554   0.31000   0.12969   0.00000  Uiso   1.00
H198   H     0.76437   0.21235   0.36678   0.00000  Uiso   1.00
H199   H     0.79114   0.19001   0.11887   0.00000  Uiso   1.00
H200   H     0.90231   0.28760   0.38457   0.00000  Uiso   1.00
H201   H     0.79177   0.18790   0.03067   0.00000  Uiso   1.00
H202   H     0.90481   0.28717   0.47324   0.00000  Uiso   1.00
N203   N     0.83333   0.25001   0.12934   0.00000  Uiso   1.00
N204   N     0.83333   0.24999   0.37065   0.00000  Uiso   1.00
O205   O     0.83334   0.18573   0.29071   0.00000  Uiso   1.00
O206   O     0.83333   0.31428   0.20928   0.00000  Uiso   1.00
O207   O     0.83334   0.18573   0.20928   0.00000  Uiso   1.00
O208   O     0.83333   0.31427   0.29072   0.00000  Uiso   1.00
O209   O     0.75828   0.25000   0.28132   0.00000  Uiso   1.00
O210   O     0.90839   0.25001   0.21868   0.00000  Uiso   1.00
O211   O     0.75828   0.25000   0.19988   0.00000  Uiso   1.00
O212   O     0.90839   0.25000   0.30011   0.00000  Uiso   1.00
O213   O     0.78498   0.02749   0.32334   0.00000  Uiso   1.00
C214   C     0.73383   0.01292   0.30781   0.00000  Uiso   1.00
H215   H     0.72412   0.48830   0.33492   0.00000  Uiso   1.00
H216   H     0.72989   0.49521   0.27244   0.00000  Uiso   1.00
C217   C     0.69503   0.05116   0.30596   0.00000  Uiso   1.00
H218   H     0.70102   0.06938   0.34107   0.00000  Uiso   1.00
H219   H     0.70126   0.07446   0.27630   0.00000  Uiso   1.00
C220   C     0.97273   0.03434   0.29674   0.00000  Uiso   1.00
H221   H     0.96565   0.01631   0.26161   0.00000  Uiso   1.00
H222   H     0.94573   0.06277   0.29514   0.00000  Uiso   1.00
H223   H     0.96473   0.01190   0.32657   0.00000  Uiso   1.00
O224   O     0.79130   0.47227   0.16180   0.00000  Uiso   1.00
C225   C     0.74011   0.48777   0.16095   0.00000  Uiso   1.00
H226   H     0.73176   0.00991   0.12885   0.00000  Uiso   1.00
H227   H     0.73555   0.00847   0.19307   0.00000  Uiso   1.00
C228   C     0.70052   0.44979   0.15545   0.00000  Uiso   1.00
H229   H     0.70668   0.42892   0.12382   0.00000  Uiso   1.00
H230   H     0.70559   0.42886   0.18872   0.00000  Uiso   1.00
C231   C     0.97865   0.46738   0.14784   0.00000  Uiso   1.00
H232   H     0.97166   0.48836   0.17907   0.00000  Uiso   1.00
H233   H     0.95099   0.43924   0.14492   0.00000  Uiso   1.00
H234   H     0.97165   0.48717   0.11381   0.00000  Uiso   1.00
C235   C     0.16633   0.66495   0.25000   0.00000  Uiso   1.00
C236   C     0.16639   0.83508   0.24991   0.00000  Uiso   1.00
C237   C     0.19029   0.78433   0.05698   0.00000  Uiso   1.00
C238   C     0.12720   0.72894   0.44093   0.00000  Uiso   1.00
C239   C     0.19017   0.78352   0.10769   0.00000  Uiso   1.00
C240   C     0.12815   0.72903   0.39033   0.00000  Uiso   1.00
C241   C     0.14318   0.71651   0.10167   0.00000  Uiso   1.00
C242   C     0.20519   0.77095   0.40028   0.00000  Uiso   1.00
C243   C     0.14307   0.71571   0.05093   0.00000  Uiso   1.00
C244   C     0.20613   0.77109   0.45113   0.00000  Uiso   1.00
C245   C     0.16667   0.75002   0.02733   0.00000  Uiso   1.00
C246   C     0.16667   0.75002   0.47265   0.00000  Uiso   1.00
C247   C     0.06789   0.74998   0.23755   0.00000  Uiso   1.00
C248   C     0.26544   0.75000   0.26246   0.00000  Uiso   1.00
C249   C     0.01261   0.74999   0.23068   0.00000  Uiso   1.00
C250   C     0.32073   0.74995   0.26934   0.00000  Uiso   1.00
C251   C     0.13852   0.54829   0.28556   0.00000  Uiso   1.00
C252   C     0.14178   0.95172   0.20577   0.00000  Uiso   1.00
C253   C     0.14282   0.59426   0.28644   0.00000  Uiso   1.00
C254   C     0.14613   0.90578   0.20631   0.00000  Uiso   1.00
C255   C     0.16437   0.61674   0.24987   0.00000  Uiso   1.00
C256   C     0.16448   0.88334   0.24945   0.00000  Uiso   1.00
C257   C     0.18346   0.59299   0.21300   0.00000  Uiso   1.00
C258   C     0.18044   0.90721   0.29208   0.00000  Uiso   1.00
C259   C     0.18176   0.54710   0.21307   0.00000  Uiso   1.00
C260   C     0.17866   0.95309   0.29147   0.00000  Uiso   1.00
C261   C     0.15936   0.52434   0.24905   0.00000  Uiso   1.00
C262   C     0.15931   0.97577   0.24867   0.00000  Uiso   1.00
Cu263  Cu    0.16667   0.75000   0.29821   0.00000  Uiso   1.00
Cu264  Cu    0.16667   0.75001   0.20178   0.00000  Uiso   1.00
H265   H     0.32592   0.75005   0.19361   0.00000  Uiso   1.00
H266   H     0.00742   0.74988   0.30641   0.00000  Uiso   1.00
H267   H     0.12811   0.61241   0.31524   0.00000  Uiso   1.00
H268   H     0.13387   0.88763   0.17304   0.00000  Uiso   1.00
H269   H     0.20078   0.60987   0.18478   0.00000  Uiso   1.00
H270   H     0.19534   0.89043   0.32562   0.00000  Uiso   1.00
H271   H     0.19871   0.52929   0.18538   0.00000  Uiso   1.00
H272   H     0.19317   0.97097   0.32436   0.00000  Uiso   1.00
H273   H     0.20827   0.81214   0.04131   0.00000  Uiso   1.00
H274   H     0.09519   0.71287   0.45476   0.00000  Uiso   1.00
H275   H     0.20887   0.81000   0.12969   0.00000  Uiso   1.00
H276   H     0.09770   0.71235   0.36678   0.00000  Uiso   1.00
H277   H     0.12448   0.69001   0.11887   0.00000  Uiso   1.00
H278   H     0.23564   0.78760   0.38457   0.00000  Uiso   1.00
H279   H     0.12510   0.68790   0.03067   0.00000  Uiso   1.00
H280   H     0.23814   0.78717   0.47324   0.00000  Uiso   1.00
N281   N     0.16667   0.75001   0.12934   0.00000  Uiso   1.00
N282   N     0.16667   0.74999   0.37065   0.00000  Uiso   1.00
O283   O     0.16667   0.68573   0.29071   0.00000  Uiso   1.00
O284   O     0.16666   0.81428   0.20928   0.00000  Uiso   1.00
O285   O     0.16667   0.68573   0.20928   0.00000  Uiso   1.00
O286   O     0.16666   0.81427   0.29072   0.00000  Uiso   1.00
O287   O     0.09161   0.75000   0.28132   0.00000  Uiso   1.00
O288   O     0.24172   0.75001   0.21868   0.00000  Uiso   1.00
O289   O     0.09161   0.75000   0.19988   0.00000  Uiso   1.00
O290   O     0.24172   0.75000   0.30011   0.00000  Uiso   1.00
O291   O     0.11831   0.52749   0.32334   0.00000  Uiso   1.00
C292   C     0.06716   0.51292   0.30781   0.00000  Uiso   1.00
H293   H     0.05745   0.98830   0.33492   0.00000  Uiso   1.00
H294   H     0.06322   0.99521   0.27244   0.00000  Uiso   1.00
C295   C     0.02836   0.55116   0.30596   0.00000  Uiso   1.00
H296   H     0.03435   0.56938   0.34107   0.00000  Uiso   1.00
H297   H     0.03460   0.57446   0.27630   0.00000  Uiso   1.00
C298   C     0.30606   0.53434   0.29674   0.00000  Uiso   1.00
H299   H     0.29899   0.51631   0.26161   0.00000  Uiso   1.00
H300   H     0.27907   0.56277   0.29514   0.00000  Uiso   1.00
H301   H     0.29806   0.51190   0.32657   0.00000  Uiso   1.00
O302   O     0.12463   0.97227   0.16180   0.00000  Uiso   1.00
C303   C     0.07344   0.98777   0.16095   0.00000  Uiso   1.00
H304   H     0.06509   0.50991   0.12885   0.00000  Uiso   1.00
H305   H     0.06888   0.50847   0.19307   0.00000  Uiso   1.00
C306   C     0.03386   0.94979   0.15545   0.00000  Uiso   1.00
H307   H     0.04001   0.92892   0.12382   0.00000  Uiso   1.00
H308   H     0.03893   0.92886   0.18872   0.00000  Uiso   1.00
C309   C     0.31199   0.96738   0.14784   0.00000  Uiso   1.00
H310   H     0.30500   0.98836   0.17907   0.00000  Uiso   1.00
H311   H     0.28433   0.93924   0.14492   0.00000  Uiso   1.00
H312   H     0.30498   0.98717   0.11381   0.00000  Uiso   1.00
C313   C     0.49967   0.66495   0.25000   0.00000  Uiso   1.00
C314   C     0.49972   0.83508   0.24991   0.00000  Uiso   1.00
C315   C     0.52362   0.78433   0.05698   0.00000  Uiso   1.00
C316   C     0.46053   0.72894   0.44093   0.00000  Uiso   1.00
C317   C     0.52351   0.78352   0.10769   0.00000  Uiso   1.00
C318   C     0.46148   0.72903   0.39033   0.00000  Uiso   1.00
C319   C     0.47651   0.71651   0.10167   0.00000  Uiso   1.00
C320   C     0.53852   0.77095   0.40028   0.00000  Uiso   1.00
C321   C     0.47640   0.71571   0.05093   0.00000  Uiso   1.00
C322   C     0.53947   0.77109   0.45113   0.00000  Uiso   1.00
C323   C     0.50001   0.75002   0.02733   0.00000  Uiso   1.00
C324   C     0.50000   0.75002   0.47265   0.00000  Uiso   1.00
C325   C     0.40123   0.74998   0.23755   0.00000  Uiso   1.00
C326   C     0.59877   0.75000   0.26246   0.00000  Uiso   1.00
C327   C     0.34594   0.74999   0.23068   0.00000  Uiso   1.00
C328   C     0.65406   0.74995   0.26934   0.00000  Uiso   1.00
C329   C     0.47185   0.54829   0.28556   0.00000  Uiso   1.00
C330   C     0.47511   0.95172   0.20577   0.00000  Uiso   1.00
C331   C     0.47616   0.59426   0.28644   0.00000  Uiso   1.00
C332   C     0.47946   0.90578   0.20631   0.00000  Uiso   1.00
C333   C     0.49770   0.61674   0.24987   0.00000  Uiso   1.00
C334   C     0.49781   0.88334   0.24945   0.00000  Uiso   1.00
C335   C     0.51679   0.59299   0.21300   0.00000  Uiso   1.00
C336   C     0.51378   0.90721   0.29208   0.00000  Uiso   1.00
C337   C     0.51509   0.54710   0.21307   0.00000  Uiso   1.00
C338   C     0.51199   0.95309   0.29147   0.00000  Uiso   1.00
C339   C     0.49269   0.52434   0.24905   0.00000  Uiso   1.00
C340   C     0.49265   0.97577   0.24867   0.00000  Uiso   1.00
Cu341  Cu    0.50000   0.75000   0.29821   0.00000  Uiso   1.00
Cu342  Cu    0.50000   0.75001   0.20178   0.00000  Uiso   1.00
H343   H     0.65925   0.75005   0.19361   0.00000  Uiso   1.00
H344   H     0.34075   0.74988   0.30641   0.00000  Uiso   1.00
H345   H     0.46144   0.61241   0.31524   0.00000  Uiso   1.00
H346   H     0.46720   0.88763   0.17304   0.00000  Uiso   1.00
H347   H     0.53412   0.60987   0.18478   0.00000  Uiso   1.00
H348   H     0.52867   0.89043   0.32562   0.00000  Uiso   1.00
H349   H     0.53204   0.52929   0.18538   0.00000  Uiso   1.00
H350   H     0.52650   0.97097   0.32436   0.00000  Uiso   1.00
H351   H     0.54160   0.81214   0.04131   0.00000  Uiso   1.00
H352   H     0.42852   0.71287   0.45476   0.00000  Uiso   1.00
H353   H     0.54221   0.81000   0.12969   0.00000  Uiso   1.00
H354   H     0.43104   0.71235   0.36678   0.00000  Uiso   1.00
H355   H     0.45781   0.69001   0.11887   0.00000  Uiso   1.00
H356   H     0.56897   0.78760   0.38457   0.00000  Uiso   1.00
H357   H     0.45844   0.68790   0.03067   0.00000  Uiso   1.00
H358   H     0.57148   0.78717   0.47324   0.00000  Uiso   1.00
N359   N     0.50000   0.75001   0.12934   0.00000  Uiso   1.00
N360   N     0.50000   0.74999   0.37065   0.00000  Uiso   1.00
O361   O     0.50000   0.68573   0.29071   0.00000  Uiso   1.00
O362   O     0.50000   0.81428   0.20928   0.00000  Uiso   1.00
O363   O     0.50000   0.68573   0.20928   0.00000  Uiso   1.00
O364   O     0.50000   0.81427   0.29072   0.00000  Uiso   1.00
O365   O     0.42495   0.75000   0.28132   0.00000  Uiso   1.00
O366   O     0.57505   0.75001   0.21868   0.00000  Uiso   1.00
O367   O     0.42495   0.75000   0.19988   0.00000  Uiso   1.00
O368   O     0.57505   0.75000   0.30011   0.00000  Uiso   1.00
O369   O     0.45165   0.52749   0.32334   0.00000  Uiso   1.00
C370   C     0.40049   0.51292   0.30781   0.00000  Uiso   1.00
H371   H     0.39079   0.98830   0.33492   0.00000  Uiso   1.00
H372   H     0.39655   0.99521   0.27244   0.00000  Uiso   1.00
C373   C     0.36170   0.55116   0.30596   0.00000  Uiso   1.00
H374   H     0.36769   0.56938   0.34107   0.00000  Uiso   1.00
H375   H     0.36793   0.57446   0.27630   0.00000  Uiso   1.00
C376   C     0.63939   0.53434   0.29674   0.00000  Uiso   1.00
H377   H     0.63232   0.51631   0.26161   0.00000  Uiso   1.00
H378   H     0.61240   0.56277   0.29514   0.00000  Uiso   1.00
H379   H     0.63140   0.51190   0.32657   0.00000  Uiso   1.00
O380   O     0.45796   0.97227   0.16180   0.00000  Uiso   1.00
C381   C     0.40677   0.98777   0.16095   0.00000  Uiso   1.00
H382   H     0.39842   0.50991   0.12885   0.00000  Uiso   1.00
H383   H     0.40222   0.50847   0.19307   0.00000  Uiso   1.00
C384   C     0.36719   0.94979   0.15545   0.00000  Uiso   1.00
H385   H     0.37335   0.92892   0.12382   0.00000  Uiso   1.00
H386   H     0.37226   0.92886   0.18872   0.00000  Uiso   1.00
C387   C     0.64532   0.96738   0.14784   0.00000  Uiso   1.00
H388   H     0.63833   0.98836   0.17907   0.00000  Uiso   1.00
H389   H     0.61766   0.93924   0.14492   0.00000  Uiso   1.00
H390   H     0.63831   0.98717   0.11381   0.00000  Uiso   1.00
C391   C     0.83300   0.66495   0.25000   0.00000  Uiso   1.00
C392   C     0.83305   0.83508   0.24991   0.00000  Uiso   1.00
C393   C     0.85696   0.78433   0.05698   0.00000  Uiso   1.00
C394   C     0.79386   0.72894   0.44093   0.00000  Uiso   1.00
C395   C     0.85684   0.78352   0.10769   0.00000  Uiso   1.00
C396   C     0.79481   0.72903   0.39033   0.00000  Uiso   1.00
C397   C     0.80984   0.71651   0.10167   0.00000  Uiso   1.00
C398   C     0.87186   0.77095   0.40028   0.00000  Uiso   1.00
C399   C     0.80974   0.71571   0.05093   0.00000  Uiso   1.00
C400   C     0.87280   0.77109   0.45113   0.00000  Uiso   1.00
C401   C     0.83334   0.75002   0.02733   0.00000  Uiso   1.00
C402   C     0.83333   0.75002   0.47265   0.00000  Uiso   1.00
C403   C     0.73456   0.74998   0.23755   0.00000  Uiso   1.00
C404   C     0.93211   0.75000   0.26246   0.00000  Uiso   1.00
C405   C     0.67927   0.74999   0.23068   0.00000  Uiso   1.00
C406   C     0.98740   0.74995   0.26934   0.00000  Uiso   1.00
C407   C     0.80518   0.54829   0.28556   0.00000  Uiso   1.00
C408   C     0.80844   0.95172   0.20577   0.00000  Uiso   1.00
C409   C     0.80949   0.59426   0.28644   0.00000  Uiso   1.00
C410   C     0.81280   0.90578   0.20631   0.00000  Uiso   1.00
C411   C     0.83103   0.61674   0.24987   0.00000  Uiso   1.00
C412   C     0.83115   0.88334   0.24945   0.00000  Uiso   1.00
C413   C     0.85013   0.59299   0.21300   0.00000  Uiso   1.00
C414   C     0.84711   0.90721   0.29208   0.00000  Uiso   1.00
C415   C     0.84842   0.54710   0.21307   0.00000  Uiso   1.00
C416   C     0.84533   0.95309   0.29147   0.00000  Uiso   1.00
C417   C     0.82603   0.52434   0.24905   0.00000  Uiso   1.00
C418   C     0.82598   0.97577   0.24867   0.00000  Uiso   1.00
Cu419  Cu    0.83333   0.75000   0.29821   0.00000  Uiso   1.00
Cu420  Cu    0.83333   0.75001   0.20178   0.00000  Uiso   1.00
H421   H     0.99258   0.75005   0.19361   0.00000  Uiso   1.00
H422   H     0.67409   0.74988   0.30641   0.00000  Uiso   1.00
H423   H     0.79478   0.61241   0.31524   0.00000  Uiso   1.00
H424   H     0.80054   0.88763   0.17304   0.00000  Uiso   1.00
H425   H     0.86745   0.60987   0.18478   0.00000  Uiso   1.00
H426   H     0.86200   0.89043   0.32562   0.00000  Uiso   1.00
H427   H     0.86538   0.52929   0.18538   0.00000  Uiso   1.00
H428   H     0.85984   0.97097   0.32436   0.00000  Uiso   1.00
H429   H     0.87494   0.81214   0.04131   0.00000  Uiso   1.00
H430   H     0.76185   0.71287   0.45476   0.00000  Uiso   1.00
H431   H     0.87554   0.81000   0.12969   0.00000  Uiso   1.00
H432   H     0.76437   0.71235   0.36678   0.00000  Uiso   1.00
H433   H     0.79114   0.69001   0.11887   0.00000  Uiso   1.00
H434   H     0.90231   0.78760   0.38457   0.00000  Uiso   1.00
H435   H     0.79177   0.68790   0.03067   0.00000  Uiso   1.00
H436   H     0.90481   0.78717   0.47324   0.00000  Uiso   1.00
N437   N     0.83333   0.75001   0.12934   0.00000  Uiso   1.00
N438   N     0.83333   0.74999   0.37065   0.00000  Uiso   1.00
O439   O     0.83334   0.68573   0.29071   0.00000  Uiso   1.00
O440   O     0.83333   0.81428   0.20928   0.00000  Uiso   1.00
O441   O     0.83334   0.68573   0.20928   0.00000  Uiso   1.00
O442   O     0.83333   0.81427   0.29072   0.00000  Uiso   1.00
O443   O     0.75828   0.75000   0.28132   0.00000  Uiso   1.00
O444   O     0.90839   0.75001   0.21868   0.00000  Uiso   1.00
O445   O     0.75828   0.75000   0.19988   0.00000  Uiso   1.00
O446   O     0.90839   0.75000   0.30011   0.00000  Uiso   1.00
O447   O     0.78498   0.52749   0.32334   0.00000  Uiso   1.00
C448   C     0.73383   0.51292   0.30781   0.00000  Uiso   1.00
H449   H     0.72412   0.98830   0.33492   0.00000  Uiso   1.00
H450   H     0.72989   0.99521   0.27244   0.00000  Uiso   1.00
C451   C     0.69503   0.55116   0.30596   0.00000  Uiso   1.00
H452   H     0.70102   0.56938   0.34107   0.00000  Uiso   1.00
H453   H     0.70126   0.57446   0.27630   0.00000  Uiso   1.00
C454   C     0.97273   0.53434   0.29674   0.00000  Uiso   1.00
H455   H     0.96565   0.51631   0.26161   0.00000  Uiso   1.00
H456   H     0.94573   0.56277   0.29514   0.00000  Uiso   1.00
H457   H     0.96473   0.51190   0.32657   0.00000  Uiso   1.00
O458   O     0.79130   0.97227   0.16180   0.00000  Uiso   1.00
C459   C     0.74011   0.98777   0.16095   0.00000  Uiso   1.00
H460   H     0.73176   0.50991   0.12885   0.00000  Uiso   1.00
H461   H     0.73555   0.50847   0.19307   0.00000  Uiso   1.00
C462   C     0.70052   0.94979   0.15545   0.00000  Uiso   1.00
H463   H     0.70668   0.92892   0.12382   0.00000  Uiso   1.00
H464   H     0.70559   0.92886   0.18872   0.00000  Uiso   1.00
C465   C     0.97865   0.96738   0.14784   0.00000  Uiso   1.00
H466   H     0.97166   0.98836   0.17907   0.00000  Uiso   1.00
H467   H     0.95099   0.93924   0.14492   0.00000  Uiso   1.00
H468   H     0.97165   0.98717   0.11381   0.00000  Uiso   1.00
C469   C     0.16633   0.16495   0.75000   0.00000  Uiso   1.00
C470   C     0.16639   0.33508   0.74991   0.00000  Uiso   1.00
C471   C     0.19029   0.28433   0.55698   0.00000  Uiso   1.00
C472   C     0.12720   0.22894   0.94093   0.00000  Uiso   1.00
C473   C     0.19017   0.28352   0.60769   0.00000  Uiso   1.00
C474   C     0.12815   0.22903   0.89033   0.00000  Uiso   1.00
C475   C     0.14318   0.21651   0.60167   0.00000  Uiso   1.00
C476   C     0.20519   0.27095   0.90028   0.00000  Uiso   1.00
C477   C     0.14307   0.21571   0.55093   0.00000  Uiso   1.00
C478   C     0.20613   0.27109   0.95113   0.00000  Uiso   1.00
C479   C     0.16667   0.25002   0.52733   0.00000  Uiso   1.00
C480   C     0.16667   0.25002   0.97265   0.00000  Uiso   1.00
C481   C     0.06789   0.24998   0.73755   0.00000  Uiso   1.00
C482   C     0.26544   0.25000   0.76246   0.00000  Uiso   1.00
C483   C     0.01261   0.24999   0.73068   0.00000  Uiso   1.00
C484   C     0.32073   0.24995   0.76934   0.00000  Uiso   1.00
C485   C     0.13852   0.04829   0.78556   0.00000  Uiso   1.00
C486   C     0.14178   0.45172   0.70577   0.00000  Uiso   1.00
C487   C     0.14282   0.09426   0.78644   0.00000  Uiso   1.00
C488   C     0.14613   0.40578   0.70631   0.00000  Uiso   1.00
C489   C     0.16437   0.11674   0.74987   0.00000  Uiso   1.00
C490   C     0.16448   0.38334   0.74945   0.00000  Uiso   1.00
C491   C     0.18346   0.09299   0.71300   0.00000  Uiso   1.00
C492   C     0.18044   0.40721   0.79208   0.00000  Uiso   1.00
C493   C     0.18176   0.04710   0.71307   0.00000  Uiso   1.00
C494   C     0.17866   0.45309   0.79147   0.00000  Uiso   1.00
C495   C     0.15936   0.02434   0.74905   0.00000  Uiso   1.00
C496   C     0.15931   0.47577   0.74867   0.00000  Uiso   1.00
Cu497  Cu    0.16667   0.25000   0.79821   0.00000  Uiso   1.00
Cu498  Cu    0.16667   0.25001   0.70178   0.00000  Uiso   1.00
H499   H     0.32592   0.25005   0.69361   0.00000  Uiso   1.00
H500   H     0.00742   0.24988   0.80641   0.00000  Uiso   1.00
H501   H     0.12811   0.11241   0.81524   0.00000  Uiso   1.00
H502   H     0.13387   0.38763   0.67304   0.00000  Uiso   1.00
H503   H     0.20078   0.10987   0.68478   0.00000  Uiso   1.00
H504   H     0.19534   0.39043   0.82562   0.00000  Uiso   1.00
H505   H     0.19871   0.02929   0.68538   0.00000  Uiso   1.00
H506   H     0.19317   0.47097   0.82436   0.00000  Uiso   1.00
H507   H     0.20827   0.31214   0.54131   0.00000  Uiso   1.00
H508   H     0.09519   0.21287   0.95476   0.00000  Uiso   1.00
H509   H     0.20887   0.31000   0.62969   0.00000  Uiso   1.00
H510   H     0.09770   0.21235   0.86678   0.00000  Uiso   1.00
H511   H     0.12448   0.19001   0.61887   0.00000  Uiso   1.00
H512   H     0.23564   0.28760   0.88457   0.00000  Uiso   1.00
H513   H     0.12510   0.18790   0.53067   0.00000  Uiso   1.00
H514   H     0.23814   0.28717   0.97324   0.00000  Uiso   1.00
N515   N     0.16667   0.25001   0.62934   0.00000  Uiso   1.00
N516   N     0.16667   0.24999   0.87065   0.00000  Uiso   1.00
O517   O     0.16667   0.18573   0.79071   0.00000  Uiso   1.00
O518   O     0.16666   0.31428   0.70928   0.00000  Uiso   1.00
O519   O     0.16667   0.18573   0.70928   0.00000  Uiso   1.00
O520   O     0.16666   0.31427   0.79072   0.00000  Uiso   1.00
O521   O     0.09161   0.25000   0.78132   0.00000  Uiso   1.00
O522   O     0.24172   0.25001   0.71868   0.00000  Uiso   1.00
O523   O     0.09161   0.25000   0.69988   0.00000  Uiso   1.00
O524   O     0.24172   0.25000   0.80011   0.00000  Uiso   1.00
O525   O     0.11831   0.02749   0.82334   0.00000  Uiso   1.00
C526   C     0.06716   0.01292   0.80781   0.00000  Uiso   1.00
H527   H     0.05745   0.48830   0.83492   0.00000  Uiso   1.00
H528   H     0.06322   0.49521   0.77244   0.00000  Uiso   1.00
C529   C     0.02836   0.05116   0.80596   0.00000  Uiso   1.00
H530   H     0.03435   0.06938   0.84107   0.00000  Uiso   1.00
H531   H     0.03460   0.07446   0.77630   0.00000  Uiso   1.00
C532   C     0.30606   0.03434   0.79674   0.00000  Uiso   1.00
H533   H     0.29899   0.01631   0.76161   0.00000  Uiso   1.00
H534   H     0.27907   0.06277   0.79514   0.00000  Uiso   1.00
H535   H     0.29806   0.01190   0.82657   0.00000  Uiso   1.00
O536   O     0.12463   0.47227   0.66180   0.00000  Uiso   1.00
C537   C     0.07344   0.48777   0.66095   0.00000  Uiso   1.00
H538   H     0.06509   0.00991   0.62885   0.00000  Uiso   1.00
H539   H     0.06888   0.00847   0.69307   0.00000  Uiso   1.00
C540   C     0.03386   0.44979   0.65545   0.00000  Uiso   1.00
H541   H     0.04001   0.42892   0.62382   0.00000  Uiso   1.00
H542   H     0.03893   0.42886   0.68872   0.00000  Uiso   1.00
C543   C     0.31199   0.46738   0.64784   0.00000  Uiso   1.00
H544   H     0.30500   0.48836   0.67907   0.00000  Uiso   1.00
H545   H     0.28433   0.43924   0.64492   0.00000  Uiso   1.00
H546   H     0.30498   0.48717   0.61381   0.00000  Uiso   1.00
C547   C     0.49967   0.16495   0.75000   0.00000  Uiso   1.00
C548   C     0.49972   0.33508   0.74991   0.00000  Uiso   1.00
C549   C     0.52362   0.28433   0.55698   0.00000  Uiso   1.00
C550   C     0.46053   0.22894   0.94093   0.00000  Uiso   1.00
C551   C     0.52351   0.28352   0.60769   0.00000  Uiso   1.00
C552   C     0.46148   0.22903   0.89033   0.00000  Uiso   1.00
C553   C     0.47651   0.21651   0.60167   0.00000  Uiso   1.00
C554   C     0.53852   0.27095   0.90028   0.00000  Uiso   1.00
C555   C     0.47640   0.21571   0.55093   0.00000  Uiso   1.00
C556   C     0.53947   0.27109   0.95113   0.00000  Uiso   1.00
C557   C     0.50001   0.25002   0.52733   0.00000  Uiso   1.00
C558   C     0.50000   0.25002   0.97265   0.00000  Uiso   1.00
C559   C     0.40123   0.24998   0.73755   0.00000  Uiso   1.00
C560   C     0.59877   0.25000   0.76246   0.00000  Uiso   1.00
C561   C     0.34594   0.24999   0.73068   0.00000  Uiso   1.00
C562   C     0.65406   0.24995   0.76934   0.00000  Uiso   1.00
C563   C     0.47185   0.04829   0.78556   0.00000  Uiso   1.00
C564   C     0.47511   0.45172   0.70577   0.00000  Uiso   1.00
C565   C     0.47616   0.09426   0.78644   0.00000  Uiso   1.00
C566   C     0.47946   0.40578   0.70631   0.00000  Uiso   1.00
C567   C     0.49770   0.11674   0.74987   0.00000  Uiso   1.00
C568   C     0.49781   0.38334   0.74945   0.00000  Uiso   1.00
C569   C     0.51679   0.09299   0.71300   0.00000  Uiso   1.00
C570   C     0.51378   0.40721   0.79208   0.00000  Uiso   1.00
C571   C     0.51509   0.04710   0.71307   0.00000  Uiso   1.00
C572   C     0.51199   0.45309   0.79147   0.00000  Uiso   1.00
C573   C     0.49269   0.02434   0.74905   0.00000  Uiso   1.00
C574   C     0.49265   0.47577   0.74867   0.00000  Uiso   1.00
Cu575  Cu    0.50000   0.25000   0.79821   0.00000  Uiso   1.00
Cu576  Cu    0.50000   0.25001   0.70178   0.00000  Uiso   1.00
H577   H     0.65925   0.25005   0.69361   0.00000  Uiso   1.00
H578   H     0.34075   0.24988   0.80641   0.00000  Uiso   1.00
H579   H     0.46144   0.11241   0.81524   0.00000  Uiso   1.00
H580   H     0.46720   0.38763   0.67304   0.00000  Uiso   1.00
H581   H     0.53412   0.10987   0.68478   0.00000  Uiso   1.00
H582   H     0.52867   0.39043   0.82562   0.00000  Uiso   1.00
H583   H     0.53204   0.02929   0.68538   0.00000  Uiso   1.00
H584   H     0.52650   0.47097   0.82436   0.00000  Uiso   1.00
H585   H     0.54160   0.31214   0.54131   0.00000  Uiso   1.00
H586   H     0.42852   0.21287   0.95476   0.00000  Uiso   1.00
H587   H     0.54221   0.31000   0.62969   0.00000  Uiso   1.00
H588   H     0.43104   0.21235   0.86678   0.00000  Uiso   1.00
H589   H     0.45781   0.19001   0.61887   0.00000  Uiso   1.00
H590   H     0.56897   0.28760   0.88457   0.00000  Uiso   1.00
H591   H     0.45844   0.18790   0.53067   0.00000  Uiso   1.00
H592   H     0.57148   0.28717   0.97324   0.00000  Uiso   1.00
N593   N     0.50000   0.25001   0.62934   0.00000  Uiso   1.00
N594   N     0.50000   0.24999   0.87065   0.00000  Uiso   1.00
O595   O     0.50000   0.18573   0.79071   0.00000  Uiso   1.00
O596   O     0.50000   0.31428   0.70928   0.00000  Uiso   1.00
O597   O     0.50000   0.18573   0.70928   0.00000  Uiso   1.00
O598   O     0.50000   0.31427   0.79072   0.00000  Uiso   1.00
O599   O     0.42495   0.25000   0.78132   0.00000  Uiso   1.00
O600   O     0.57505   0.25001   0.71868   0.00000  Uiso   1.00
O601   O     0.42495   0.25000   0.69988   0.00000  Uiso   1.00
O602   O     0.57505   0.25000   0.80011   0.00000  Uiso   1.00
O603   O     0.45165   0.02749   0.82334   0.00000  Uiso   1.00
C604   C     0.40049   0.01292   0.80781   0.00000  Uiso   1.00
H605   H     0.39079   0.48830   0.83492   0.00000  Uiso   1.00
H606   H     0.39655   0.49521   0.77244   0.00000  Uiso   1.00
C607   C     0.36170   0.05116   0.80596   0.00000  Uiso   1.00
H608   H     0.36769   0.06938   0.84107   0.00000  Uiso   1.00
H609   H     0.36793   0.07446   0.77630   0.00000  Uiso   1.00
C610   C     0.63939   0.03434   0.79674   0.00000  Uiso   1.00
H611   H     0.63232   0.01631   0.76161   0.00000  Uiso   1.00
H612   H     0.61240   0.06277   0.79514   0.00000  Uiso   1.00
H613   H     0.63140   0.01190   0.82657   0.00000  Uiso   1.00
O614   O     0.45796   0.47227   0.66180   0.00000  Uiso   1.00
C615   C     0.40677   0.48777   0.66095   0.00000  Uiso   1.00
H616   H     0.39842   0.00991   0.62885   0.00000  Uiso   1.00
H617   H     0.40222   0.00847   0.69307   0.00000  Uiso   1.00
C618   C     0.36719   0.44979   0.65545   0.00000  Uiso   1.00
H619   H     0.37335   0.42892   0.62382   0.00000  Uiso   1.00
H620   H     0.37226   0.42886   0.68872   0.00000  Uiso   1.00
C621   C     0.64532   0.46738   0.64784   0.00000  Uiso   1.00
H622   H     0.63833   0.48836   0.67907   0.00000  Uiso   1.00
H623   H     0.61766   0.43924   0.64492   0.00000  Uiso   1.00
H624   H     0.63831   0.48717   0.61381   0.00000  Uiso   1.00
C625   C     0.83300   0.16495   0.75000   0.00000  Uiso   1.00
C626   C     0.83305   0.33508   0.74991   0.00000  Uiso   1.00
C627   C     0.85696   0.28433   0.55698   0.00000  Uiso   1.00
C628   C     0.79386   0.22894   0.94093   0.00000  Uiso   1.00
C629   C     0.85684   0.28352   0.60769   0.00000  Uiso   1.00
C630   C     0.79481   0.22903   0.89033   0.00000  Uiso   1.00
C631   C     0.80984   0.21651   0.60167   0.00000  Uiso   1.00
C632   C     0.87186   0.27095   0.90028   0.00000  Uiso   1.00
C633   C     0.80974   0.21571   0.55093   0.00000  Uiso   1.00
C634   C     0.87280   0.27109   0.95113   0.00000  Uiso   1.00
C635   C     0.83334   0.25002   0.52733   0.00000  Uiso   1.00
C636   C     0.83333   0.25002   0.97265   0.00000  Uiso   1.00
C637   C     0.73456   0.24998   0.73755   0.00000  Uiso   1.00
C638   C     0.93211   0.25000   0.76246   0.00000  Uiso   1.00
C639   C     0.67927   0.24999   0.73068   0.00000  Uiso   1.00
C640   C     0.98740   0.24995   0.76934   0.00000  Uiso   1.00
C641   C     0.80518   0.04829   0.78556   0.00000  Uiso   1.00
C642   C     0.80844   0.45172   0.70577   0.00000  Uiso   1.00
C643   C     0.80949   0.09426   0.78644   0.00000  Uiso   1.00
C644   C     0.81280   0.40578   0.70631   0.00000  Uiso   1.00
C645   C     0.83103   0.11674   0.74987   0.00000  Uiso   1.00
C646   C     0.83115   0.38334   0.74945   0.00000  Uiso   1.00
C647   C     0.85013   0.09299   0.71300   0.00000  Uiso   1.00
C648   C     0.84711   0.40721   0.79208   0.00000  Uiso   1.00
C649   C     0.84842   0.04710   0.71307   0.00000  Uiso   1.00
C650   C     0.84533   0.45309   0.79147   0.00000  Uiso   1.00
C651   C     0.82603   0.02434   0.74905   0.00000  Uiso   1.00
C652   C     0.82598   0.47577   0.74867   0.00000  Uiso   1.00
Cu653  Cu    0.83333   0.25000   0.79821   0.00000  Uiso   1.00
Cu654  Cu    0.83333   0.25001   0.70178   0.00000  Uiso   1.00
H655   H     0.99258   0.25005   0.69361   0.00000  Uiso   1.00
H656   H     0.67409   0.24988   0.80641   0.00000  Uiso   1.00
H657   H     0.79478   0.11241   0.81524   0.00000  Uiso   1.00
H658   H     0.80054   0.38763   0.67304   0.00000  Uiso   1.00
H659   H     0.86745   0.10987   0.68478   0.00000  Uiso   1.00
H660   H     0.86200   0.39043   0.82562   0.00000  Uiso   1.00
H661   H     0.86538   0.02929   0.68538   0.00000  Uiso   1.00
H662   H     0.85984   0.47097   0.82436   0.00000  Uiso   1.00
H663   H     0.87494   0.31214   0.54131   0.00000  Uiso   1.00
H664   H     0.76185   0.21287   0.95476   0.00000  Uiso   1.00
H665   H     0.87554   0.31000   0.62969   0.00000  Uiso   1.00
H666   H     0.76437   0.21235   0.86678   0.00000  Uiso   1.00
H667   H     0.79114   0.19001   0.61887   0.00000  Uiso   1.00
H668   H     0.90231   0.28760   0.88457   0.00000  Uiso   1.00
H669   H     0.79177   0.18790   0.53067   0.00000  Uiso   1.00
H670   H     0.90481   0.28717   0.97324   0.00000  Uiso   1.00
N671   N     0.83333   0.25001   0.62934   0.00000  Uiso   1.00
N672   N     0.83333   0.24999   0.87065   0.00000  Uiso   1.00
O673   O     0.83334   0.18573   0.79071   0.00000  Uiso   1.00
O674   O     0.83333   0.31428   0.70928   0.00000  Uiso   1.00
O675   O     0.83334   0.18573   0.70928   0.00000  Uiso   1.00
O676   O     0.83333   0.31427   0.79072   0.00000  Uiso   1.00
O677   O     0.75828   0.25000   0.78132   0.00000  Uiso   1.00
O678   O     0.90839   0.25001   0.71868   0.00000  Uiso   1.00
O679   O     0.75828   0.25000   0.69988   0.00000  Uiso   1.00
O680   O     0.90839   0.25000   0.80011   0.00000  Uiso   1.00
O681   O     0.78498   0.02749   0.82334   0.00000  Uiso   1.00
C682   C     0.73383   0.01292   0.80781   0.00000  Uiso   1.00
H683   H     0.72412   0.48830   0.83492   0.00000  Uiso   1.00
H684   H     0.72989   0.49521   0.77244   0.00000  Uiso   1.00
C685   C     0.69503   0.05116   0.80596   0.00000  Uiso   1.00
H686   H     0.70102   0.06938   0.84107   0.00000  Uiso   1.00
H687   H     0.70126   0.07446   0.77630   0.00000  Uiso   1.00
C688   C     0.97273   0.03434   0.79674   0.00000  Uiso   1.00
H689   H     0.96565   0.01631   0.76161   0.00000  Uiso   1.00
H690   H     0.94573   0.06277   0.79514   0.00000  Uiso   1.00
H691   H     0.96473   0.01190   0.82657   0.00000  Uiso   1.00
O692   O     0.79130   0.47227   0.66180   0.00000  Uiso   1.00
C693   C     0.74011   0.48777   0.66095   0.00000  Uiso   1.00
H694   H     0.73176   0.00991   0.62885   0.00000  Uiso   1.00
H695   H     0.73555   0.00847   0.69307   0.00000  Uiso   1.00
C696   C     0.70052   0.44979   0.65545   0.00000  Uiso   1.00
H697   H     0.70668   0.42892   0.62382   0.00000  Uiso   1.00
H698   H     0.70559   0.42886   0.68872   0.00000  Uiso   1.00
C699   C     0.97865   0.46738   0.64784   0.00000  Uiso   1.00
H700   H     0.97166   0.48836   0.67907   0.00000  Uiso   1.00
H701   H     0.95099   0.43924   0.64492   0.00000  Uiso   1.00
H702   H     0.97165   0.48717   0.61381   0.00000  Uiso   1.00
C703   C     0.16633   0.66495   0.75000   0.00000  Uiso   1.00
C704   C     0.16639   0.83508   0.74991   0.00000  Uiso   1.00
C705   C     0.19029   0.78433   0.55698   0.00000  Uiso   1.00
C706   C     0.12720   0.72894   0.94093   0.00000  Uiso   1.00
C707   C     0.19017   0.78352   0.60769   0.00000  Uiso   1.00
C708   C     0.12815   0.72903   0.89033   0.00000  Uiso   1.00
C709   C     0.14318   0.71651   0.60167   0.00000  Uiso   1.00
C710   C     0.20519   0.77095   0.90028   0.00000  Uiso   1.00
C711   C     0.14307   0.71571   0.55093   0.00000  Uiso   1.00
C712   C     0.20613   0.77109   0.95113   0.00000  Uiso   1.00
C713   C     0.16667   0.75002   0.52733   0.00000  Uiso   1.00
C714   C     0.16667   0.75002   0.97265   0.00000  Uiso   1.00
C715   C     0.06789   0.74998   0.73755   0.00000  Uiso   1.00
C716   C     0.26544   0.75000   0.76246   0.00000  Uiso   1.00
C717   C     0.01261   0.74999   0.73068   0.00000  Uiso   1.00
C718   C     0.32073   0.74995   0.76934   0.00000  Uiso   1.00
C719   C     0.13852   0.54829   0.78556   0.00000  Uiso   1.00
C720   C     0.14178   0.95172   0.70577   0.00000  Uiso   1.00
C721   C     0.14282   0.59426   0.78644   0.00000  Uiso   1.00
C722   C     0.14613   0.90578   0.70631   0.00000  Uiso   1.00
C723   C     0.16437   0.61674   0.74987   0.00000  Uiso   1.00
C724   C     0.16448   0.88334   0.74945   0.00000  Uiso   1.00
C725   C     0.18346   0.59299   0.71300   0.00000  Uiso   1.00
C726   C     0.18044   0.90721   0.79208   0.00000  Uiso   1.00
C727   C     0.18176   0.54710   0.71307   0.00000  Uiso   1.00
C728   C     0.17866   0.95309   0.79147   0.00000  Uiso   1.00
C729   C     0.15936   0.52434   0.74905   0.00000  Uiso   1.00
C730   C     0.15931   0.97577   0.74867   0.00000  Uiso   1.00
Cu731  Cu    0.16667   0.75000   0.79821   0.00000  Uiso   1.00
Cu732  Cu    0.16667   0.75001   0.70178   0.00000  Uiso   1.00
H733   H     0.32592   0.75005   0.69361   0.00000  Uiso   1.00
H734   H     0.00742   0.74988   0.80641   0.00000  Uiso   1.00
H735   H     0.12811   0.61241   0.81524   0.00000  Uiso   1.00
H736   H     0.13387   0.88763   0.67304   0.00000  Uiso   1.00
H737   H     0.20078   0.60987   0.68478   0.00000  Uiso   1.00
H738   H     0.19534   0.89043   0.82562   0.00000  Uiso   1.00
H739   H     0.19871   0.52929   0.68538   0.00000  Uiso   1.00
H740   H     0.19317   0.97097   0.82436   0.00000  Uiso   1.00
H741   H     0.20827   0.81214   0.54131   0.00000  Uiso   1.00
H742   H     0.09519   0.71287   0.95476   0.00000  Uiso   1.00
H743   H     0.20887   0.81000   0.62969   0.00000  Uiso   1.00
H744   H     0.09770   0.71235   0.86678   0.00000  Uiso   1.00
H745   H     0.12448   0.69001   0.61887   0.00000  Uiso   1.00
H746   H     0.23564   0.78760   0.88457   0.00000  Uiso   1.00
H747   H     0.12510   0.68790   0.53067   0.00000  Uiso   1.00
H748   H     0.23814   0.78717   0.97324   0.00000  Uiso   1.00
N749   N     0.16667   0.75001   0.62934   0.00000  Uiso   1.00
N750   N     0.16667   0.74999   0.87065   0.00000  Uiso   1.00
O751   O     0.16667   0.68573   0.79071   0.00000  Uiso   1.00
O752   O     0.16666   0.81428   0.70928   0.00000  Uiso   1.00
O753   O     0.16667   0.68573   0.70928   0.00000  Uiso   1.00
O754   O     0.16666   0.81427   0.79072   0.00000  Uiso   1.00
O755   O     0.09161   0.75000   0.78132   0.00000  Uiso   1.00
O756   O     0.24172   0.75001   0.71868   0.00000  Uiso   1.00
O757   O     0.09161   0.75000   0.69988   0.00000  Uiso   1.00
O758   O     0.24172   0.75000   0.80011   0.00000  Uiso   1.00
O759   O     0.11831   0.52749   0.82334   0.00000  Uiso   1.00
C760   C     0.06716   0.51292   0.80781   0.00000  Uiso   1.00
H761   H     0.05745   0.98830   0.83492   0.00000  Uiso   1.00
H762   H     0.06322   0.99521   0.77244   0.00000  Uiso   1.00
C763   C     0.02836   0.55116   0.80596   0.00000  Uiso   1.00
H764   H     0.03435   0.56938   0.84107   0.00000  Uiso   1.00
H765   H     0.03460   0.57446   0.77630   0.00000  Uiso   1.00
C766   C     0.30606   0.53434   0.79674   0.00000  Uiso   1.00
H767   H     0.29899   0.51631   0.76161   0.00000  Uiso   1.00
H768   H     0.27907   0.56277   0.79514   0.00000  Uiso   1.00
H769   H     0.29806   0.51190   0.82657   0.00000  Uiso   1.00
O770   O     0.12463   0.97227   0.66180   0.00000  Uiso   1.00
C771   C     0.07344   0.98777   0.66095   0.00000  Uiso   1.00
H772   H     0.06509   0.50991   0.62885   0.00000  Uiso   1.00
H773   H     0.06888   0.50847   0.69307   0.00000  Uiso   1.00
C774   C     0.03386   0.94979   0.65545   0.00000  Uiso   1.00
H775   H     0.04001   0.92892   0.62382   0.00000  Uiso   1.00
H776   H     0.03893   0.92886   0.68872   0.00000  Uiso   1.00
C777   C     0.31199   0.96738   0.64784   0.00000  Uiso   1.00
H778   H     0.30500   0.98836   0.67907   0.00000  Uiso   1.00
H779   H     0.28433   0.93924   0.64492   0.00000  Uiso   1.00
H780   H     0.30498   0.98717   0.61381   0.00000  Uiso   1.00
C781   C     0.49967   0.66495   0.75000   0.00000  Uiso   1.00
C782   C     0.49972   0.83508   0.74991   0.00000  Uiso   1.00
C783   C     0.52362   0.78433   0.55698   0.00000  Uiso   1.00
C784   C     0.46053   0.72894   0.94093   0.00000  Uiso   1.00
C785   C     0.52351   0.78352   0.60769   0.00000  Uiso   1.00
C786   C     0.46148   0.72903   0.89033   0.00000  Uiso   1.00
C787   C     0.47651   0.71651   0.60167   0.00000  Uiso   1.00
C788   C     0.53852   0.77095   0.90028   0.00000  Uiso   1.00
C789   C     0.47640   0.71571   0.55093   0.00000  Uiso   1.00
C790   C     0.53947   0.77109   0.95113   0.00000  Uiso   1.00
C791   C     0.50001   0.75002   0.52733   0.00000  Uiso   1.00
C792   C     0.50000   0.75002   0.97265   0.00000  Uiso   1.00
C793   C     0.40123   0.74998   0.73755   0.00000  Uiso   1.00
C794   C     0.59877   0.75000   0.76246   0.00000  Uiso   1.00
C795   C     0.34594   0.74999   0.73068   0.00000  Uiso   1.00
C796   C     0.65406   0.74995   0.76934   0.00000  Uiso   1.00
C797   C     0.47185   0.54829   0.78556   0.00000  Uiso   1.00
C798   C     0.47511   0.95172   0.70577   0.00000  Uiso   1.00
C799   C     0.47616   0.59426   0.78644   0.00000  Uiso   1.00
C800   C     0.47946   0.90578   0.70631   0.00000  Uiso   1.00
C801   C     0.49770   0.61674   0.74987   0.00000  Uiso   1.00
C802   C     0.49781   0.88334   0.74945   0.00000  Uiso   1.00
C803   C     0.51679   0.59299   0.71300   0.00000  Uiso   1.00
C804   C     0.51378   0.90721   0.79208   0.00000  Uiso   1.00
C805   C     0.51509   0.54710   0.71307   0.00000  Uiso   1.00
C806   C     0.51199   0.95309   0.79147   0.00000  Uiso   1.00
C807   C     0.49269   0.52434   0.74905   0.00000  Uiso   1.00
C808   C     0.49265   0.97577   0.74867   0.00000  Uiso   1.00
Cu809  Cu    0.50000   0.75000   0.79821   0.00000  Uiso   1.00
Cu810  Cu    0.50000   0.75001   0.70178   0.00000  Uiso   1.00
H811   H     0.65925   0.75005   0.69361   0.00000  Uiso   1.00
H812   H     0.34075   0.74988   0.80641   0.00000  Uiso   1.00
H813   H     0.46144   0.61241   0.81524   0.00000  Uiso   1.00
H814   H     0.46720   0.88763   0.67304   0.00000  Uiso   1.00
H815   H     0.53412   0.60987   0.68478   0.00000  Uiso   1.00
H816   H     0.52867   0.89043   0.82562   0.00000  Uiso   1.00
H817   H     0.53204   0.52929   0.68538   0.00000  Uiso   1.00
H818   H     0.52650   0.97097   0.82436   0.00000  Uiso   1.00
H819   H     0.54160   0.81214   0.54131   0.00000  Uiso   1.00
H820   H     0.42852   0.71287   0.95476   0.00000  Uiso   1.00
H821   H     0.54221   0.81000   0.62969   0.00000  Uiso   1.00
H822   H     0.43104   0.71235   0.86678   0.00000  Uiso   1.00
H823   H     0.45781   0.69001   0.61887   0.00000  Uiso   1.00
H824   H     0.56897   0.78760   0.88457   0.00000  Uiso   1.00
H825   H     0.45844   0.68790   0.53067   0.00000  Uiso   1.00
H826   H     0.57148   0.78717   0.97324   0.00000  Uiso   1.00
N827   N     0.50000   0.75001   0.62934   0.00000  Uiso   1.00
N828   N     0.50000   0.74999   0.87065   0.00000  Uiso   1.00
O829   O     0.50000   0.68573   0.79071   0.00000  Uiso   1.00
O830   O     0.50000   0.81428   0.70928   0.00000  Uiso   1.00
O831   O     0.50000   0.68573   0.70928   0.00000  Uiso   1.00
O832   O     0.50000   0.81427   0.79072   0.00000  Uiso   1.00
O833   O     0.42495   0.75000   0.78132   0.00000  Uiso   1.00
O834   O     0.57505   0.75001   0.71868   0.00000  Uiso   1.00
O835   O     0.42495   0.75000   0.69988   0.00000  Uiso   1.00
O836   O     0.57505   0.75000   0.80011   0.00000  Uiso   1.00
O837   O     0.45165   0.52749   0.82334   0.00000  Uiso   1.00
C838   C     0.40049   0.51292   0.80781   0.00000  Uiso   1.00
H839   H     0.39079   0.98830   0.83492   0.00000  Uiso   1.00
H840   H     0.39655   0.99521   0.77244   0.00000  Uiso   1.00
C841   C     0.36170   0.55116   0.80596   0.00000  Uiso   1.00
H842   H     0.36769   0.56938   0.84107   0.00000  Uiso   1.00
H843   H     0.36793   0.57446   0.77630   0.00000  Uiso   1.00
C844   C     0.63939   0.53434   0.79674   0.00000  Uiso   1.00
H845   H     0.63232   0.51631   0.76161   0.00000  Uiso   1.00
H846   H     0.61240   0.56277   0.79514   0.00000  Uiso   1.00
H847   H     0.63140   0.51190   0.82657   0.00000  Uiso   1.00
O848   O     0.45796   0.97227   0.66180   0.00000  Uiso   1.00
C849   C     0.40677   0.98777   0.66095   0.00000  Uiso   1.00
H850   H     0.39842   0.50991   0.62885   0.00000  Uiso   1.00
H851   H     0.40222   0.50847   0.69307   0.00000  Uiso   1.00
C852   C     0.36719   0.94979   0.65545   0.00000  Uiso   1.00
H853   H     0.37335   0.92892   0.62382   0.00000  Uiso   1.00
H854   H     0.37226   0.92886   0.68872   0.00000  Uiso   1.00
C855   C     0.64532   0.96738   0.64784   0.00000  Uiso   1.00
H856   H     0.63833   0.98836   0.67907   0.00000  Uiso   1.00
H857   H     0.61766   0.93924   0.64492   0.00000  Uiso   1.00
H858   H     0.63831   0.98717   0.61381   0.00000  Uiso   1.00
C859   C     0.83300   0.66495   0.75000   0.00000  Uiso   1.00
C860   C     0.83305   0.83508   0.74991   0.00000  Uiso   1.00
C861   C     0.85696   0.78433   0.55698   0.00000  Uiso   1.00
C862   C     0.79386   0.72894   0.94093   0.00000  Uiso   1.00
C863   C     0.85684   0.78352   0.60769   0.00000  Uiso   1.00
C864   C     0.79481   0.72903   0.89033   0.00000  Uiso   1.00
C865   C     0.80984   0.71651   0.60167   0.00000  Uiso   1.00
C866   C     0.87186   0.77095   0.90028   0.00000  Uiso   1.00
C867   C     0.80974   0.71571   0.55093   0.00000  Uiso   1.00
C868   C     0.87280   0.77109   0.95113   0.00000  Uiso   1.00
C869   C     0.83334   0.75002   0.52733   0.00000  Uiso   1.00
C870   C     0.83333   0.75002   0.97265   0.00000  Uiso   1.00
C871   C     0.73456   0.74998   0.73755   0.00000  Uiso   1.00
C872   C     0.93211   0.75000   0.76246   0.00000  Uiso   1.00
C873   C     0.67927   0.74999   0.73068   0.00000  Uiso   1.00
C874   C     0.98740   0.74995   0.76934   0.00000  Uiso   1.00
C875   C     0.80518   0.54829   0.78556   0.00000  Uiso   1.00
C876   C     0.80844   0.95172   0.70577   0.00000  Uiso   1.00
C877   C     0.80949   0.59426   0.78644   0.00000  Uiso   1.00
C878   C     0.81280   0.90578   0.70631   0.00000  Uiso   1.00
C879   C     0.83103   0.61674   0.74987   0.00000  Uiso   1.00
C880   C     0.83115   0.88334   0.74945   0.00000  Uiso   1.00
C881   C     0.85013   0.59299   0.71300   0.00000  Uiso   1.00
C882   C     0.84711   0.90721   0.79208   0.00000  Uiso   1.00
C883   C     0.84842   0.54710   0.71307   0.00000  Uiso   1.00
C884   C     0.84533   0.95309   0.79147   0.00000  Uiso   1.00
C885   C     0.82603   0.52434   0.74905   0.00000  Uiso   1.00
C886   C     0.82598   0.97577   0.74867   0.00000  Uiso   1.00
Cu887  Cu    0.83333   0.75000   0.79821   0.00000  Uiso   1.00
Cu888  Cu    0.83333   0.75001   0.70178   0.00000  Uiso   1.00
H889   H     0.99258   0.75005   0.69361   0.00000  Uiso   1.00
H890   H     0.67409   0.74988   0.80641   0.00000  Uiso   1.00
H891   H     0.79478   0.61241   0.81524   0.00000  Uiso   1.00
H892   H     0.80054   0.88763   0.67304   0.00000  Uiso   1.00
H893   H     0.86745   0.60987   0.68478   0.00000  Uiso   1.00
H894   H     0.86200   0.89043   0.82562   0.00000  Uiso   1.00
H895   H     0.86538   0.52929   0.68538   0.00000  Uiso   1.00
H896   H     0.85984   0.97097   0.82436   0.00000  Uiso   1.00
H897   H     0.87494   0.81214   0.54131   0.00000  Uiso   1.00
H898   H     0.76185   0.71287   0.95476   0.00000  Uiso   1.00
H899   H     0.87554   0.81000   0.62969   0.00000  Uiso   1.00
H900   H     0.76437   0.71235   0.86678   0.00000  Uiso   1.00
H901   H     0.79114   0.69001   0.61887   0.00000  Uiso   1.00
H902   H     0.90231   0.78760   0.88457   0.00000  Uiso   1.00
H903   H     0.79177   0.68790   0.53067   0.00000  Uiso   1.00
H904   H     0.90481   0.78717   0.97324   0.00000  Uiso   1.00
N905   N     0.83333   0.75001   0.62934   0.00000  Uiso   1.00
N906   N     0.83333   0.74999   0.87065   0.00000  Uiso   1.00
O907   O     0.83334   0.68573   0.79071   0.00000  Uiso   1.00
O908   O     0.83333   0.81428   0.70928   0.00000  Uiso   1.00
O909   O     0.83334   0.68573   0.70928   0.00000  Uiso   1.00
O910   O     0.83333   0.81427   0.79072   0.00000  Uiso   1.00
O911   O     0.75828   0.75000   0.78132   0.00000  Uiso   1.00
O912   O     0.90839   0.75001   0.71868   0.00000  Uiso   1.00
O913   O     0.75828   0.75000   0.69988   0.00000  Uiso   1.00
O914   O     0.90839   0.75000   0.80011   0.00000  Uiso   1.00
O915   O     0.78498   0.52749   0.82334   0.00000  Uiso   1.00
C916   C     0.73383   0.51292   0.80781   0.00000  Uiso   1.00
H917   H     0.72412   0.98830   0.83492   0.00000  Uiso   1.00
H918   H     0.72989   0.99521   0.77244   0.00000  Uiso   1.00
C919   C     0.69503   0.55116   0.80596   0.00000  Uiso   1.00
H920   H     0.70102   0.56938   0.84107   0.00000  Uiso   1.00
H921   H     0.70126   0.57446   0.77630   0.00000  Uiso   1.00
C922   C     0.97273   0.53434   0.79674   0.00000  Uiso   1.00
H923   H     0.96565   0.51631   0.76161   0.00000  Uiso   1.00
H924   H     0.94573   0.56277   0.79514   0.00000  Uiso   1.00
H925   H     0.96473   0.51190   0.82657   0.00000  Uiso   1.00
O926   O     0.79130   0.97227   0.66180   0.00000  Uiso   1.00
C927   C     0.74011   0.98777   0.66095   0.00000  Uiso   1.00
H928   H     0.73176   0.50991   0.62885   0.00000  Uiso   1.00
H929   H     0.73555   0.50847   0.69307   0.00000  Uiso   1.00
C930   C     0.70052   0.94979   0.65545   0.00000  Uiso   1.00
H931   H     0.70668   0.92892   0.62382   0.00000  Uiso   1.00
H932   H     0.70559   0.92886   0.68872   0.00000  Uiso   1.00
C933   C     0.97865   0.96738   0.64784   0.00000  Uiso   1.00
H934   H     0.97166   0.98836   0.67907   0.00000  Uiso   1.00
H935   H     0.95099   0.93924   0.64492   0.00000  Uiso   1.00
H936   H     0.97165   0.98717   0.61381   0.00000  Uiso   1.00
loop_
_geom_bond_atom_site_label_1
_geom_bond_atom_site_label_2
_geom_bond_distance
_geom_bond_site_symmetry_2
_ccdc_geom_bond_type
C1     C21     1.458   .     S
C1     O51     1.293   .     A
C1     O49     1.292   .     A
C2     O50     1.292   .     A
C2     C22     1.460   .     S
C2     O52     1.293   .     A
C3     H39     1.081   .     S
C3     C5      1.407   .     A
C3     C11     1.411   .     A
C4     H40     1.081   .     S
C4     C12     1.411   .     A
C4     C6      1.407   .     A
C5     N47     1.364   .     A
C5     H41     1.081   .     S
C6     N48     1.364   .     A
C6     H42     1.081   .     S
C7     H43     1.081   .     S
C7     C9      1.407   .     A
C7     N47     1.364   .     A
C8     N48     1.364   .     A
C8     H44     1.081   .     S
C8     C10     1.407   .     A
C9     H45     1.081   .     S
C9     C11     1.411   .     A
C10    C12     1.411   .     A
C10    H46     1.081   .     S
C11    C480    1.517   1_554 S
C12    C479    1.517   .     S
C13    O53     1.285   .     A
C13    C15     1.432   .     S
C13    O55     1.286   .     A
C14    O56     1.286   .     A
C14    C16     1.432   .     S
C14    O54     1.285   .     A
C15    C172    1.334   1_455 S
C15    H187    1.087   1_455 S
C16    C93     1.334   .     S
C16    H110    1.087   .     S
C17    C27     1.416   .     A
C17    C19     1.394   .     A
C17    O57     1.386   .     S
C18    O68     1.386   .     S
C18    C28     1.416   .     A
C18    C20     1.394   .     A
C19    C21     1.401   .     A
C19    H33     1.084   .     S
C20    H34     1.084   .     S
C20    C22     1.401   .     A
C21    C23     1.399   .     A
C22    C24     1.399   .     A
C23    H35     1.083   .     S
C23    C25     1.388   .     A
C24    H36     1.083   .     S
C24    C26     1.388   .     A
C25    H37     1.083   .     S
C25    C27     1.403   .     A
C26    H38     1.083   .     S
C26    C28     1.403   .     A
C27    C262    1.468   1_545 S
C28    C261    1.468   .     S
Cu29   O49     1.954   .     S
Cu29   N48     2.009   .     S
Cu29   Cu30    2.675   .     S
Cu29   O56     1.956   .     S
Cu29   O53     1.953   .     S
Cu29   O52     1.954   .     S
Cu30   O51     1.954   .     S
Cu30   O54     1.953   .     S
Cu30   O50     1.954   .     S
Cu30   N47     2.009   .     S
Cu30   O55     1.956   .     S
H31    C93     1.087   .     S
H32    C172    1.087   1_455 S
O57    C58     1.416   .     S
C58    C61     1.536   .     S
C58    H293    1.111   1_545 S
C58    H294    1.110   1_545 S
H59    C292    1.111   .     S
H60    C292    1.110   .     S
C61    H63     1.111   .     S
C61    H62     1.111   .     S
C61    C220    1.527   1_455 S
C64    H67     1.111   .     S
C64    H66     1.111   .     S
C64    H65     1.110   .     S
C64    C139    1.527   .     S
O68    C69     1.416   .     S
C69    C72     1.537   .     S
C69    H304    1.111   .     S
C69    H305    1.109   .     S
H70    C303    1.111   1_545 S
H71    C303    1.109   1_545 S
C72    H74     1.111   .     S
C72    H73     1.111   .     S
C72    C231    1.526   1_455 S
C75    H76     1.110   .     S
C75    H78     1.111   .     S
C75    H77     1.111   .     S
C75    C150    1.526   .     S
C79    C99     1.458   .     S
C79    O129    1.293   .     A
C79    O127    1.292   .     A
C80    O128    1.292   .     A
C80    C100    1.460   .     S
C80    O130    1.293   .     A
C81    H117    1.081   .     S
C81    C83     1.407   .     A
C81    C89     1.411   .     A
C82    H118    1.081   .     S
C82    C90     1.411   .     A
C82    C84     1.407   .     A
C83    N125    1.364   .     A
C83    H119    1.081   .     S
C84    N126    1.364   .     A
C84    H120    1.081   .     S
C85    H121    1.081   .     S
C85    C87     1.407   .     A
C85    N125    1.364   .     A
C86    N126    1.364   .     A
C86    H122    1.081   .     S
C86    C88     1.407   .     A
C87    H123    1.081   .     S
C87    C89     1.411   .     A
C88    C90     1.411   .     A
C88    H124    1.081   .     S
C89    C558    1.517   1_554 S
C90    C557    1.517   .     S
C91    O131    1.285   .     A
C91    C93     1.432   .     S
C91    O133    1.286   .     A
C92    O134    1.286   .     A
C92    C94     1.432   .     S
C92    O132    1.285   .     A
C94    C171    1.334   .     S
C94    H188    1.087   .     S
C95    C105    1.416   .     A
C95    C97     1.394   .     A
C95    O135    1.386   .     S
C96    O146    1.386   .     S
C96    C106    1.416   .     A
C96    C98     1.394   .     A
C97    C99     1.401   .     A
C97    H111    1.084   .     S
C98    H112    1.084   .     S
C98    C100    1.401   .     A
C99    C101    1.399   .     A
C100   C102    1.399   .     A
C101   H113    1.083   .     S
C101   C103    1.388   .     A
C102   H114    1.083   .     S
C102   C104    1.388   .     A
C103   H115    1.083   .     S
C103   C105    1.403   .     A
C104   H116    1.083   .     S
C104   C106    1.403   .     A
C105   C340    1.468   1_545 S
C106   C339    1.468   .     S
Cu107  O127    1.954   .     S
Cu107  N126    2.009   .     S
Cu107  Cu108   2.675   .     S
Cu107  O134    1.956   .     S
Cu107  O131    1.953   .     S
Cu107  O130    1.954   .     S
Cu108  O129    1.954   .     S
Cu108  O132    1.953   .     S
Cu108  O128    1.954   .     S
Cu108  N125    2.009   .     S
Cu108  O133    1.956   .     S
H109   C171    1.087   .     S
O135   C136    1.416   .     S
C136   C139    1.536   .     S
C136   H371    1.111   1_545 S
C136   H372    1.110   1_545 S
H137   C370    1.111   .     S
H138   C370    1.110   .     S
C139   H141    1.111   .     S
C139   H140    1.111   .     S
C142   H145    1.111   .     S
C142   H144    1.111   .     S
C142   H143    1.110   .     S
C142   C217    1.527   .     S
O146   C147    1.416   .     S
C147   C150    1.537   .     S
C147   H382    1.111   .     S
C147   H383    1.109   .     S
H148   C381    1.111   1_545 S
H149   C381    1.109   1_545 S
C150   H152    1.111   .     S
C150   H151    1.111   .     S
C153   H154    1.110   .     S
C153   H156    1.111   .     S
C153   H155    1.111   .     S
C153   C228    1.526   .     S
C157   C177    1.458   .     S
C157   O207    1.293   .     A
C157   O205    1.292   .     A
C158   O206    1.292   .     A
C158   C178    1.460   .     S
C158   O208    1.293   .     A
C159   H195    1.081   .     S
C159   C161    1.407   .     A
C159   C167    1.411   .     A
C160   H196    1.081   .     S
C160   C168    1.411   .     A
C160   C162    1.407   .     A
C161   N203    1.364   .     A
C161   H197    1.081   .     S
C162   N204    1.364   .     A
C162   H198    1.081   .     S
C163   H199    1.081   .     S
C163   C165    1.407   .     A
C163   N203    1.364   .     A
C164   N204    1.364   .     A
C164   H200    1.081   .     S
C164   C166    1.407   .     A
C165   H201    1.081   .     S
C165   C167    1.411   .     A
C166   C168    1.411   .     A
C166   H202    1.081   .     S
C167   C636    1.517   1_554 S
C168   C635    1.517   .     S
C169   O209    1.285   .     A
C169   C171    1.432   .     S
C169   O211    1.286   .     A
C170   O212    1.286   .     A
C170   C172    1.432   .     S
C170   O210    1.285   .     A
C172   C15     1.334   1_655 S
C172   H32     1.087   1_655 S
C173   C183    1.416   .     A
C173   C175    1.394   .     A
C173   O213    1.386   .     S
C174   O224    1.386   .     S
C174   C184    1.416   .     A
C174   C176    1.394   .     A
C175   C177    1.401   .     A
C175   H189    1.084   .     S
C176   H190    1.084   .     S
C176   C178    1.401   .     A
C177   C179    1.399   .     A
C178   C180    1.399   .     A
C179   H191    1.083   .     S
C179   C181    1.388   .     A
C180   H192    1.083   .     S
C180   C182    1.388   .     A
C181   H193    1.083   .     S
C181   C183    1.403   .     A
C182   H194    1.083   .     S
C182   C184    1.403   .     A
C183   C418    1.468   1_545 S
C184   C417    1.468   .     S
Cu185  O205    1.954   .     S
Cu185  N204    2.009   .     S
Cu185  Cu186   2.675   .     S
Cu185  O212    1.956   .     S
Cu185  O209    1.953   .     S
Cu185  O208    1.954   .     S
Cu186  O207    1.954   .     S
Cu186  O210    1.953   .     S
Cu186  O206    1.954   .     S
Cu186  N203    2.009   .     S
Cu186  O211    1.956   .     S
H187   C15     1.087   1_655 S
O213   C214    1.416   .     S
C214   C217    1.536   .     S
C214   H449    1.111   1_545 S
C214   H450    1.110   1_545 S
H215   C448    1.111   .     S
H216   C448    1.110   .     S
C217   H219    1.111   .     S
C217   H218    1.111   .     S
C220   H223    1.111   .     S
C220   H222    1.111   .     S
C220   H221    1.110   .     S
C220   C61     1.527   1_655 S
O224   C225    1.416   .     S
C225   C228    1.537   .     S
C225   H460    1.111   .     S
C225   H461    1.109   .     S
H226   C459    1.111   1_545 S
H227   C459    1.109   1_545 S
C228   H230    1.111   .     S
C228   H229    1.111   .     S
C231   H232    1.110   .     S
C231   H234    1.111   .     S
C231   H233    1.111   .     S
C231   C72     1.526   1_655 S
C235   C255    1.458   .     S
C235   O285    1.293   .     A
C235   O283    1.292   .     A
C236   O284    1.292   .     A
C236   C256    1.460   .     S
C236   O286    1.293   .     A
C237   H273    1.081   .     S
C237   C239    1.407   .     A
C237   C245    1.411   .     A
C238   H274    1.081   .     S
C238   C246    1.411   .     A
C238   C240    1.407   .     A
C239   N281    1.364   .     A
C239   H275    1.081   .     S
C240   N282    1.364   .     A
C240   H276    1.081   .     S
C241   H277    1.081   .     S
C241   C243    1.407   .     A
C241   N281    1.364   .     A
C242   N282    1.364   .     A
C242   H278    1.081   .     S
C242   C244    1.407   .     A
C243   H279    1.081   .     S
C243   C245    1.411   .     A
C244   C246    1.411   .     A
C244   H280    1.081   .     S
C245   C714    1.517   1_554 S
C246   C713    1.517   .     S
C247   O287    1.285   .     A
C247   C249    1.432   .     S
C247   O289    1.286   .     A
C248   O290    1.286   .     A
C248   C250    1.432   .     S
C248   O288    1.285   .     A
C249   C406    1.334   1_455 S
C249   H421    1.087   1_455 S
C250   C327    1.334   .     S
C250   H344    1.087   .     S
C251   C261    1.416   .     A
C251   C253    1.394   .     A
C251   O291    1.386   .     S
C252   O302    1.386   .     S
C252   C262    1.416   .     A
C252   C254    1.394   .     A
C253   C255    1.401   .     A
C253   H267    1.084   .     S
C254   H268    1.084   .     S
C254   C256    1.401   .     A
C255   C257    1.399   .     A
C256   C258    1.399   .     A
C257   H269    1.083   .     S
C257   C259    1.388   .     A
C258   H270    1.083   .     S
C258   C260    1.388   .     A
C259   H271    1.083   .     S
C259   C261    1.403   .     A
C260   H272    1.083   .     S
C260   C262    1.403   .     A
C262   C27     1.468   1_565 S
Cu263  O283    1.954   .     S
Cu263  N282    2.009   .     S
Cu263  Cu264   2.675   .     S
Cu263  O290    1.956   .     S
Cu263  O287    1.953   .     S
Cu263  O286    1.954   .     S
Cu264  O285    1.954   .     S
Cu264  O288    1.953   .     S
Cu264  O284    1.954   .     S
Cu264  N281    2.009   .     S
Cu264  O289    1.956   .     S
H265   C327    1.087   .     S
H266   C406    1.087   1_455 S
O291   C292    1.416   .     S
C292   C295    1.536   .     S
H293   C58     1.111   1_565 S
H294   C58     1.110   1_565 S
C295   H297    1.111   .     S
C295   H296    1.111   .     S
C295   C454    1.527   1_455 S
C298   H301    1.111   .     S
C298   H300    1.111   .     S
C298   H299    1.110   .     S
C298   C373    1.527   .     S
O302   C303    1.416   .     S
C303   C306    1.537   .     S
C303   H70     1.111   1_565 S
C303   H71     1.109   1_565 S
C306   H308    1.111   .     S
C306   H307    1.111   .     S
C306   C465    1.526   1_455 S
C309   H310    1.110   .     S
C309   H312    1.111   .     S
C309   H311    1.111   .     S
C309   C384    1.526   .     S
C313   C333    1.458   .     S
C313   O363    1.293   .     A
C313   O361    1.292   .     A
C314   O362    1.292   .     A
C314   C334    1.460   .     S
C314   O364    1.293   .     A
C315   H351    1.081   .     S
C315   C317    1.407   .     A
C315   C323    1.411   .     A
C316   H352    1.081   .     S
C316   C324    1.411   .     A
C316   C318    1.407   .     A
C317   N359    1.364   .     A
C317   H353    1.081   .     S
C318   N360    1.364   .     A
C318   H354    1.081   .     S
C319   H355    1.081   .     S
C319   C321    1.407   .     A
C319   N359    1.364   .     A
C320   N360    1.364   .     A
C320   H356    1.081   .     S
C320   C322    1.407   .     A
C321   H357    1.081   .     S
C321   C323    1.411   .     A
C322   C324    1.411   .     A
C322   H358    1.081   .     S
C323   C792    1.517   1_554 S
C324   C791    1.517   .     S
C325   O365    1.285   .     A
C325   C327    1.432   .     S
C325   O367    1.286   .     A
C326   O368    1.286   .     A
C326   C328    1.432   .     S
C326   O366    1.285   .     A
C328   C405    1.334   .     S
C328   H422    1.087   .     S
C329   C339    1.416   .     A
C329   C331    1.394   .     A
C329   O369    1.386   .     S
C330   O380    1.386   .     S
C330   C340    1.416   .     A
C330   C332    1.394   .     A
C331   C333    1.401   .     A
C331   H345    1.084   .     S
C332   H346    1.084   .     S
C332   C334    1.401   .     A
C333   C335    1.399   .     A
C334   C336    1.399   .     A
C335   H347    1.083   .     S
C335   C337    1.388   .     A
C336   H348    1.083   .     S
C336   C338    1.388   .     A
C337   H349    1.083   .     S
C337   C339    1.403   .     A
C338   H350    1.083   .     S
C338   C340    1.403   .     A
C340   C105    1.468   1_565 S
Cu341  O361    1.954   .     S
Cu341  N360    2.009   .     S
Cu341  Cu342   2.675   .     S
Cu341  O368    1.956   .     S
Cu341  O365    1.953   .     S
Cu341  O364    1.954   .     S
Cu342  O363    1.954   .     S
Cu342  O366    1.953   .     S
Cu342  O362    1.954   .     S
Cu342  N359    2.009   .     S
Cu342  O367    1.956   .     S
H343   C405    1.087   .     S
O369   C370    1.416   .     S
C370   C373    1.536   .     S
H371   C136    1.111   1_565 S
H372   C136    1.110   1_565 S
C373   H375    1.111   .     S
C373   H374    1.111   .     S
C376   H379    1.111   .     S
C376   H378    1.111   .     S
C376   H377    1.110   .     S
C376   C451    1.527   .     S
O380   C381    1.416   .     S
C381   C384    1.537   .     S
C381   H148    1.111   1_565 S
C381   H149    1.109   1_565 S
C384   H386    1.111   .     S
C384   H385    1.111   .     S
C387   H388    1.110   .     S
C387   H390    1.111   .     S
C387   H389    1.111   .     S
C387   C462    1.526   .     S
C391   C411    1.458   .     S
C391   O441    1.293   .     A
C391   O439    1.292   .     A
C392   O440    1.292   .     A
C392   C412    1.460   .     S
C392   O442    1.293   .     A
C393   H429    1.081   .     S
C393   C395    1.407   .     A
C393   C401    1.411   .     A
C394   H430    1.081   .     S
C394   C402    1.411   .     A
C394   C396    1.407   .     A
C395   N437    1.364   .     A
C395   H431    1.081   .     S
C396   N438    1.364   .     A
C396   H432    1.081   .     S
C397   H433    1.081   .     S
C397   C399    1.407   .     A
C397   N437    1.364   .     A
C398   N438    1.364   .     A
C398   H434    1.081   .     S
C398   C400    1.407   .     A
C399   H435    1.081   .     S
C399   C401    1.411   .     A
C400   C402    1.411   .     A
C400   H436    1.081   .     S
C401   C870    1.517   1_554 S
C402   C869    1.517   .     S
C403   O443    1.285   .     A
C403   C405    1.432   .     S
C403   O445    1.286   .     A
C404   O446    1.286   .     A
C404   C406    1.432   .     S
C404   O444    1.285   .     A
C406   C249    1.334   1_655 S
C406   H266    1.087   1_655 S
C407   C417    1.416   .     A
C407   C409    1.394   .     A
C407   O447    1.386   .     S
C408   O458    1.386   .     S
C408   C418    1.416   .     A
C408   C410    1.394   .     A
C409   C411    1.401   .     A
C409   H423    1.084   .     S
C410   H424    1.084   .     S
C410   C412    1.401   .     A
C411   C413    1.399   .     A
C412   C414    1.399   .     A
C413   H425    1.083   .     S
C413   C415    1.388   .     A
C414   H426    1.083   .     S
C414   C416    1.388   .     A
C415   H427    1.083   .     S
C415   C417    1.403   .     A
C416   H428    1.083   .     S
C416   C418    1.403   .     A
C418   C183    1.468   1_565 S
Cu419  O439    1.954   .     S
Cu419  N438    2.009   .     S
Cu419  Cu420   2.675   .     S
Cu419  O446    1.956   .     S
Cu419  O443    1.953   .     S
Cu419  O442    1.954   .     S
Cu420  O441    1.954   .     S
Cu420  O444    1.953   .     S
Cu420  O440    1.954   .     S
Cu420  N437    2.009   .     S
Cu420  O445    1.956   .     S
H421   C249    1.087   1_655 S
O447   C448    1.416   .     S
C448   C451    1.536   .     S
H449   C214    1.111   1_565 S
H450   C214    1.110   1_565 S
C451   H453    1.111   .     S
C451   H452    1.111   .     S
C454   H457    1.111   .     S
C454   H456    1.111   .     S
C454   H455    1.110   .     S
C454   C295    1.527   1_655 S
O458   C459    1.416   .     S
C459   C462    1.537   .     S
C459   H226    1.111   1_565 S
C459   H227    1.109   1_565 S
C462   H464    1.111   .     S
C462   H463    1.111   .     S
C465   H466    1.110   .     S
C465   H468    1.111   .     S
C465   H467    1.111   .     S
C465   C306    1.526   1_655 S
C469   C489    1.458   .     S
C469   O519    1.293   .     A
C469   O517    1.292   .     A
C470   O518    1.292   .     A
C470   C490    1.460   .     S
C470   O520    1.293   .     A
C471   H507    1.081   .     S
C471   C473    1.407   .     A
C471   C479    1.411   .     A
C472   H508    1.081   .     S
C472   C480    1.411   .     A
C472   C474    1.407   .     A
C473   N515    1.364   .     A
C473   H509    1.081   .     S
C474   N516    1.364   .     A
C474   H510    1.081   .     S
C475   H511    1.081   .     S
C475   C477    1.407   .     A
C475   N515    1.364   .     A
C476   N516    1.364   .     A
C476   H512    1.081   .     S
C476   C478    1.407   .     A
C477   H513    1.081   .     S
C477   C479    1.411   .     A
C478   C480    1.411   .     A
C478   H514    1.081   .     S
C480   C11     1.517   1_556 S
C481   O521    1.285   .     A
C481   C483    1.432   .     S
C481   O523    1.286   .     A
C482   O524    1.286   .     A
C482   C484    1.432   .     S
C482   O522    1.285   .     A
C483   C640    1.334   1_455 S
C483   H655    1.087   1_455 S
C484   C561    1.334   .     S
C484   H578    1.087   .     S
C485   C495    1.416   .     A
C485   C487    1.394   .     A
C485   O525    1.386   .     S
C486   O536    1.386   .     S
C486   C496    1.416   .     A
C486   C488    1.394   .     A
C487   C489    1.401   .     A
C487   H501    1.084   .     S
C488   H502    1.084   .     S
C488   C490    1.401   .     A
C489   C491    1.399   .     A
C490   C492    1.399   .     A
C491   H503    1.083   .     S
C491   C493    1.388   .     A
C492   H504    1.083   .     S
C492   C494    1.388   .     A
C493   H505    1.083   .     S
C493   C495    1.403   .     A
C494   H506    1.083   .     S
C494   C496    1.403   .     A
C495   C730    1.468   1_545 S
C496   C729    1.468   .     S
Cu497  O517    1.954   .     S
Cu497  N516    2.009   .     S
Cu497  Cu498   2.675   .     S
Cu497  O524    1.956   .     S
Cu497  O521    1.953   .     S
Cu497  O520    1.954   .     S
Cu498  O519    1.954   .     S
Cu498  O522    1.953   .     S
Cu498  O518    1.954   .     S
Cu498  N515    2.009   .     S
Cu498  O523    1.956   .     S
H499   C561    1.087   .     S
H500   C640    1.087   1_455 S
O525   C526    1.416   .     S
C526   C529    1.536   .     S
C526   H761    1.111   1_545 S
C526   H762    1.110   1_545 S
H527   C760    1.111   .     S
H528   C760    1.110   .     S
C529   H531    1.111   .     S
C529   H530    1.111   .     S
C529   C688    1.527   1_455 S
C532   H535    1.111   .     S
C532   H534    1.111   .     S
C532   H533    1.110   .     S
C532   C607    1.527   .     S
O536   C537    1.416   .     S
C537   C540    1.537   .     S
C537   H772    1.111   .     S
C537   H773    1.109   .     S
H538   C771    1.111   1_545 S
H539   C771    1.109   1_545 S
C540   H542    1.111   .     S
C540   H541    1.111   .     S
C540   C699    1.526   1_455 S
C543   H544    1.110   .     S
C543   H546    1.111   .     S
C543   H545    1.111   .     S
C543   C618    1.526   .     S
C547   C567    1.458   .     S
C547   O597    1.293   .     A
C547   O595    1.292   .     A
C548   O596    1.292   .     A
C548   C568    1.460   .     S
C548   O598    1.293   .     A
C549   H585    1.081   .     S
C549   C551    1.407   .     A
C549   C557    1.411   .     A
C550   H586    1.081   .     S
C550   C558    1.411   .     A
C550   C552    1.407   .     A
C551   N593    1.364   .     A
C551   H587    1.081   .     S
C552   N594    1.364   .     A
C552   H588    1.081   .     S
C553   H589    1.081   .     S
C553   C555    1.407   .     A
C553   N593    1.364   .     A
C554   N594    1.364   .     A
C554   H590    1.081   .     S
C554   C556    1.407   .     A
C555   H591    1.081   .     S
C555   C557    1.411   .     A
C556   C558    1.411   .     A
C556   H592    1.081   .     S
C558   C89     1.517   1_556 S
C559   O599    1.285   .     A
C559   C561    1.432   .     S
C559   O601    1.286   .     A
C560   O602    1.286   .     A
C560   C562    1.432   .     S
C560   O600    1.285   .     A
C562   C639    1.334   .     S
C562   H656    1.087   .     S
C563   C573    1.416   .     A
C563   C565    1.394   .     A
C563   O603    1.386   .     S
C564   O614    1.386   .     S
C564   C574    1.416   .     A
C564   C566    1.394   .     A
C565   C567    1.401   .     A
C565   H579    1.084   .     S
C566   H580    1.084   .     S
C566   C568    1.401   .     A
C567   C569    1.399   .     A
C568   C570    1.399   .     A
C569   H581    1.083   .     S
C569   C571    1.388   .     A
C570   H582    1.083   .     S
C570   C572    1.388   .     A
C571   H583    1.083   .     S
C571   C573    1.403   .     A
C572   H584    1.083   .     S
C572   C574    1.403   .     A
C573   C808    1.468   1_545 S
C574   C807    1.468   .     S
Cu575  O595    1.954   .     S
Cu575  N594    2.009   .     S
Cu575  Cu576   2.675   .     S
Cu575  O602    1.956   .     S
Cu575  O599    1.953   .     S
Cu575  O598    1.954   .     S
Cu576  O597    1.954   .     S
Cu576  O600    1.953   .     S
Cu576  O596    1.954   .     S
Cu576  N593    2.009   .     S
Cu576  O601    1.956   .     S
H577   C639    1.087   .     S
O603   C604    1.416   .     S
C604   C607    1.536   .     S
C604   H839    1.111   1_545 S
C604   H840    1.110   1_545 S
H605   C838    1.111   .     S
H606   C838    1.110   .     S
C607   H609    1.111   .     S
C607   H608    1.111   .     S
C610   H613    1.111   .     S
C610   H612    1.111   .     S
C610   H611    1.110   .     S
C610   C685    1.527   .     S
O614   C615    1.416   .     S
C615   C618    1.537   .     S
C615   H850    1.111   .     S
C615   H851    1.109   .     S
H616   C849    1.111   1_545 S
H617   C849    1.109   1_545 S
C618   H620    1.111   .     S
C618   H619    1.111   .     S
C621   H622    1.110   .     S
C621   H624    1.111   .     S
C621   H623    1.111   .     S
C621   C696    1.526   .     S
C625   C645    1.458   .     S
C625   O675    1.293   .     A
C625   O673    1.292   .     A
C626   O674    1.292   .     A
C626   C646    1.460   .     S
C626   O676    1.293   .     A
C627   H663    1.081   .     S
C627   C629    1.407   .     A
C627   C635    1.411   .     A
C628   H664    1.081   .     S
C628   C636    1.411   .     A
C628   C630    1.407   .     A
C629   N671    1.364   .     A
C629   H665    1.081   .     S
C630   N672    1.364   .     A
C630   H666    1.081   .     S
C631   H667    1.081   .     S
C631   C633    1.407   .     A
C631   N671    1.364   .     A
C632   N672    1.364   .     A
C632   H668    1.081   .     S
C632   C634    1.407   .     A
C633   H669    1.081   .     S
C633   C635    1.411   .     A
C634   C636    1.411   .     A
C634   H670    1.081   .     S
C636   C167    1.517   1_556 S
C637   O677    1.285   .     A
C637   C639    1.432   .     S
C637   O679    1.286   .     A
C638   O680    1.286   .     A
C638   C640    1.432   .     S
C638   O678    1.285   .     A
C640   C483    1.334   1_655 S
C640   H500    1.087   1_655 S
C641   C651    1.416   .     A
C641   C643    1.394   .     A
C641   O681    1.386   .     S
C642   O692    1.386   .     S
C642   C652    1.416   .     A
C642   C644    1.394   .     A
C643   C645    1.401   .     A
C643   H657    1.084   .     S
C644   H658    1.084   .     S
C644   C646    1.401   .     A
C645   C647    1.399   .     A
C646   C648    1.399   .     A
C647   H659    1.083   .     S
C647   C649    1.388   .     A
C648   H660    1.083   .     S
C648   C650    1.388   .     A
C649   H661    1.083   .     S
C649   C651    1.403   .     A
C650   H662    1.083   .     S
C650   C652    1.403   .     A
C651   C886    1.468   1_545 S
C652   C885    1.468   .     S
Cu653  O673    1.954   .     S
Cu653  N672    2.009   .     S
Cu653  Cu654   2.675   .     S
Cu653  O680    1.956   .     S
Cu653  O677    1.953   .     S
Cu653  O676    1.954   .     S
Cu654  O675    1.954   .     S
Cu654  O678    1.953   .     S
Cu654  O674    1.954   .     S
Cu654  N671    2.009   .     S
Cu654  O679    1.956   .     S
H655   C483    1.087   1_655 S
O681   C682    1.416   .     S
C682   C685    1.536   .     S
C682   H917    1.111   1_545 S
C682   H918    1.110   1_545 S
H683   C916    1.111   .     S
H684   C916    1.110   .     S
C685   H687    1.111   .     S
C685   H686    1.111   .     S
C688   H691    1.111   .     S
C688   H690    1.111   .     S
C688   H689    1.110   .     S
C688   C529    1.527   1_655 S
O692   C693    1.416   .     S
C693   C696    1.537   .     S
C693   H928    1.111   .     S
C693   H929    1.109   .     S
H694   C927    1.111   1_545 S
H695   C927    1.109   1_545 S
C696   H698    1.111   .     S
C696   H697    1.111   .     S
C699   H700    1.110   .     S
C699   H702    1.111   .     S
C699   H701    1.111   .     S
C699   C540    1.526   1_655 S
C703   C723    1.458   .     S
C703   O753    1.293   .     A
C703   O751    1.292   .     A
C704   O752    1.292   .     A
C704   C724    1.460   .     S
C704   O754    1.293   .     A
C705   H741    1.081   .     S
C705   C707    1.407   .     A
C705   C713    1.411   .     A
C706   H742    1.081   .     S
C706   C714    1.411   .     A
C706   C708    1.407   .     A
C707   N749    1.364   .     A
C707   H743    1.081   .     S
C708   N750    1.364   .     A
C708   H744    1.081   .     S
C709   H745    1.081   .     S
C709   C711    1.407   .     A
C709   N749    1.364   .     A
C710   N750    1.364   .     A
C710   H746    1.081   .     S
C710   C712    1.407   .     A
C711   H747    1.081   .     S
C711   C713    1.411   .     A
C712   C714    1.411   .     A
C712   H748    1.081   .     S
C714   C245    1.517   1_556 S
C715   O755    1.285   .     A
C715   C717    1.432   .     S
C715   O757    1.286   .     A
C716   O758    1.286   .     A
C716   C718    1.432   .     S
C716   O756    1.285   .     A
C717   C874    1.334   1_455 S
C717   H889    1.087   1_455 S
C718   C795    1.334   .     S
C718   H812    1.087   .     S
C719   C729    1.416   .     A
C719   C721    1.394   .     A
C719   O759    1.386   .     S
C720   O770    1.386   .     S
C720   C730    1.416   .     A
C720   C722    1.394   .     A
C721   C723    1.401   .     A
C721   H735    1.084   .     S
C722   H736    1.084   .     S
C722   C724    1.401   .     A
C723   C725    1.399   .     A
C724   C726    1.399   .     A
C725   H737    1.083   .     S
C725   C727    1.388   .     A
C726   H738    1.083   .     S
C726   C728    1.388   .     A
C727   H739    1.083   .     S
C727   C729    1.403   .     A
C728   H740    1.083   .     S
C728   C730    1.403   .     A
C730   C495    1.468   1_565 S
Cu731  O751    1.954   .     S
Cu731  N750    2.009   .     S
Cu731  Cu732   2.675   .     S
Cu731  O758    1.956   .     S
Cu731  O755    1.953   .     S
Cu731  O754    1.954   .     S
Cu732  O753    1.954   .     S
Cu732  O756    1.953   .     S
Cu732  O752    1.954   .     S
Cu732  N749    2.009   .     S
Cu732  O757    1.956   .     S
H733   C795    1.087   .     S
H734   C874    1.087   1_455 S
O759   C760    1.416   .     S
C760   C763    1.536   .     S
H761   C526    1.111   1_565 S
H762   C526    1.110   1_565 S
C763   H765    1.111   .     S
C763   H764    1.111   .     S
C763   C922    1.527   1_455 S
C766   H769    1.111   .     S
C766   H768    1.111   .     S
C766   H767    1.110   .     S
C766   C841    1.527   .     S
O770   C771    1.416   .     S
C771   C774    1.537   .     S
C771   H538    1.111   1_565 S
C771   H539    1.109   1_565 S
C774   H776    1.111   .     S
C774   H775    1.111   .     S
C774   C933    1.526   1_455 S
C777   H778    1.110   .     S
C777   H780    1.111   .     S
C777   H779    1.111   .     S
C777   C852    1.526   .     S
C781   C801    1.458   .     S
C781   O831    1.293   .     A
C781   O829    1.292   .     A
C782   O830    1.292   .     A
C782   C802    1.460   .     S
C782   O832    1.293   .     A
C783   H819    1.081   .     S
C783   C785    1.407   .     A
C783   C791    1.411   .     A
C784   H820    1.081   .     S
C784   C792    1.411   .     A
C784   C786    1.407   .     A
C785   N827    1.364   .     A
C785   H821    1.081   .     S
C786   N828    1.364   .     A
C786   H822    1.081   .     S
C787   H823    1.081   .     S
C787   C789    1.407   .     A
C787   N827    1.364   .     A
C788   N828    1.364   .     A
C788   H824    1.081   .     S
C788   C790    1.407   .     A
C789   H825    1.081   .     S
C789   C791    1.411   .     A
C790   C792    1.411   .     A
C790   H826    1.081   .     S
C792   C323    1.517   1_556 S
C793   O833    1.285   .     A
C793   C795    1.432   .     S
C793   O835    1.286   .     A
C794   O836    1.286   .     A
C794   C796    1.432   .     S
C794   O834    1.285   .     A
C796   C873    1.334   .     S
C796   H890    1.087   .     S
C797   C807    1.416   .     A
C797   C799    1.394   .     A
C797   O837    1.386   .     S
C798   O848    1.386   .     S
C798   C808    1.416   .     A
C798   C800    1.394   .     A
C799   C801    1.401   .     A
C799   H813    1.084   .     S
C800   H814    1.084   .     S
C800   C802    1.401   .     A
C801   C803    1.399   .     A
C802   C804    1.399   .     A
C803   H815    1.083   .     S
C803   C805    1.388   .     A
C804   H816    1.083   .     S
C804   C806    1.388   .     A
C805   H817    1.083   .     S
C805   C807    1.403   .     A
C806   H818    1.083   .     S
C806   C808    1.403   .     A
C808   C573    1.468   1_565 S
Cu809  O829    1.954   .     S
Cu809  N828    2.009   .     S
Cu809  Cu810   2.675   .     S
Cu809  O836    1.956   .     S
Cu809  O833    1.953   .     S
Cu809  O832    1.954   .     S
Cu810  O831    1.954   .     S
Cu810  O834    1.953   .     S
Cu810  O830    1.954   .     S
Cu810  N827    2.009   .     S
Cu810  O835    1.956   .     S
H811   C873    1.087   .     S
O837   C838    1.416   .     S
C838   C841    1.536   .     S
H839   C604    1.111   1_565 S
H840   C604    1.110   1_565 S
C841   H843    1.111   .     S
C841   H842    1.111   .     S
C844   H847    1.111   .     S
C844   H846    1.111   .     S
C844   H845    1.110   .     S
C844   C919    1.527   .     S
O848   C849    1.416   .     S
C849   C852    1.537   .     S
C849   H616    1.111   1_565 S
C849   H617    1.109   1_565 S
C852   H854    1.111   .     S
C852   H853    1.111   .     S
C855   H856    1.110   .     S
C855   H858    1.111   .     S
C855   H857    1.111   .     S
C855   C930    1.526   .     S
C859   C879    1.458   .     S
C859   O909    1.293   .     A
C859   O907    1.292   .     A
C860   O908    1.292   .     A
C860   C880    1.460   .     S
C860   O910    1.293   .     A
C861   H897    1.081   .     S
C861   C863    1.407   .     A
C861   C869    1.411   .     A
C862   H898    1.081   .     S
C862   C870    1.411   .     A
C862   C864    1.407   .     A
C863   N905    1.364   .     A
C863   H899    1.081   .     S
C864   N906    1.364   .     A
C864   H900    1.081   .     S
C865   H901    1.081   .     S
C865   C867    1.407   .     A
C865   N905    1.364   .     A
C866   N906    1.364   .     A
C866   H902    1.081   .     S
C866   C868    1.407   .     A
C867   H903    1.081   .     S
C867   C869    1.411   .     A
C868   C870    1.411   .     A
C868   H904    1.081   .     S
C870   C401    1.517   1_556 S
C871   O911    1.285   .     A
C871   C873    1.432   .     S
C871   O913    1.286   .     A
C872   O914    1.286   .     A
C872   C874    1.432   .     S
C872   O912    1.285   .     A
C874   C717    1.334   1_655 S
C874   H734    1.087   1_655 S
C875   C885    1.416   .     A
C875   C877    1.394   .     A
C875   O915    1.386   .     S
C876   O926    1.386   .     S
C876   C886    1.416   .     A
C876   C878    1.394   .     A
C877   C879    1.401   .     A
C877   H891    1.084   .     S
C878   H892    1.084   .     S
C878   C880    1.401   .     A
C879   C881    1.399   .     A
C880   C882    1.399   .     A
C881   H893    1.083   .     S
C881   C883    1.388   .     A
C882   H894    1.083   .     S
C882   C884    1.388   .     A
C883   H895    1.083   .     S
C883   C885    1.403   .     A
C884   H896    1.083   .     S
C884   C886    1.403   .     A
C886   C651    1.468   1_565 S
Cu887  O907    1.954   .     S
Cu887  N906    2.009   .     S
Cu887  Cu888   2.675   .     S
Cu887  O914    1.956   .     S
Cu887  O911    1.953   .     S
Cu887  O910    1.954   .     S
Cu888  O909    1.954   .     S
Cu888  O912    1.953   .     S
Cu888  O908    1.954   .     S
Cu888  N905    2.009   .     S
Cu888  O913    1.956   .     S
H889   C717    1.087   1_655 S
O915   C916    1.416   .     S
C916   C919    1.536   .     S
H917   C682    1.111   1_565 S
H918   C682    1.110   1_565 S
C919   H921    1.111   .     S
C919   H920    1.111   .     S
C922   H925    1.111   .     S
C922   H924    1.111   .     S
C922   H923    1.110   .     S
C922   C763    1.527   1_655 S
O926   C927    1.416   .     S
C927   C930    1.537   .     S
C927   H694    1.111   1_565 S
C927   H695    1.109   1_565 S
C930   H932    1.111   .     S
C930   H931    1.111   .     S
C933   H934    1.110   .     S
C933   H936    1.111   .     S
C933   H935    1.111   .     S
C933   C774    1.526   1_655 S
