data_str_m3_o10_o16_pcu_sym.92
_audit_creation_date              2020-01-03
_audit_creation_method            'Materials Studio'
_symmetry_space_group_name_H-M    'P1'
_symmetry_Int_Tables_number       1
_symmetry_cell_setting            triclinic
loop_
_symmetry_equiv_pos_as_xyz
  x,y,z
_cell_length_a                    23.4685
_cell_length_b                    25.7687
_cell_length_c                    24.2215
_cell_angle_alpha                 92.3802
_cell_angle_beta                  101.1841
_cell_angle_gamma                 94.1166
loop_
_atom_site_label
_atom_site_type_symbol
_atom_site_fract_x
_atom_site_fract_y
_atom_site_fract_z
_atom_site_U_iso_or_equiv
_atom_site_adp_type
_atom_site_occupancy
C1     C     0.01420   0.26460   0.24643   0.00000  Uiso   1.00
C2     C     0.05298   0.16803   0.41604   0.00000  Uiso   1.00
C3     C     0.01977   0.31809   0.23727   0.00000  Uiso   1.00
C4     C     0.03533   0.16791   0.35516   0.00000  Uiso   1.00
C5     C     0.31083   0.01373   0.24907   0.00000  Uiso   1.00
C6     C     0.31816   0.06838   0.24967   0.00000  Uiso   1.00
C7     C     0.29747   0.16276   0.14485   0.00000  Uiso   1.00
C8     C     0.27008   0.09581   0.00172   0.00000  Uiso   1.00
C9     C     0.27664   0.15223   0.08509   0.00000  Uiso   1.00
C10    C     0.02431   0.19830   0.44987   0.00000  Uiso   1.00
C11    C     0.04800   0.20828   0.00670   0.00000  Uiso   1.00
C12    C     0.13192   0.16114   0.49509   0.00000  Uiso   1.00
C13    C     0.10192   0.19088   0.02918   0.00000  Uiso   1.00
C14    C     0.05788   0.33238   0.15940   0.00000  Uiso   1.00
C15    C     0.10340   0.14441   0.44009   0.00000  Uiso   1.00
C16    C     0.18943   0.14770   0.01356   0.00000  Uiso   1.00
C17    C     0.21380   0.11080   0.48162   0.00000  Uiso   1.00
C18    C     0.18119   0.08885   0.43077   0.00000  Uiso   1.00
C19    C     0.12661   0.10554   0.41006   0.00000  Uiso   1.00
C20    C     0.22381   0.17093   0.06265   0.00000  Uiso   1.00
C21    C     0.30099   0.11557   0.05429   0.00000  Uiso   1.00
H22    H     0.00894   0.10067   0.07179   0.00000  Uiso   1.00
H23    H     0.02561   0.23120   0.03296   0.00000  Uiso   1.00
H24    H     0.10250   0.08734   0.37053   0.00000  Uiso   1.00
H25    H     0.01981   0.02028   0.14041   0.00000  Uiso   1.00
H26    H     0.05099   0.29057   0.14435   0.00000  Uiso   1.00
H27    H     0.09644   0.01627   0.14443   0.00000  Uiso   1.00
H28    H     0.27168   0.33059   0.26174   0.00000  Uiso   1.00
H29    H     0.15661   0.12503   0.20823   0.00000  Uiso   1.00
H30    H     0.17670   0.20828   0.29178   0.00000  Uiso   1.00
H31    H     0.19829   0.05954   0.40651   0.00000  Uiso   1.00
H32    H     0.28897   0.06735   0.47801   0.00000  Uiso   1.00
H33    H     0.20918   0.20221   0.08604   0.00000  Uiso   1.00
H34    H     0.31800   0.21571   0.43200   0.00000  Uiso   1.00
H35    H     0.11839   0.20016   0.07352   0.00000  Uiso   1.00
N36    N     0.14493   0.15223   0.23542   0.00000  Uiso   1.00
N37    N     0.18840   0.18110   0.26457   0.00000  Uiso   1.00
O38    O     0.29769   0.24629   0.25358   0.00000  Uiso   1.00
O39    O     0.05742   0.23704   0.24423   0.00000  Uiso   1.00
O40    O     0.31490   0.17358   0.33380   0.00000  Uiso   1.00
O41    O     0.07463   0.16433   0.32446   0.00000  Uiso   1.00
O42    O     0.27592   0.09629   0.25577   0.00000  Uiso   1.00
O43    O     0.03565   0.08704   0.24642   0.00000  Uiso   1.00
O44    O     0.25870   0.16901   0.17554   0.00000  Uiso   1.00
O45    O     0.01843   0.15976   0.16620   0.00000  Uiso   1.00
O46    O     0.06894   0.00470   0.21879   0.00000  Uiso   1.00
Zn47   Zn    0.27119   0.17284   0.25624   0.00000  Uiso   1.00
Zn48   Zn    0.06214   0.16049   0.24376   0.00000  Uiso   1.00
C49    C     0.34754   0.26460   0.24643   0.00000  Uiso   1.00
C50    C     0.38631   0.16803   0.41604   0.00000  Uiso   1.00
C51    C     0.35310   0.31809   0.23727   0.00000  Uiso   1.00
C52    C     0.36866   0.16791   0.35516   0.00000  Uiso   1.00
C53    C     0.64417   0.01373   0.24907   0.00000  Uiso   1.00
C54    C     0.65149   0.06838   0.24967   0.00000  Uiso   1.00
C55    C     0.63080   0.16276   0.14485   0.00000  Uiso   1.00
C56    C     0.60342   0.09581   0.00172   0.00000  Uiso   1.00
C57    C     0.60997   0.15223   0.08509   0.00000  Uiso   1.00
C58    C     0.35764   0.19830   0.44987   0.00000  Uiso   1.00
C59    C     0.38133   0.20828   0.00670   0.00000  Uiso   1.00
C60    C     0.46525   0.16114   0.49509   0.00000  Uiso   1.00
C61    C     0.43525   0.19088   0.02918   0.00000  Uiso   1.00
C62    C     0.39121   0.33238   0.15940   0.00000  Uiso   1.00
C63    C     0.43673   0.14441   0.44009   0.00000  Uiso   1.00
C64    C     0.52276   0.14770   0.01356   0.00000  Uiso   1.00
C65    C     0.54713   0.11080   0.48162   0.00000  Uiso   1.00
C66    C     0.51452   0.08885   0.43077   0.00000  Uiso   1.00
C67    C     0.45994   0.10554   0.41006   0.00000  Uiso   1.00
C68    C     0.55714   0.17093   0.06265   0.00000  Uiso   1.00
C69    C     0.63433   0.11557   0.05429   0.00000  Uiso   1.00
H70    H     0.34227   0.10067   0.07179   0.00000  Uiso   1.00
H71    H     0.35894   0.23120   0.03296   0.00000  Uiso   1.00
H72    H     0.43583   0.08734   0.37053   0.00000  Uiso   1.00
H73    H     0.35314   0.02028   0.14041   0.00000  Uiso   1.00
H74    H     0.38432   0.29057   0.14435   0.00000  Uiso   1.00
H75    H     0.42978   0.01627   0.14443   0.00000  Uiso   1.00
H76    H     0.60502   0.33059   0.26174   0.00000  Uiso   1.00
H77    H     0.48995   0.12503   0.20823   0.00000  Uiso   1.00
H78    H     0.51003   0.20828   0.29178   0.00000  Uiso   1.00
H79    H     0.53162   0.05954   0.40651   0.00000  Uiso   1.00
H80    H     0.62230   0.06735   0.47801   0.00000  Uiso   1.00
H81    H     0.54252   0.20221   0.08604   0.00000  Uiso   1.00
H82    H     0.65134   0.21571   0.43200   0.00000  Uiso   1.00
H83    H     0.45173   0.20016   0.07352   0.00000  Uiso   1.00
N84    N     0.47827   0.15223   0.23542   0.00000  Uiso   1.00
N85    N     0.52173   0.18110   0.26457   0.00000  Uiso   1.00
O86    O     0.63102   0.24629   0.25358   0.00000  Uiso   1.00
O87    O     0.39075   0.23704   0.24423   0.00000  Uiso   1.00
O88    O     0.64823   0.17358   0.33380   0.00000  Uiso   1.00
O89    O     0.40796   0.16433   0.32446   0.00000  Uiso   1.00
O90    O     0.60925   0.09629   0.25577   0.00000  Uiso   1.00
O91    O     0.36898   0.08704   0.24642   0.00000  Uiso   1.00
O92    O     0.59204   0.16901   0.17554   0.00000  Uiso   1.00
O93    O     0.35177   0.15976   0.16620   0.00000  Uiso   1.00
O94    O     0.40228   0.00470   0.21879   0.00000  Uiso   1.00
Zn95   Zn    0.60453   0.17284   0.25624   0.00000  Uiso   1.00
Zn96   Zn    0.39547   0.16049   0.24376   0.00000  Uiso   1.00
C97    C     0.68087   0.26460   0.24643   0.00000  Uiso   1.00
C98    C     0.71964   0.16803   0.41604   0.00000  Uiso   1.00
C99    C     0.68643   0.31809   0.23727   0.00000  Uiso   1.00
C100   C     0.70200   0.16791   0.35516   0.00000  Uiso   1.00
C101   C     0.97750   0.01373   0.24907   0.00000  Uiso   1.00
C102   C     0.98483   0.06838   0.24967   0.00000  Uiso   1.00
C103   C     0.96413   0.16276   0.14485   0.00000  Uiso   1.00
C104   C     0.93675   0.09581   0.00172   0.00000  Uiso   1.00
C105   C     0.94331   0.15223   0.08509   0.00000  Uiso   1.00
C106   C     0.69097   0.19830   0.44987   0.00000  Uiso   1.00
C107   C     0.71467   0.20828   0.00670   0.00000  Uiso   1.00
C108   C     0.79859   0.16114   0.49509   0.00000  Uiso   1.00
C109   C     0.76859   0.19088   0.02918   0.00000  Uiso   1.00
C110   C     0.72454   0.33238   0.15940   0.00000  Uiso   1.00
C111   C     0.77006   0.14441   0.44009   0.00000  Uiso   1.00
C112   C     0.85609   0.14770   0.01356   0.00000  Uiso   1.00
C113   C     0.88046   0.11080   0.48162   0.00000  Uiso   1.00
C114   C     0.84786   0.08885   0.43077   0.00000  Uiso   1.00
C115   C     0.79328   0.10554   0.41006   0.00000  Uiso   1.00
C116   C     0.89047   0.17093   0.06265   0.00000  Uiso   1.00
C117   C     0.96766   0.11557   0.05429   0.00000  Uiso   1.00
H118   H     0.67561   0.10067   0.07179   0.00000  Uiso   1.00
H119   H     0.69227   0.23120   0.03296   0.00000  Uiso   1.00
H120   H     0.76917   0.08734   0.37053   0.00000  Uiso   1.00
H121   H     0.68648   0.02028   0.14041   0.00000  Uiso   1.00
H122   H     0.71765   0.29057   0.14435   0.00000  Uiso   1.00
H123   H     0.76311   0.01627   0.14443   0.00000  Uiso   1.00
H124   H     0.93835   0.33059   0.26174   0.00000  Uiso   1.00
H125   H     0.82328   0.12503   0.20823   0.00000  Uiso   1.00
H126   H     0.84337   0.20828   0.29178   0.00000  Uiso   1.00
H127   H     0.86495   0.05954   0.40651   0.00000  Uiso   1.00
H128   H     0.95563   0.06735   0.47801   0.00000  Uiso   1.00
H129   H     0.87585   0.20221   0.08604   0.00000  Uiso   1.00
H130   H     0.98467   0.21571   0.43200   0.00000  Uiso   1.00
H131   H     0.78506   0.20016   0.07352   0.00000  Uiso   1.00
N132   N     0.81160   0.15223   0.23542   0.00000  Uiso   1.00
N133   N     0.85507   0.18110   0.26457   0.00000  Uiso   1.00
O134   O     0.96435   0.24629   0.25358   0.00000  Uiso   1.00
O135   O     0.72408   0.23704   0.24423   0.00000  Uiso   1.00
O136   O     0.98157   0.17358   0.33380   0.00000  Uiso   1.00
O137   O     0.74130   0.16433   0.32446   0.00000  Uiso   1.00
O138   O     0.94258   0.09629   0.25577   0.00000  Uiso   1.00
O139   O     0.70231   0.08704   0.24642   0.00000  Uiso   1.00
O140   O     0.92537   0.16901   0.17554   0.00000  Uiso   1.00
O141   O     0.68510   0.15976   0.16620   0.00000  Uiso   1.00
O142   O     0.73561   0.00470   0.21879   0.00000  Uiso   1.00
Zn143  Zn    0.93786   0.17284   0.25624   0.00000  Uiso   1.00
Zn144  Zn    0.72881   0.16049   0.24376   0.00000  Uiso   1.00
C145   C     0.01420   0.59793   0.24643   0.00000  Uiso   1.00
C146   C     0.05298   0.50136   0.41604   0.00000  Uiso   1.00
C147   C     0.01977   0.65143   0.23727   0.00000  Uiso   1.00
C148   C     0.03533   0.50124   0.35516   0.00000  Uiso   1.00
C149   C     0.31083   0.34707   0.24907   0.00000  Uiso   1.00
C150   C     0.31816   0.40171   0.24967   0.00000  Uiso   1.00
C151   C     0.29747   0.49610   0.14485   0.00000  Uiso   1.00
C152   C     0.27008   0.42914   0.00172   0.00000  Uiso   1.00
C153   C     0.27664   0.48556   0.08509   0.00000  Uiso   1.00
C154   C     0.02431   0.53164   0.44987   0.00000  Uiso   1.00
C155   C     0.04800   0.54161   0.00670   0.00000  Uiso   1.00
C156   C     0.13192   0.49447   0.49509   0.00000  Uiso   1.00
C157   C     0.10192   0.52422   0.02918   0.00000  Uiso   1.00
C158   C     0.05788   0.66572   0.15940   0.00000  Uiso   1.00
C159   C     0.10340   0.47774   0.44009   0.00000  Uiso   1.00
C160   C     0.18943   0.48103   0.01356   0.00000  Uiso   1.00
C161   C     0.21380   0.44413   0.48162   0.00000  Uiso   1.00
C162   C     0.18119   0.42218   0.43077   0.00000  Uiso   1.00
C163   C     0.12661   0.43887   0.41006   0.00000  Uiso   1.00
C164   C     0.22381   0.50426   0.06265   0.00000  Uiso   1.00
C165   C     0.30099   0.44890   0.05429   0.00000  Uiso   1.00
H166   H     0.00894   0.43400   0.07179   0.00000  Uiso   1.00
H167   H     0.02561   0.56453   0.03296   0.00000  Uiso   1.00
H168   H     0.10250   0.42068   0.37053   0.00000  Uiso   1.00
H169   H     0.01981   0.35361   0.14041   0.00000  Uiso   1.00
H170   H     0.05099   0.62390   0.14435   0.00000  Uiso   1.00
H171   H     0.09644   0.34960   0.14443   0.00000  Uiso   1.00
H172   H     0.27168   0.66392   0.26174   0.00000  Uiso   1.00
H173   H     0.15661   0.45836   0.20823   0.00000  Uiso   1.00
H174   H     0.17670   0.54161   0.29178   0.00000  Uiso   1.00
H175   H     0.19829   0.39287   0.40651   0.00000  Uiso   1.00
H176   H     0.28897   0.40068   0.47801   0.00000  Uiso   1.00
H177   H     0.20918   0.53555   0.08604   0.00000  Uiso   1.00
H178   H     0.31800   0.54904   0.43200   0.00000  Uiso   1.00
H179   H     0.11839   0.53349   0.07352   0.00000  Uiso   1.00
N180   N     0.14493   0.48556   0.23542   0.00000  Uiso   1.00
N181   N     0.18840   0.51444   0.26457   0.00000  Uiso   1.00
O182   O     0.29769   0.57963   0.25358   0.00000  Uiso   1.00
O183   O     0.05742   0.57038   0.24423   0.00000  Uiso   1.00
O184   O     0.31490   0.50691   0.33380   0.00000  Uiso   1.00
O185   O     0.07463   0.49766   0.32446   0.00000  Uiso   1.00
O186   O     0.27592   0.42962   0.25577   0.00000  Uiso   1.00
O187   O     0.03565   0.42037   0.24642   0.00000  Uiso   1.00
O188   O     0.25870   0.50234   0.17554   0.00000  Uiso   1.00
O189   O     0.01843   0.49309   0.16620   0.00000  Uiso   1.00
O190   O     0.06894   0.33803   0.21879   0.00000  Uiso   1.00
Zn191  Zn    0.27119   0.50618   0.25624   0.00000  Uiso   1.00
Zn192  Zn    0.06214   0.49382   0.24376   0.00000  Uiso   1.00
C193   C     0.34754   0.59793   0.24643   0.00000  Uiso   1.00
C194   C     0.38631   0.50136   0.41604   0.00000  Uiso   1.00
C195   C     0.35310   0.65143   0.23727   0.00000  Uiso   1.00
C196   C     0.36866   0.50124   0.35516   0.00000  Uiso   1.00
C197   C     0.64417   0.34707   0.24907   0.00000  Uiso   1.00
C198   C     0.65149   0.40171   0.24967   0.00000  Uiso   1.00
C199   C     0.63080   0.49610   0.14485   0.00000  Uiso   1.00
C200   C     0.60342   0.42914   0.00172   0.00000  Uiso   1.00
C201   C     0.60997   0.48556   0.08509   0.00000  Uiso   1.00
C202   C     0.35764   0.53164   0.44987   0.00000  Uiso   1.00
C203   C     0.38133   0.54161   0.00670   0.00000  Uiso   1.00
C204   C     0.46525   0.49447   0.49509   0.00000  Uiso   1.00
C205   C     0.43525   0.52422   0.02918   0.00000  Uiso   1.00
C206   C     0.39121   0.66572   0.15940   0.00000  Uiso   1.00
C207   C     0.43673   0.47774   0.44009   0.00000  Uiso   1.00
C208   C     0.52276   0.48103   0.01356   0.00000  Uiso   1.00
C209   C     0.54713   0.44413   0.48162   0.00000  Uiso   1.00
C210   C     0.51452   0.42218   0.43077   0.00000  Uiso   1.00
C211   C     0.45994   0.43887   0.41006   0.00000  Uiso   1.00
C212   C     0.55714   0.50426   0.06265   0.00000  Uiso   1.00
C213   C     0.63433   0.44890   0.05429   0.00000  Uiso   1.00
H214   H     0.34227   0.43400   0.07179   0.00000  Uiso   1.00
H215   H     0.35894   0.56453   0.03296   0.00000  Uiso   1.00
H216   H     0.43583   0.42068   0.37053   0.00000  Uiso   1.00
H217   H     0.35314   0.35361   0.14041   0.00000  Uiso   1.00
H218   H     0.38432   0.62390   0.14435   0.00000  Uiso   1.00
H219   H     0.42978   0.34960   0.14443   0.00000  Uiso   1.00
H220   H     0.60502   0.66392   0.26174   0.00000  Uiso   1.00
H221   H     0.48995   0.45836   0.20823   0.00000  Uiso   1.00
H222   H     0.51003   0.54161   0.29178   0.00000  Uiso   1.00
H223   H     0.53162   0.39287   0.40651   0.00000  Uiso   1.00
H224   H     0.62230   0.40068   0.47801   0.00000  Uiso   1.00
H225   H     0.54252   0.53555   0.08604   0.00000  Uiso   1.00
H226   H     0.65134   0.54904   0.43200   0.00000  Uiso   1.00
H227   H     0.45173   0.53349   0.07352   0.00000  Uiso   1.00
N228   N     0.47827   0.48556   0.23542   0.00000  Uiso   1.00
N229   N     0.52173   0.51444   0.26457   0.00000  Uiso   1.00
O230   O     0.63102   0.57963   0.25358   0.00000  Uiso   1.00
O231   O     0.39075   0.57038   0.24423   0.00000  Uiso   1.00
O232   O     0.64823   0.50691   0.33380   0.00000  Uiso   1.00
O233   O     0.40796   0.49766   0.32446   0.00000  Uiso   1.00
O234   O     0.60925   0.42962   0.25577   0.00000  Uiso   1.00
O235   O     0.36898   0.42037   0.24642   0.00000  Uiso   1.00
O236   O     0.59204   0.50234   0.17554   0.00000  Uiso   1.00
O237   O     0.35177   0.49309   0.16620   0.00000  Uiso   1.00
O238   O     0.40228   0.33803   0.21879   0.00000  Uiso   1.00
Zn239  Zn    0.60453   0.50618   0.25624   0.00000  Uiso   1.00
Zn240  Zn    0.39547   0.49382   0.24376   0.00000  Uiso   1.00
C241   C     0.68087   0.59793   0.24643   0.00000  Uiso   1.00
C242   C     0.71964   0.50136   0.41604   0.00000  Uiso   1.00
C243   C     0.68643   0.65143   0.23727   0.00000  Uiso   1.00
C244   C     0.70200   0.50124   0.35516   0.00000  Uiso   1.00
C245   C     0.97750   0.34707   0.24907   0.00000  Uiso   1.00
C246   C     0.98483   0.40171   0.24967   0.00000  Uiso   1.00
C247   C     0.96413   0.49610   0.14485   0.00000  Uiso   1.00
C248   C     0.93675   0.42914   0.00172   0.00000  Uiso   1.00
C249   C     0.94331   0.48556   0.08509   0.00000  Uiso   1.00
C250   C     0.69097   0.53164   0.44987   0.00000  Uiso   1.00
C251   C     0.71467   0.54161   0.00670   0.00000  Uiso   1.00
C252   C     0.79859   0.49447   0.49509   0.00000  Uiso   1.00
C253   C     0.76859   0.52422   0.02918   0.00000  Uiso   1.00
C254   C     0.72454   0.66572   0.15940   0.00000  Uiso   1.00
C255   C     0.77006   0.47774   0.44009   0.00000  Uiso   1.00
C256   C     0.85609   0.48103   0.01356   0.00000  Uiso   1.00
C257   C     0.88046   0.44413   0.48162   0.00000  Uiso   1.00
C258   C     0.84786   0.42218   0.43077   0.00000  Uiso   1.00
C259   C     0.79328   0.43887   0.41006   0.00000  Uiso   1.00
C260   C     0.89047   0.50426   0.06265   0.00000  Uiso   1.00
C261   C     0.96766   0.44890   0.05429   0.00000  Uiso   1.00
H262   H     0.67561   0.43400   0.07179   0.00000  Uiso   1.00
H263   H     0.69227   0.56453   0.03296   0.00000  Uiso   1.00
H264   H     0.76917   0.42068   0.37053   0.00000  Uiso   1.00
H265   H     0.68648   0.35361   0.14041   0.00000  Uiso   1.00
H266   H     0.71765   0.62390   0.14435   0.00000  Uiso   1.00
H267   H     0.76311   0.34960   0.14443   0.00000  Uiso   1.00
H268   H     0.93835   0.66392   0.26174   0.00000  Uiso   1.00
H269   H     0.82328   0.45836   0.20823   0.00000  Uiso   1.00
H270   H     0.84337   0.54161   0.29178   0.00000  Uiso   1.00
H271   H     0.86495   0.39287   0.40651   0.00000  Uiso   1.00
H272   H     0.95563   0.40068   0.47801   0.00000  Uiso   1.00
H273   H     0.87585   0.53555   0.08604   0.00000  Uiso   1.00
H274   H     0.98467   0.54904   0.43200   0.00000  Uiso   1.00
H275   H     0.78506   0.53349   0.07352   0.00000  Uiso   1.00
N276   N     0.81160   0.48556   0.23542   0.00000  Uiso   1.00
N277   N     0.85507   0.51444   0.26457   0.00000  Uiso   1.00
O278   O     0.96435   0.57963   0.25358   0.00000  Uiso   1.00
O279   O     0.72408   0.57038   0.24423   0.00000  Uiso   1.00
O280   O     0.98157   0.50691   0.33380   0.00000  Uiso   1.00
O281   O     0.74130   0.49766   0.32446   0.00000  Uiso   1.00
O282   O     0.94258   0.42962   0.25577   0.00000  Uiso   1.00
O283   O     0.70231   0.42037   0.24642   0.00000  Uiso   1.00
O284   O     0.92537   0.50234   0.17554   0.00000  Uiso   1.00
O285   O     0.68510   0.49309   0.16620   0.00000  Uiso   1.00
O286   O     0.73561   0.33803   0.21879   0.00000  Uiso   1.00
Zn287  Zn    0.93786   0.50618   0.25624   0.00000  Uiso   1.00
Zn288  Zn    0.72881   0.49382   0.24376   0.00000  Uiso   1.00
C289   C     0.01420   0.93126   0.24643   0.00000  Uiso   1.00
C290   C     0.05298   0.83470   0.41604   0.00000  Uiso   1.00
C291   C     0.01977   0.98476   0.23727   0.00000  Uiso   1.00
C292   C     0.03533   0.83458   0.35516   0.00000  Uiso   1.00
C293   C     0.31083   0.68040   0.24907   0.00000  Uiso   1.00
C294   C     0.31816   0.73504   0.24967   0.00000  Uiso   1.00
C295   C     0.29747   0.82943   0.14485   0.00000  Uiso   1.00
C296   C     0.27008   0.76248   0.00172   0.00000  Uiso   1.00
C297   C     0.27664   0.81890   0.08509   0.00000  Uiso   1.00
C298   C     0.02431   0.86497   0.44987   0.00000  Uiso   1.00
C299   C     0.04800   0.87494   0.00670   0.00000  Uiso   1.00
C300   C     0.13192   0.82780   0.49509   0.00000  Uiso   1.00
C301   C     0.10192   0.85755   0.02918   0.00000  Uiso   1.00
C302   C     0.05788   0.99905   0.15940   0.00000  Uiso   1.00
C303   C     0.10340   0.81107   0.44009   0.00000  Uiso   1.00
C304   C     0.18943   0.81436   0.01356   0.00000  Uiso   1.00
C305   C     0.21380   0.77746   0.48162   0.00000  Uiso   1.00
C306   C     0.18119   0.75552   0.43077   0.00000  Uiso   1.00
C307   C     0.12661   0.77220   0.41006   0.00000  Uiso   1.00
C308   C     0.22381   0.83759   0.06265   0.00000  Uiso   1.00
C309   C     0.30099   0.78223   0.05429   0.00000  Uiso   1.00
H310   H     0.00894   0.76734   0.07179   0.00000  Uiso   1.00
H311   H     0.02561   0.89786   0.03296   0.00000  Uiso   1.00
H312   H     0.10250   0.75401   0.37053   0.00000  Uiso   1.00
H313   H     0.01981   0.68694   0.14041   0.00000  Uiso   1.00
H314   H     0.05099   0.95724   0.14435   0.00000  Uiso   1.00
H315   H     0.09644   0.68294   0.14443   0.00000  Uiso   1.00
H316   H     0.27168   0.99726   0.26174   0.00000  Uiso   1.00
H317   H     0.15661   0.79169   0.20823   0.00000  Uiso   1.00
H318   H     0.17670   0.87495   0.29178   0.00000  Uiso   1.00
H319   H     0.19829   0.72621   0.40651   0.00000  Uiso   1.00
H320   H     0.28897   0.73401   0.47801   0.00000  Uiso   1.00
H321   H     0.20918   0.86888   0.08604   0.00000  Uiso   1.00
H322   H     0.31800   0.88237   0.43200   0.00000  Uiso   1.00
H323   H     0.11839   0.86682   0.07352   0.00000  Uiso   1.00
N324   N     0.14493   0.81890   0.23542   0.00000  Uiso   1.00
N325   N     0.18840   0.84777   0.26457   0.00000  Uiso   1.00
O326   O     0.29769   0.91296   0.25358   0.00000  Uiso   1.00
O327   O     0.05742   0.90371   0.24423   0.00000  Uiso   1.00
O328   O     0.31490   0.84024   0.33380   0.00000  Uiso   1.00
O329   O     0.07463   0.83099   0.32446   0.00000  Uiso   1.00
O330   O     0.27592   0.76296   0.25577   0.00000  Uiso   1.00
O331   O     0.03565   0.75371   0.24642   0.00000  Uiso   1.00
O332   O     0.25870   0.83567   0.17554   0.00000  Uiso   1.00
O333   O     0.01843   0.82642   0.16620   0.00000  Uiso   1.00
O334   O     0.06894   0.67137   0.21879   0.00000  Uiso   1.00
Zn335  Zn    0.27119   0.83951   0.25624   0.00000  Uiso   1.00
Zn336  Zn    0.06214   0.82716   0.24376   0.00000  Uiso   1.00
C337   C     0.34754   0.93126   0.24643   0.00000  Uiso   1.00
C338   C     0.38631   0.83470   0.41604   0.00000  Uiso   1.00
C339   C     0.35310   0.98476   0.23727   0.00000  Uiso   1.00
C340   C     0.36866   0.83458   0.35516   0.00000  Uiso   1.00
C341   C     0.64417   0.68040   0.24907   0.00000  Uiso   1.00
C342   C     0.65149   0.73504   0.24967   0.00000  Uiso   1.00
C343   C     0.63080   0.82943   0.14485   0.00000  Uiso   1.00
C344   C     0.60342   0.76248   0.00172   0.00000  Uiso   1.00
C345   C     0.60997   0.81890   0.08509   0.00000  Uiso   1.00
C346   C     0.35764   0.86497   0.44987   0.00000  Uiso   1.00
C347   C     0.38133   0.87494   0.00670   0.00000  Uiso   1.00
C348   C     0.46525   0.82780   0.49509   0.00000  Uiso   1.00
C349   C     0.43525   0.85755   0.02918   0.00000  Uiso   1.00
C350   C     0.39121   0.99905   0.15940   0.00000  Uiso   1.00
C351   C     0.43673   0.81107   0.44009   0.00000  Uiso   1.00
C352   C     0.52276   0.81436   0.01356   0.00000  Uiso   1.00
C353   C     0.54713   0.77746   0.48162   0.00000  Uiso   1.00
C354   C     0.51452   0.75552   0.43077   0.00000  Uiso   1.00
C355   C     0.45994   0.77220   0.41006   0.00000  Uiso   1.00
C356   C     0.55714   0.83759   0.06265   0.00000  Uiso   1.00
C357   C     0.63433   0.78223   0.05429   0.00000  Uiso   1.00
H358   H     0.34227   0.76734   0.07179   0.00000  Uiso   1.00
H359   H     0.35894   0.89786   0.03296   0.00000  Uiso   1.00
H360   H     0.43583   0.75401   0.37053   0.00000  Uiso   1.00
H361   H     0.35314   0.68694   0.14041   0.00000  Uiso   1.00
H362   H     0.38432   0.95724   0.14435   0.00000  Uiso   1.00
H363   H     0.42978   0.68294   0.14443   0.00000  Uiso   1.00
H364   H     0.60502   0.99726   0.26174   0.00000  Uiso   1.00
H365   H     0.48995   0.79169   0.20823   0.00000  Uiso   1.00
H366   H     0.51003   0.87495   0.29178   0.00000  Uiso   1.00
H367   H     0.53162   0.72621   0.40651   0.00000  Uiso   1.00
H368   H     0.62230   0.73401   0.47801   0.00000  Uiso   1.00
H369   H     0.54252   0.86888   0.08604   0.00000  Uiso   1.00
H370   H     0.65134   0.88237   0.43200   0.00000  Uiso   1.00
H371   H     0.45173   0.86682   0.07352   0.00000  Uiso   1.00
N372   N     0.47827   0.81890   0.23542   0.00000  Uiso   1.00
N373   N     0.52173   0.84777   0.26457   0.00000  Uiso   1.00
O374   O     0.63102   0.91296   0.25358   0.00000  Uiso   1.00
O375   O     0.39075   0.90371   0.24423   0.00000  Uiso   1.00
O376   O     0.64823   0.84024   0.33380   0.00000  Uiso   1.00
O377   O     0.40796   0.83099   0.32446   0.00000  Uiso   1.00
O378   O     0.60925   0.76296   0.25577   0.00000  Uiso   1.00
O379   O     0.36898   0.75371   0.24642   0.00000  Uiso   1.00
O380   O     0.59204   0.83567   0.17554   0.00000  Uiso   1.00
O381   O     0.35177   0.82642   0.16620   0.00000  Uiso   1.00
O382   O     0.40228   0.67137   0.21879   0.00000  Uiso   1.00
Zn383  Zn    0.60453   0.83951   0.25624   0.00000  Uiso   1.00
Zn384  Zn    0.39547   0.82716   0.24376   0.00000  Uiso   1.00
C385   C     0.68087   0.93126   0.24643   0.00000  Uiso   1.00
C386   C     0.71964   0.83470   0.41604   0.00000  Uiso   1.00
C387   C     0.68643   0.98476   0.23727   0.00000  Uiso   1.00
C388   C     0.70200   0.83458   0.35516   0.00000  Uiso   1.00
C389   C     0.97750   0.68040   0.24907   0.00000  Uiso   1.00
C390   C     0.98483   0.73504   0.24967   0.00000  Uiso   1.00
C391   C     0.96413   0.82943   0.14485   0.00000  Uiso   1.00
C392   C     0.93675   0.76248   0.00172   0.00000  Uiso   1.00
C393   C     0.94331   0.81890   0.08509   0.00000  Uiso   1.00
C394   C     0.69097   0.86497   0.44987   0.00000  Uiso   1.00
C395   C     0.71467   0.87494   0.00670   0.00000  Uiso   1.00
C396   C     0.79859   0.82780   0.49509   0.00000  Uiso   1.00
C397   C     0.76859   0.85755   0.02918   0.00000  Uiso   1.00
C398   C     0.72454   0.99905   0.15940   0.00000  Uiso   1.00
C399   C     0.77006   0.81107   0.44009   0.00000  Uiso   1.00
C400   C     0.85609   0.81436   0.01356   0.00000  Uiso   1.00
C401   C     0.88046   0.77746   0.48162   0.00000  Uiso   1.00
C402   C     0.84786   0.75552   0.43077   0.00000  Uiso   1.00
C403   C     0.79328   0.77220   0.41006   0.00000  Uiso   1.00
C404   C     0.89047   0.83759   0.06265   0.00000  Uiso   1.00
C405   C     0.96766   0.78223   0.05429   0.00000  Uiso   1.00
H406   H     0.67561   0.76734   0.07179   0.00000  Uiso   1.00
H407   H     0.69227   0.89786   0.03296   0.00000  Uiso   1.00
H408   H     0.76917   0.75401   0.37053   0.00000  Uiso   1.00
H409   H     0.68648   0.68694   0.14041   0.00000  Uiso   1.00
H410   H     0.71765   0.95724   0.14435   0.00000  Uiso   1.00
H411   H     0.76311   0.68294   0.14443   0.00000  Uiso   1.00
H412   H     0.93835   0.99726   0.26174   0.00000  Uiso   1.00
H413   H     0.82328   0.79169   0.20823   0.00000  Uiso   1.00
H414   H     0.84337   0.87495   0.29178   0.00000  Uiso   1.00
H415   H     0.86495   0.72621   0.40651   0.00000  Uiso   1.00
H416   H     0.95563   0.73401   0.47801   0.00000  Uiso   1.00
H417   H     0.87585   0.86888   0.08604   0.00000  Uiso   1.00
H418   H     0.98467   0.88237   0.43200   0.00000  Uiso   1.00
H419   H     0.78506   0.86682   0.07352   0.00000  Uiso   1.00
N420   N     0.81160   0.81890   0.23542   0.00000  Uiso   1.00
N421   N     0.85507   0.84777   0.26457   0.00000  Uiso   1.00
O422   O     0.96435   0.91296   0.25358   0.00000  Uiso   1.00
O423   O     0.72408   0.90371   0.24423   0.00000  Uiso   1.00
O424   O     0.98157   0.84024   0.33380   0.00000  Uiso   1.00
O425   O     0.74130   0.83099   0.32446   0.00000  Uiso   1.00
O426   O     0.94258   0.76296   0.25577   0.00000  Uiso   1.00
O427   O     0.70231   0.75371   0.24642   0.00000  Uiso   1.00
O428   O     0.92537   0.83567   0.17554   0.00000  Uiso   1.00
O429   O     0.68510   0.82642   0.16620   0.00000  Uiso   1.00
O430   O     0.73561   0.67137   0.21879   0.00000  Uiso   1.00
Zn431  Zn    0.93786   0.83951   0.25624   0.00000  Uiso   1.00
Zn432  Zn    0.72881   0.82716   0.24376   0.00000  Uiso   1.00
C433   C     0.01420   0.26460   0.74643   0.00000  Uiso   1.00
C434   C     0.05298   0.16803   0.91604   0.00000  Uiso   1.00
C435   C     0.01977   0.31809   0.73727   0.00000  Uiso   1.00
C436   C     0.03533   0.16791   0.85516   0.00000  Uiso   1.00
C437   C     0.31083   0.01373   0.74907   0.00000  Uiso   1.00
C438   C     0.31816   0.06838   0.74967   0.00000  Uiso   1.00
C439   C     0.29747   0.16276   0.64485   0.00000  Uiso   1.00
C440   C     0.27008   0.09581   0.50172   0.00000  Uiso   1.00
C441   C     0.27664   0.15223   0.58509   0.00000  Uiso   1.00
C442   C     0.02431   0.19830   0.94987   0.00000  Uiso   1.00
C443   C     0.04800   0.20828   0.50670   0.00000  Uiso   1.00
C444   C     0.13192   0.16114   0.99509   0.00000  Uiso   1.00
C445   C     0.10192   0.19088   0.52918   0.00000  Uiso   1.00
C446   C     0.05788   0.33238   0.65940   0.00000  Uiso   1.00
C447   C     0.10340   0.14441   0.94009   0.00000  Uiso   1.00
C448   C     0.18943   0.14770   0.51356   0.00000  Uiso   1.00
C449   C     0.21380   0.11080   0.98162   0.00000  Uiso   1.00
C450   C     0.18119   0.08885   0.93077   0.00000  Uiso   1.00
C451   C     0.12661   0.10554   0.91006   0.00000  Uiso   1.00
C452   C     0.22381   0.17093   0.56265   0.00000  Uiso   1.00
C453   C     0.30099   0.11557   0.55429   0.00000  Uiso   1.00
H454   H     0.00894   0.10067   0.57179   0.00000  Uiso   1.00
H455   H     0.02561   0.23120   0.53296   0.00000  Uiso   1.00
H456   H     0.10250   0.08734   0.87053   0.00000  Uiso   1.00
H457   H     0.01981   0.02028   0.64041   0.00000  Uiso   1.00
H458   H     0.05099   0.29057   0.64435   0.00000  Uiso   1.00
H459   H     0.09644   0.01627   0.64443   0.00000  Uiso   1.00
H460   H     0.27168   0.33059   0.76174   0.00000  Uiso   1.00
H461   H     0.15661   0.12503   0.70823   0.00000  Uiso   1.00
H462   H     0.17670   0.20828   0.79178   0.00000  Uiso   1.00
H463   H     0.19829   0.05954   0.90651   0.00000  Uiso   1.00
H464   H     0.28897   0.06735   0.97801   0.00000  Uiso   1.00
H465   H     0.20918   0.20221   0.58604   0.00000  Uiso   1.00
H466   H     0.31800   0.21571   0.93200   0.00000  Uiso   1.00
H467   H     0.11839   0.20016   0.57352   0.00000  Uiso   1.00
N468   N     0.14493   0.15223   0.73542   0.00000  Uiso   1.00
N469   N     0.18840   0.18110   0.76457   0.00000  Uiso   1.00
O470   O     0.29769   0.24629   0.75358   0.00000  Uiso   1.00
O471   O     0.05742   0.23704   0.74423   0.00000  Uiso   1.00
O472   O     0.31490   0.17358   0.83380   0.00000  Uiso   1.00
O473   O     0.07463   0.16433   0.82446   0.00000  Uiso   1.00
O474   O     0.27592   0.09629   0.75577   0.00000  Uiso   1.00
O475   O     0.03565   0.08704   0.74642   0.00000  Uiso   1.00
O476   O     0.25870   0.16901   0.67554   0.00000  Uiso   1.00
O477   O     0.01843   0.15976   0.66620   0.00000  Uiso   1.00
O478   O     0.06894   0.00470   0.71879   0.00000  Uiso   1.00
Zn479  Zn    0.27119   0.17284   0.75624   0.00000  Uiso   1.00
Zn480  Zn    0.06214   0.16049   0.74376   0.00000  Uiso   1.00
C481   C     0.34754   0.26460   0.74643   0.00000  Uiso   1.00
C482   C     0.38631   0.16803   0.91604   0.00000  Uiso   1.00
C483   C     0.35310   0.31809   0.73727   0.00000  Uiso   1.00
C484   C     0.36866   0.16791   0.85516   0.00000  Uiso   1.00
C485   C     0.64417   0.01373   0.74907   0.00000  Uiso   1.00
C486   C     0.65149   0.06838   0.74967   0.00000  Uiso   1.00
C487   C     0.63080   0.16276   0.64485   0.00000  Uiso   1.00
C488   C     0.60342   0.09581   0.50172   0.00000  Uiso   1.00
C489   C     0.60997   0.15223   0.58509   0.00000  Uiso   1.00
C490   C     0.35764   0.19830   0.94987   0.00000  Uiso   1.00
C491   C     0.38133   0.20828   0.50670   0.00000  Uiso   1.00
C492   C     0.46525   0.16114   0.99509   0.00000  Uiso   1.00
C493   C     0.43525   0.19088   0.52918   0.00000  Uiso   1.00
C494   C     0.39121   0.33238   0.65940   0.00000  Uiso   1.00
C495   C     0.43673   0.14441   0.94009   0.00000  Uiso   1.00
C496   C     0.52276   0.14770   0.51356   0.00000  Uiso   1.00
C497   C     0.54713   0.11080   0.98162   0.00000  Uiso   1.00
C498   C     0.51452   0.08885   0.93077   0.00000  Uiso   1.00
C499   C     0.45994   0.10554   0.91006   0.00000  Uiso   1.00
C500   C     0.55714   0.17093   0.56265   0.00000  Uiso   1.00
C501   C     0.63433   0.11557   0.55429   0.00000  Uiso   1.00
H502   H     0.34227   0.10067   0.57179   0.00000  Uiso   1.00
H503   H     0.35894   0.23120   0.53296   0.00000  Uiso   1.00
H504   H     0.43583   0.08734   0.87053   0.00000  Uiso   1.00
H505   H     0.35314   0.02028   0.64041   0.00000  Uiso   1.00
H506   H     0.38432   0.29057   0.64435   0.00000  Uiso   1.00
H507   H     0.42978   0.01627   0.64443   0.00000  Uiso   1.00
H508   H     0.60502   0.33059   0.76174   0.00000  Uiso   1.00
H509   H     0.48995   0.12503   0.70823   0.00000  Uiso   1.00
H510   H     0.51003   0.20828   0.79178   0.00000  Uiso   1.00
H511   H     0.53162   0.05954   0.90651   0.00000  Uiso   1.00
H512   H     0.62230   0.06735   0.97801   0.00000  Uiso   1.00
H513   H     0.54252   0.20221   0.58604   0.00000  Uiso   1.00
H514   H     0.65134   0.21571   0.93200   0.00000  Uiso   1.00
H515   H     0.45173   0.20016   0.57352   0.00000  Uiso   1.00
N516   N     0.47827   0.15223   0.73542   0.00000  Uiso   1.00
N517   N     0.52173   0.18110   0.76457   0.00000  Uiso   1.00
O518   O     0.63102   0.24629   0.75358   0.00000  Uiso   1.00
O519   O     0.39075   0.23704   0.74423   0.00000  Uiso   1.00
O520   O     0.64823   0.17358   0.83380   0.00000  Uiso   1.00
O521   O     0.40796   0.16433   0.82446   0.00000  Uiso   1.00
O522   O     0.60925   0.09629   0.75577   0.00000  Uiso   1.00
O523   O     0.36898   0.08704   0.74642   0.00000  Uiso   1.00
O524   O     0.59204   0.16901   0.67554   0.00000  Uiso   1.00
O525   O     0.35177   0.15976   0.66620   0.00000  Uiso   1.00
O526   O     0.40228   0.00470   0.71879   0.00000  Uiso   1.00
Zn527  Zn    0.60453   0.17284   0.75624   0.00000  Uiso   1.00
Zn528  Zn    0.39547   0.16049   0.74376   0.00000  Uiso   1.00
C529   C     0.68087   0.26460   0.74643   0.00000  Uiso   1.00
C530   C     0.71964   0.16803   0.91604   0.00000  Uiso   1.00
C531   C     0.68643   0.31809   0.73727   0.00000  Uiso   1.00
C532   C     0.70200   0.16791   0.85516   0.00000  Uiso   1.00
C533   C     0.97750   0.01373   0.74907   0.00000  Uiso   1.00
C534   C     0.98483   0.06838   0.74967   0.00000  Uiso   1.00
C535   C     0.96413   0.16276   0.64485   0.00000  Uiso   1.00
C536   C     0.93675   0.09581   0.50172   0.00000  Uiso   1.00
C537   C     0.94331   0.15223   0.58509   0.00000  Uiso   1.00
C538   C     0.69097   0.19830   0.94987   0.00000  Uiso   1.00
C539   C     0.71467   0.20828   0.50670   0.00000  Uiso   1.00
C540   C     0.79859   0.16114   0.99509   0.00000  Uiso   1.00
C541   C     0.76859   0.19088   0.52918   0.00000  Uiso   1.00
C542   C     0.72454   0.33238   0.65940   0.00000  Uiso   1.00
C543   C     0.77006   0.14441   0.94009   0.00000  Uiso   1.00
C544   C     0.85609   0.14770   0.51356   0.00000  Uiso   1.00
C545   C     0.88046   0.11080   0.98162   0.00000  Uiso   1.00
C546   C     0.84786   0.08885   0.93077   0.00000  Uiso   1.00
C547   C     0.79328   0.10554   0.91006   0.00000  Uiso   1.00
C548   C     0.89047   0.17093   0.56265   0.00000  Uiso   1.00
C549   C     0.96766   0.11557   0.55429   0.00000  Uiso   1.00
H550   H     0.67561   0.10067   0.57179   0.00000  Uiso   1.00
H551   H     0.69227   0.23120   0.53296   0.00000  Uiso   1.00
H552   H     0.76917   0.08734   0.87053   0.00000  Uiso   1.00
H553   H     0.68648   0.02028   0.64041   0.00000  Uiso   1.00
H554   H     0.71765   0.29057   0.64435   0.00000  Uiso   1.00
H555   H     0.76311   0.01627   0.64443   0.00000  Uiso   1.00
H556   H     0.93835   0.33059   0.76174   0.00000  Uiso   1.00
H557   H     0.82328   0.12503   0.70823   0.00000  Uiso   1.00
H558   H     0.84337   0.20828   0.79178   0.00000  Uiso   1.00
H559   H     0.86495   0.05954   0.90651   0.00000  Uiso   1.00
H560   H     0.95563   0.06735   0.97801   0.00000  Uiso   1.00
H561   H     0.87585   0.20221   0.58604   0.00000  Uiso   1.00
H562   H     0.98467   0.21571   0.93200   0.00000  Uiso   1.00
H563   H     0.78506   0.20016   0.57352   0.00000  Uiso   1.00
N564   N     0.81160   0.15223   0.73542   0.00000  Uiso   1.00
N565   N     0.85507   0.18110   0.76457   0.00000  Uiso   1.00
O566   O     0.96435   0.24629   0.75358   0.00000  Uiso   1.00
O567   O     0.72408   0.23704   0.74423   0.00000  Uiso   1.00
O568   O     0.98157   0.17358   0.83380   0.00000  Uiso   1.00
O569   O     0.74130   0.16433   0.82446   0.00000  Uiso   1.00
O570   O     0.94258   0.09629   0.75577   0.00000  Uiso   1.00
O571   O     0.70231   0.08704   0.74642   0.00000  Uiso   1.00
O572   O     0.92537   0.16901   0.67554   0.00000  Uiso   1.00
O573   O     0.68510   0.15976   0.66620   0.00000  Uiso   1.00
O574   O     0.73561   0.00470   0.71879   0.00000  Uiso   1.00
Zn575  Zn    0.93786   0.17284   0.75624   0.00000  Uiso   1.00
Zn576  Zn    0.72881   0.16049   0.74376   0.00000  Uiso   1.00
C577   C     0.01420   0.59793   0.74643   0.00000  Uiso   1.00
C578   C     0.05298   0.50136   0.91604   0.00000  Uiso   1.00
C579   C     0.01977   0.65143   0.73727   0.00000  Uiso   1.00
C580   C     0.03533   0.50124   0.85516   0.00000  Uiso   1.00
C581   C     0.31083   0.34707   0.74907   0.00000  Uiso   1.00
C582   C     0.31816   0.40171   0.74967   0.00000  Uiso   1.00
C583   C     0.29747   0.49610   0.64485   0.00000  Uiso   1.00
C584   C     0.27008   0.42914   0.50172   0.00000  Uiso   1.00
C585   C     0.27664   0.48556   0.58509   0.00000  Uiso   1.00
C586   C     0.02431   0.53164   0.94987   0.00000  Uiso   1.00
C587   C     0.04800   0.54161   0.50670   0.00000  Uiso   1.00
C588   C     0.13192   0.49447   0.99509   0.00000  Uiso   1.00
C589   C     0.10192   0.52422   0.52918   0.00000  Uiso   1.00
C590   C     0.05788   0.66572   0.65940   0.00000  Uiso   1.00
C591   C     0.10340   0.47774   0.94009   0.00000  Uiso   1.00
C592   C     0.18943   0.48103   0.51356   0.00000  Uiso   1.00
C593   C     0.21380   0.44413   0.98162   0.00000  Uiso   1.00
C594   C     0.18119   0.42218   0.93077   0.00000  Uiso   1.00
C595   C     0.12661   0.43887   0.91006   0.00000  Uiso   1.00
C596   C     0.22381   0.50426   0.56265   0.00000  Uiso   1.00
C597   C     0.30099   0.44890   0.55429   0.00000  Uiso   1.00
H598   H     0.00894   0.43400   0.57179   0.00000  Uiso   1.00
H599   H     0.02561   0.56453   0.53296   0.00000  Uiso   1.00
H600   H     0.10250   0.42068   0.87053   0.00000  Uiso   1.00
H601   H     0.01981   0.35361   0.64041   0.00000  Uiso   1.00
H602   H     0.05099   0.62390   0.64435   0.00000  Uiso   1.00
H603   H     0.09644   0.34960   0.64443   0.00000  Uiso   1.00
H604   H     0.27168   0.66392   0.76174   0.00000  Uiso   1.00
H605   H     0.15661   0.45836   0.70823   0.00000  Uiso   1.00
H606   H     0.17670   0.54161   0.79178   0.00000  Uiso   1.00
H607   H     0.19829   0.39287   0.90651   0.00000  Uiso   1.00
H608   H     0.28897   0.40068   0.97801   0.00000  Uiso   1.00
H609   H     0.20918   0.53555   0.58604   0.00000  Uiso   1.00
H610   H     0.31800   0.54904   0.93200   0.00000  Uiso   1.00
H611   H     0.11839   0.53349   0.57352   0.00000  Uiso   1.00
N612   N     0.14493   0.48556   0.73542   0.00000  Uiso   1.00
N613   N     0.18840   0.51444   0.76457   0.00000  Uiso   1.00
O614   O     0.29769   0.57963   0.75358   0.00000  Uiso   1.00
O615   O     0.05742   0.57038   0.74423   0.00000  Uiso   1.00
O616   O     0.31490   0.50691   0.83380   0.00000  Uiso   1.00
O617   O     0.07463   0.49766   0.82446   0.00000  Uiso   1.00
O618   O     0.27592   0.42962   0.75577   0.00000  Uiso   1.00
O619   O     0.03565   0.42037   0.74642   0.00000  Uiso   1.00
O620   O     0.25870   0.50234   0.67554   0.00000  Uiso   1.00
O621   O     0.01843   0.49309   0.66620   0.00000  Uiso   1.00
O622   O     0.06894   0.33803   0.71879   0.00000  Uiso   1.00
Zn623  Zn    0.27119   0.50618   0.75624   0.00000  Uiso   1.00
Zn624  Zn    0.06214   0.49382   0.74376   0.00000  Uiso   1.00
C625   C     0.34754   0.59793   0.74643   0.00000  Uiso   1.00
C626   C     0.38631   0.50136   0.91604   0.00000  Uiso   1.00
C627   C     0.35310   0.65143   0.73727   0.00000  Uiso   1.00
C628   C     0.36866   0.50124   0.85516   0.00000  Uiso   1.00
C629   C     0.64417   0.34707   0.74907   0.00000  Uiso   1.00
C630   C     0.65149   0.40171   0.74967   0.00000  Uiso   1.00
C631   C     0.63080   0.49610   0.64485   0.00000  Uiso   1.00
C632   C     0.60342   0.42914   0.50172   0.00000  Uiso   1.00
C633   C     0.60997   0.48556   0.58509   0.00000  Uiso   1.00
C634   C     0.35764   0.53164   0.94987   0.00000  Uiso   1.00
C635   C     0.38133   0.54161   0.50670   0.00000  Uiso   1.00
C636   C     0.46525   0.49447   0.99509   0.00000  Uiso   1.00
C637   C     0.43525   0.52422   0.52918   0.00000  Uiso   1.00
C638   C     0.39121   0.66572   0.65940   0.00000  Uiso   1.00
C639   C     0.43673   0.47774   0.94009   0.00000  Uiso   1.00
C640   C     0.52276   0.48103   0.51356   0.00000  Uiso   1.00
C641   C     0.54713   0.44413   0.98162   0.00000  Uiso   1.00
C642   C     0.51452   0.42218   0.93077   0.00000  Uiso   1.00
C643   C     0.45994   0.43887   0.91006   0.00000  Uiso   1.00
C644   C     0.55714   0.50426   0.56265   0.00000  Uiso   1.00
C645   C     0.63433   0.44890   0.55429   0.00000  Uiso   1.00
H646   H     0.34227   0.43400   0.57179   0.00000  Uiso   1.00
H647   H     0.35894   0.56453   0.53296   0.00000  Uiso   1.00
H648   H     0.43583   0.42068   0.87053   0.00000  Uiso   1.00
H649   H     0.35314   0.35361   0.64041   0.00000  Uiso   1.00
H650   H     0.38432   0.62390   0.64435   0.00000  Uiso   1.00
H651   H     0.42978   0.34960   0.64443   0.00000  Uiso   1.00
H652   H     0.60502   0.66392   0.76174   0.00000  Uiso   1.00
H653   H     0.48995   0.45836   0.70823   0.00000  Uiso   1.00
H654   H     0.51003   0.54161   0.79178   0.00000  Uiso   1.00
H655   H     0.53162   0.39287   0.90651   0.00000  Uiso   1.00
H656   H     0.62230   0.40068   0.97801   0.00000  Uiso   1.00
H657   H     0.54252   0.53555   0.58604   0.00000  Uiso   1.00
H658   H     0.65134   0.54904   0.93200   0.00000  Uiso   1.00
H659   H     0.45173   0.53349   0.57352   0.00000  Uiso   1.00
N660   N     0.47827   0.48556   0.73542   0.00000  Uiso   1.00
N661   N     0.52173   0.51444   0.76457   0.00000  Uiso   1.00
O662   O     0.63102   0.57963   0.75358   0.00000  Uiso   1.00
O663   O     0.39075   0.57038   0.74423   0.00000  Uiso   1.00
O664   O     0.64823   0.50691   0.83380   0.00000  Uiso   1.00
O665   O     0.40796   0.49766   0.82446   0.00000  Uiso   1.00
O666   O     0.60925   0.42962   0.75577   0.00000  Uiso   1.00
O667   O     0.36898   0.42037   0.74642   0.00000  Uiso   1.00
O668   O     0.59204   0.50234   0.67554   0.00000  Uiso   1.00
O669   O     0.35177   0.49309   0.66620   0.00000  Uiso   1.00
O670   O     0.40228   0.33803   0.71879   0.00000  Uiso   1.00
Zn671  Zn    0.60453   0.50618   0.75624   0.00000  Uiso   1.00
Zn672  Zn    0.39547   0.49382   0.74376   0.00000  Uiso   1.00
C673   C     0.68087   0.59793   0.74643   0.00000  Uiso   1.00
C674   C     0.71964   0.50136   0.91604   0.00000  Uiso   1.00
C675   C     0.68643   0.65143   0.73727   0.00000  Uiso   1.00
C676   C     0.70200   0.50124   0.85516   0.00000  Uiso   1.00
C677   C     0.97750   0.34707   0.74907   0.00000  Uiso   1.00
C678   C     0.98483   0.40171   0.74967   0.00000  Uiso   1.00
C679   C     0.96413   0.49610   0.64485   0.00000  Uiso   1.00
C680   C     0.93675   0.42914   0.50172   0.00000  Uiso   1.00
C681   C     0.94331   0.48556   0.58509   0.00000  Uiso   1.00
C682   C     0.69097   0.53164   0.94987   0.00000  Uiso   1.00
C683   C     0.71467   0.54161   0.50670   0.00000  Uiso   1.00
C684   C     0.79859   0.49447   0.99509   0.00000  Uiso   1.00
C685   C     0.76859   0.52422   0.52918   0.00000  Uiso   1.00
C686   C     0.72454   0.66572   0.65940   0.00000  Uiso   1.00
C687   C     0.77006   0.47774   0.94009   0.00000  Uiso   1.00
C688   C     0.85609   0.48103   0.51356   0.00000  Uiso   1.00
C689   C     0.88046   0.44413   0.98162   0.00000  Uiso   1.00
C690   C     0.84786   0.42218   0.93077   0.00000  Uiso   1.00
C691   C     0.79328   0.43887   0.91006   0.00000  Uiso   1.00
C692   C     0.89047   0.50426   0.56265   0.00000  Uiso   1.00
C693   C     0.96766   0.44890   0.55429   0.00000  Uiso   1.00
H694   H     0.67561   0.43400   0.57179   0.00000  Uiso   1.00
H695   H     0.69227   0.56453   0.53296   0.00000  Uiso   1.00
H696   H     0.76917   0.42068   0.87053   0.00000  Uiso   1.00
H697   H     0.68648   0.35361   0.64041   0.00000  Uiso   1.00
H698   H     0.71765   0.62390   0.64435   0.00000  Uiso   1.00
H699   H     0.76311   0.34960   0.64443   0.00000  Uiso   1.00
H700   H     0.93835   0.66392   0.76174   0.00000  Uiso   1.00
H701   H     0.82328   0.45836   0.70823   0.00000  Uiso   1.00
H702   H     0.84337   0.54161   0.79178   0.00000  Uiso   1.00
H703   H     0.86495   0.39287   0.90651   0.00000  Uiso   1.00
H704   H     0.95563   0.40068   0.97801   0.00000  Uiso   1.00
H705   H     0.87585   0.53555   0.58604   0.00000  Uiso   1.00
H706   H     0.98467   0.54904   0.93200   0.00000  Uiso   1.00
H707   H     0.78506   0.53349   0.57352   0.00000  Uiso   1.00
N708   N     0.81160   0.48556   0.73542   0.00000  Uiso   1.00
N709   N     0.85507   0.51444   0.76457   0.00000  Uiso   1.00
O710   O     0.96435   0.57963   0.75358   0.00000  Uiso   1.00
O711   O     0.72408   0.57038   0.74423   0.00000  Uiso   1.00
O712   O     0.98157   0.50691   0.83380   0.00000  Uiso   1.00
O713   O     0.74130   0.49766   0.82446   0.00000  Uiso   1.00
O714   O     0.94258   0.42962   0.75577   0.00000  Uiso   1.00
O715   O     0.70231   0.42037   0.74642   0.00000  Uiso   1.00
O716   O     0.92537   0.50234   0.67554   0.00000  Uiso   1.00
O717   O     0.68510   0.49309   0.66620   0.00000  Uiso   1.00
O718   O     0.73561   0.33803   0.71879   0.00000  Uiso   1.00
Zn719  Zn    0.93786   0.50618   0.75624   0.00000  Uiso   1.00
Zn720  Zn    0.72881   0.49382   0.74376   0.00000  Uiso   1.00
C721   C     0.01420   0.93126   0.74643   0.00000  Uiso   1.00
C722   C     0.05298   0.83470   0.91604   0.00000  Uiso   1.00
C723   C     0.01977   0.98476   0.73727   0.00000  Uiso   1.00
C724   C     0.03533   0.83458   0.85516   0.00000  Uiso   1.00
C725   C     0.31083   0.68040   0.74907   0.00000  Uiso   1.00
C726   C     0.31816   0.73504   0.74967   0.00000  Uiso   1.00
C727   C     0.29747   0.82943   0.64485   0.00000  Uiso   1.00
C728   C     0.27008   0.76248   0.50172   0.00000  Uiso   1.00
C729   C     0.27664   0.81890   0.58509   0.00000  Uiso   1.00
C730   C     0.02431   0.86497   0.94987   0.00000  Uiso   1.00
C731   C     0.04800   0.87494   0.50670   0.00000  Uiso   1.00
C732   C     0.13192   0.82780   0.99509   0.00000  Uiso   1.00
C733   C     0.10192   0.85755   0.52918   0.00000  Uiso   1.00
C734   C     0.05788   0.99905   0.65940   0.00000  Uiso   1.00
C735   C     0.10340   0.81107   0.94009   0.00000  Uiso   1.00
C736   C     0.18943   0.81436   0.51356   0.00000  Uiso   1.00
C737   C     0.21380   0.77746   0.98162   0.00000  Uiso   1.00
C738   C     0.18119   0.75552   0.93077   0.00000  Uiso   1.00
C739   C     0.12661   0.77220   0.91006   0.00000  Uiso   1.00
C740   C     0.22381   0.83759   0.56265   0.00000  Uiso   1.00
C741   C     0.30099   0.78223   0.55429   0.00000  Uiso   1.00
H742   H     0.00894   0.76734   0.57179   0.00000  Uiso   1.00
H743   H     0.02561   0.89786   0.53296   0.00000  Uiso   1.00
H744   H     0.10250   0.75401   0.87053   0.00000  Uiso   1.00
H745   H     0.01981   0.68694   0.64041   0.00000  Uiso   1.00
H746   H     0.05099   0.95724   0.64435   0.00000  Uiso   1.00
H747   H     0.09644   0.68294   0.64443   0.00000  Uiso   1.00
H748   H     0.27168   0.99726   0.76174   0.00000  Uiso   1.00
H749   H     0.15661   0.79169   0.70823   0.00000  Uiso   1.00
H750   H     0.17670   0.87495   0.79178   0.00000  Uiso   1.00
H751   H     0.19829   0.72621   0.90651   0.00000  Uiso   1.00
H752   H     0.28897   0.73401   0.97801   0.00000  Uiso   1.00
H753   H     0.20918   0.86888   0.58604   0.00000  Uiso   1.00
H754   H     0.31800   0.88237   0.93200   0.00000  Uiso   1.00
H755   H     0.11839   0.86682   0.57352   0.00000  Uiso   1.00
N756   N     0.14493   0.81890   0.73542   0.00000  Uiso   1.00
N757   N     0.18840   0.84777   0.76457   0.00000  Uiso   1.00
O758   O     0.29769   0.91296   0.75358   0.00000  Uiso   1.00
O759   O     0.05742   0.90371   0.74423   0.00000  Uiso   1.00
O760   O     0.31490   0.84024   0.83380   0.00000  Uiso   1.00
O761   O     0.07463   0.83099   0.82446   0.00000  Uiso   1.00
O762   O     0.27592   0.76296   0.75577   0.00000  Uiso   1.00
O763   O     0.03565   0.75371   0.74642   0.00000  Uiso   1.00
O764   O     0.25870   0.83567   0.67554   0.00000  Uiso   1.00
O765   O     0.01843   0.82642   0.66620   0.00000  Uiso   1.00
O766   O     0.06894   0.67137   0.71879   0.00000  Uiso   1.00
Zn767  Zn    0.27119   0.83951   0.75624   0.00000  Uiso   1.00
Zn768  Zn    0.06214   0.82716   0.74376   0.00000  Uiso   1.00
C769   C     0.34754   0.93126   0.74643   0.00000  Uiso   1.00
C770   C     0.38631   0.83470   0.91604   0.00000  Uiso   1.00
C771   C     0.35310   0.98476   0.73727   0.00000  Uiso   1.00
C772   C     0.36866   0.83458   0.85516   0.00000  Uiso   1.00
C773   C     0.64417   0.68040   0.74907   0.00000  Uiso   1.00
C774   C     0.65149   0.73504   0.74967   0.00000  Uiso   1.00
C775   C     0.63080   0.82943   0.64485   0.00000  Uiso   1.00
C776   C     0.60342   0.76248   0.50172   0.00000  Uiso   1.00
C777   C     0.60997   0.81890   0.58509   0.00000  Uiso   1.00
C778   C     0.35764   0.86497   0.94987   0.00000  Uiso   1.00
C779   C     0.38133   0.87494   0.50670   0.00000  Uiso   1.00
C780   C     0.46525   0.82780   0.99509   0.00000  Uiso   1.00
C781   C     0.43525   0.85755   0.52918   0.00000  Uiso   1.00
C782   C     0.39121   0.99905   0.65940   0.00000  Uiso   1.00
C783   C     0.43673   0.81107   0.94009   0.00000  Uiso   1.00
C784   C     0.52276   0.81436   0.51356   0.00000  Uiso   1.00
C785   C     0.54713   0.77746   0.98162   0.00000  Uiso   1.00
C786   C     0.51452   0.75552   0.93077   0.00000  Uiso   1.00
C787   C     0.45994   0.77220   0.91006   0.00000  Uiso   1.00
C788   C     0.55714   0.83759   0.56265   0.00000  Uiso   1.00
C789   C     0.63433   0.78223   0.55429   0.00000  Uiso   1.00
H790   H     0.34227   0.76734   0.57179   0.00000  Uiso   1.00
H791   H     0.35894   0.89786   0.53296   0.00000  Uiso   1.00
H792   H     0.43583   0.75401   0.87053   0.00000  Uiso   1.00
H793   H     0.35314   0.68694   0.64041   0.00000  Uiso   1.00
H794   H     0.38432   0.95724   0.64435   0.00000  Uiso   1.00
H795   H     0.42978   0.68294   0.64443   0.00000  Uiso   1.00
H796   H     0.60502   0.99726   0.76174   0.00000  Uiso   1.00
H797   H     0.48995   0.79169   0.70823   0.00000  Uiso   1.00
H798   H     0.51003   0.87495   0.79178   0.00000  Uiso   1.00
H799   H     0.53162   0.72621   0.90651   0.00000  Uiso   1.00
H800   H     0.62230   0.73401   0.97801   0.00000  Uiso   1.00
H801   H     0.54252   0.86888   0.58604   0.00000  Uiso   1.00
H802   H     0.65134   0.88237   0.93200   0.00000  Uiso   1.00
H803   H     0.45173   0.86682   0.57352   0.00000  Uiso   1.00
N804   N     0.47827   0.81890   0.73542   0.00000  Uiso   1.00
N805   N     0.52173   0.84777   0.76457   0.00000  Uiso   1.00
O806   O     0.63102   0.91296   0.75358   0.00000  Uiso   1.00
O807   O     0.39075   0.90371   0.74423   0.00000  Uiso   1.00
O808   O     0.64823   0.84024   0.83380   0.00000  Uiso   1.00
O809   O     0.40796   0.83099   0.82446   0.00000  Uiso   1.00
O810   O     0.60925   0.76296   0.75577   0.00000  Uiso   1.00
O811   O     0.36898   0.75371   0.74642   0.00000  Uiso   1.00
O812   O     0.59204   0.83567   0.67554   0.00000  Uiso   1.00
O813   O     0.35177   0.82642   0.66620   0.00000  Uiso   1.00
O814   O     0.40228   0.67137   0.71879   0.00000  Uiso   1.00
Zn815  Zn    0.60453   0.83951   0.75624   0.00000  Uiso   1.00
Zn816  Zn    0.39547   0.82716   0.74376   0.00000  Uiso   1.00
C817   C     0.68087   0.93126   0.74643   0.00000  Uiso   1.00
C818   C     0.71964   0.83470   0.91604   0.00000  Uiso   1.00
C819   C     0.68643   0.98476   0.73727   0.00000  Uiso   1.00
C820   C     0.70200   0.83458   0.85516   0.00000  Uiso   1.00
C821   C     0.97750   0.68040   0.74907   0.00000  Uiso   1.00
C822   C     0.98483   0.73504   0.74967   0.00000  Uiso   1.00
C823   C     0.96413   0.82943   0.64485   0.00000  Uiso   1.00
C824   C     0.93675   0.76248   0.50172   0.00000  Uiso   1.00
C825   C     0.94331   0.81890   0.58509   0.00000  Uiso   1.00
C826   C     0.69097   0.86497   0.94987   0.00000  Uiso   1.00
C827   C     0.71467   0.87494   0.50670   0.00000  Uiso   1.00
C828   C     0.79859   0.82780   0.99509   0.00000  Uiso   1.00
C829   C     0.76859   0.85755   0.52918   0.00000  Uiso   1.00
C830   C     0.72454   0.99905   0.65940   0.00000  Uiso   1.00
C831   C     0.77006   0.81107   0.94009   0.00000  Uiso   1.00
C832   C     0.85609   0.81436   0.51356   0.00000  Uiso   1.00
C833   C     0.88046   0.77746   0.98162   0.00000  Uiso   1.00
C834   C     0.84786   0.75552   0.93077   0.00000  Uiso   1.00
C835   C     0.79328   0.77220   0.91006   0.00000  Uiso   1.00
C836   C     0.89047   0.83759   0.56265   0.00000  Uiso   1.00
C837   C     0.96766   0.78223   0.55429   0.00000  Uiso   1.00
H838   H     0.67561   0.76734   0.57179   0.00000  Uiso   1.00
H839   H     0.69227   0.89786   0.53296   0.00000  Uiso   1.00
H840   H     0.76917   0.75401   0.87053   0.00000  Uiso   1.00
H841   H     0.68648   0.68694   0.64041   0.00000  Uiso   1.00
H842   H     0.71765   0.95724   0.64435   0.00000  Uiso   1.00
H843   H     0.76311   0.68294   0.64443   0.00000  Uiso   1.00
H844   H     0.93835   0.99726   0.76174   0.00000  Uiso   1.00
H845   H     0.82328   0.79169   0.70823   0.00000  Uiso   1.00
H846   H     0.84337   0.87495   0.79178   0.00000  Uiso   1.00
H847   H     0.86495   0.72621   0.90651   0.00000  Uiso   1.00
H848   H     0.95563   0.73401   0.97801   0.00000  Uiso   1.00
H849   H     0.87585   0.86888   0.58604   0.00000  Uiso   1.00
H850   H     0.98467   0.88237   0.93200   0.00000  Uiso   1.00
H851   H     0.78506   0.86682   0.57352   0.00000  Uiso   1.00
N852   N     0.81160   0.81890   0.73542   0.00000  Uiso   1.00
N853   N     0.85507   0.84777   0.76457   0.00000  Uiso   1.00
O854   O     0.96435   0.91296   0.75358   0.00000  Uiso   1.00
O855   O     0.72408   0.90371   0.74423   0.00000  Uiso   1.00
O856   O     0.98157   0.84024   0.83380   0.00000  Uiso   1.00
O857   O     0.74130   0.83099   0.82446   0.00000  Uiso   1.00
O858   O     0.94258   0.76296   0.75577   0.00000  Uiso   1.00
O859   O     0.70231   0.75371   0.74642   0.00000  Uiso   1.00
O860   O     0.92537   0.83567   0.67554   0.00000  Uiso   1.00
O861   O     0.68510   0.82642   0.66620   0.00000  Uiso   1.00
O862   O     0.73561   0.67137   0.71879   0.00000  Uiso   1.00
Zn863  Zn    0.93786   0.83951   0.75624   0.00000  Uiso   1.00
Zn864  Zn    0.72881   0.82716   0.74376   0.00000  Uiso   1.00
loop_
_geom_bond_atom_site_label_1
_geom_bond_atom_site_label_2
_geom_bond_distance
_geom_bond_site_symmetry_2
_ccdc_geom_bond_type
C1     O39     1.287   .     A
C1     C3      1.406   .     S
C1     O134    1.276   1_455 S
C2     C4      1.452   .     S
C2     C15     1.406   .     A
C2     C10     1.403   .     A
C3     C245    1.350   1_455 S
C3     O190    1.390   .     S
C4     O41     1.298   .     A
C4     O136    1.289   1_455 S
C5     C6      1.405   .     S
C5     C339    1.350   1_545 S
C5     H316    1.088   1_545 S
C6     O42     1.293   .     A
C6     O91     1.272   .     S
C7     O44     1.296   .     A
C7     C9      1.443   .     S
C7     O93     1.288   .     S
C8     C21     1.393   .     A
C8     C449    1.404   1_554 S
C8     H464    1.084   1_554 S
C9     C21     1.400   .     A
C9     C20     1.382   .     A
C10    C443    1.387   .     S
C10    H130    1.083   1_455 S
C11    C13     1.390   .     A
C11    H23     1.083   .     S
C11    C442    1.387   1_554 S
C12    C15     1.405   .     A
C12    C445    1.420   .     S
C12    C448    1.410   .     S
C13    H35     1.079   .     S
C13    C444    1.420   1_554 S
C14    H26     1.113   .     S
C14    H169    1.114   .     S
C14    H171    1.109   .     S
C14    O190    1.411   .     S
C15    C19     1.415   .     A
C16    C20     1.386   .     A
C16    C444    1.410   1_554 S
C16    C449    1.421   1_554 S
C17    C18     1.392   .     A
C17    C440    1.404   .     S
C17    C448    1.421   .     S
C18    C19     1.387   .     A
C18    H31     1.084   .     S
C19    H24     1.082   .     S
C20    H33     1.080   .     S
C21    H70     1.083   .     S
H22    C117    1.083   1_455 S
H25    C302    1.114   1_545 S
H27    C302    1.109   1_545 S
H28    C149    1.088   .     S
H29    N36     1.029   .     S
H30    N37     1.029   .     S
H32    C440    1.084   .     S
H34    C58     1.083   .     S
N36    Zn48    2.017   .     S
N36    N37     1.289   .     D
N37    Zn47    2.017   .     S
O38    Zn47    1.957   .     S
O38    C49     1.276   .     S
O39    Zn48    1.983   .     S
O40    Zn47    1.957   .     S
O40    C52     1.289   .     S
O41    Zn48    1.917   .     S
O42    Zn47    1.983   .     S
O43    Zn48    1.957   .     S
O43    C102    1.272   1_455 S
O44    Zn47    1.917   .     S
O45    Zn48    1.957   .     S
O45    C103    1.288   1_455 S
O46    C302    1.411   1_545 S
O46    C291    1.390   1_545 S
C49    O87     1.287   .     A
C49    C51     1.406   .     S
C50    C52     1.452   .     S
C50    C63     1.406   .     A
C50    C58     1.403   .     A
C51    C149    1.350   .     S
C51    O238    1.390   .     S
C52    O89     1.298   .     A
C53    C54     1.405   .     S
C53    C387    1.350   1_545 S
C53    H364    1.088   1_545 S
C54    O90     1.293   .     A
C54    O139    1.272   .     S
C55    O92     1.296   .     A
C55    C57     1.443   .     S
C55    O141    1.288   .     S
C56    C69     1.393   .     A
C56    C497    1.404   1_554 S
C56    H512    1.084   1_554 S
C57    C69     1.400   .     A
C57    C68     1.382   .     A
C58    C491    1.387   .     S
C59    C61     1.390   .     A
C59    H71     1.083   .     S
C59    C490    1.387   1_554 S
C60    C63     1.405   .     A
C60    C493    1.420   .     S
C60    C496    1.410   .     S
C61    H83     1.079   .     S
C61    C492    1.420   1_554 S
C62    H74     1.113   .     S
C62    H217    1.114   .     S
C62    H219    1.109   .     S
C62    O238    1.411   .     S
C63    C67     1.415   .     A
C64    C68     1.386   .     A
C64    C492    1.410   1_554 S
C64    C497    1.421   1_554 S
C65    C66     1.392   .     A
C65    C488    1.404   .     S
C65    C496    1.421   .     S
C66    C67     1.387   .     A
C66    H79     1.084   .     S
C67    H72     1.082   .     S
C68    H81     1.080   .     S
C69    H118    1.083   .     S
H73    C350    1.114   1_545 S
H75    C350    1.109   1_545 S
H76    C197    1.088   .     S
H77    N84     1.029   .     S
H78    N85     1.029   .     S
H80    C488    1.084   .     S
H82    C106    1.083   .     S
N84    Zn96    2.017   .     S
N84    N85     1.289   .     D
N85    Zn95    2.017   .     S
O86    Zn95    1.957   .     S
O86    C97     1.276   .     S
O87    Zn96    1.983   .     S
O88    Zn95    1.957   .     S
O88    C100    1.289   .     S
O89    Zn96    1.917   .     S
O90    Zn95    1.983   .     S
O91    Zn96    1.957   .     S
O92    Zn95    1.917   .     S
O93    Zn96    1.957   .     S
O94    C350    1.411   1_545 S
O94    C339    1.390   1_545 S
C97    O135    1.287   .     A
C97    C99     1.406   .     S
C98    C100    1.452   .     S
C98    C111    1.406   .     A
C98    C106    1.403   .     A
C99    C197    1.350   .     S
C99    O286    1.390   .     S
C100   O137    1.298   .     A
C101   C102    1.405   .     S
C101   C291    1.350   1_645 S
C101   H412    1.088   1_545 S
C102   O138    1.293   .     A
C102   O43     1.272   1_655 S
C103   O140    1.296   .     A
C103   C105    1.443   .     S
C103   O45     1.288   1_655 S
C104   C117    1.393   .     A
C104   C545    1.404   1_554 S
C104   H560    1.084   1_554 S
C105   C117    1.400   .     A
C105   C116    1.382   .     A
C106   C539    1.387   .     S
C107   C109    1.390   .     A
C107   H119    1.083   .     S
C107   C538    1.387   1_554 S
C108   C111    1.405   .     A
C108   C541    1.420   .     S
C108   C544    1.410   .     S
C109   H131    1.079   .     S
C109   C540    1.420   1_554 S
C110   H122    1.113   .     S
C110   H265    1.114   .     S
C110   H267    1.109   .     S
C110   O286    1.411   .     S
C111   C115    1.415   .     A
C112   C116    1.386   .     A
C112   C540    1.410   1_554 S
C112   C545    1.421   1_554 S
C113   C114    1.392   .     A
C113   C536    1.404   .     S
C113   C544    1.421   .     S
C114   C115    1.387   .     A
C114   H127    1.084   .     S
C115   H120    1.082   .     S
C116   H129    1.080   .     S
C117   H22     1.083   1_655 S
H121   C398    1.114   1_545 S
H123   C398    1.109   1_545 S
H124   C245    1.088   .     S
H125   N132    1.029   .     S
H126   N133    1.029   .     S
H128   C536    1.084   .     S
H130   C10     1.083   1_655 S
N132   Zn144   2.017   .     S
N132   N133    1.289   .     D
N133   Zn143   2.017   .     S
O134   Zn143   1.957   .     S
O134   C1      1.276   1_655 S
O135   Zn144   1.983   .     S
O136   Zn143   1.957   .     S
O136   C4      1.289   1_655 S
O137   Zn144   1.917   .     S
O138   Zn143   1.983   .     S
O139   Zn144   1.957   .     S
O140   Zn143   1.917   .     S
O141   Zn144   1.957   .     S
O142   C398    1.411   1_545 S
O142   C387    1.390   1_545 S
C145   O183    1.287   .     A
C145   C147    1.406   .     S
C145   O278    1.276   1_455 S
C146   C148    1.452   .     S
C146   C159    1.406   .     A
C146   C154    1.403   .     A
C147   C389    1.350   1_455 S
C147   O334    1.390   .     S
C148   O185    1.298   .     A
C148   O280    1.289   1_455 S
C149   C150    1.405   .     S
C150   O186    1.293   .     A
C150   O235    1.272   .     S
C151   O188    1.296   .     A
C151   C153    1.443   .     S
C151   O237    1.288   .     S
C152   C165    1.393   .     A
C152   C593    1.404   1_554 S
C152   H608    1.084   1_554 S
C153   C165    1.400   .     A
C153   C164    1.382   .     A
C154   C587    1.387   .     S
C154   H274    1.083   1_455 S
C155   C157    1.390   .     A
C155   H167    1.083   .     S
C155   C586    1.387   1_554 S
C156   C159    1.405   .     A
C156   C589    1.420   .     S
C156   C592    1.410   .     S
C157   H179    1.079   .     S
C157   C588    1.420   1_554 S
C158   H170    1.113   .     S
C158   H313    1.114   .     S
C158   H315    1.109   .     S
C158   O334    1.411   .     S
C159   C163    1.415   .     A
C160   C164    1.386   .     A
C160   C588    1.410   1_554 S
C160   C593    1.421   1_554 S
C161   C162    1.392   .     A
C161   C584    1.404   .     S
C161   C592    1.421   .     S
C162   C163    1.387   .     A
C162   H175    1.084   .     S
C163   H168    1.082   .     S
C164   H177    1.080   .     S
C165   H214    1.083   .     S
H166   C261    1.083   1_455 S
H172   C293    1.088   .     S
H173   N180    1.029   .     S
H174   N181    1.029   .     S
H176   C584    1.084   .     S
H178   C202    1.083   .     S
N180   Zn192   2.017   .     S
N180   N181    1.289   .     D
N181   Zn191   2.017   .     S
O182   Zn191   1.957   .     S
O182   C193    1.276   .     S
O183   Zn192   1.983   .     S
O184   Zn191   1.957   .     S
O184   C196    1.289   .     S
O185   Zn192   1.917   .     S
O186   Zn191   1.983   .     S
O187   Zn192   1.957   .     S
O187   C246    1.272   1_455 S
O188   Zn191   1.917   .     S
O189   Zn192   1.957   .     S
O189   C247    1.288   1_455 S
C193   O231    1.287   .     A
C193   C195    1.406   .     S
C194   C196    1.452   .     S
C194   C207    1.406   .     A
C194   C202    1.403   .     A
C195   C293    1.350   .     S
C195   O382    1.390   .     S
C196   O233    1.298   .     A
C197   C198    1.405   .     S
C198   O234    1.293   .     A
C198   O283    1.272   .     S
C199   O236    1.296   .     A
C199   C201    1.443   .     S
C199   O285    1.288   .     S
C200   C213    1.393   .     A
C200   C641    1.404   1_554 S
C200   H656    1.084   1_554 S
C201   C213    1.400   .     A
C201   C212    1.382   .     A
C202   C635    1.387   .     S
C203   C205    1.390   .     A
C203   H215    1.083   .     S
C203   C634    1.387   1_554 S
C204   C207    1.405   .     A
C204   C637    1.420   .     S
C204   C640    1.410   .     S
C205   H227    1.079   .     S
C205   C636    1.420   1_554 S
C206   H218    1.113   .     S
C206   H361    1.114   .     S
C206   H363    1.109   .     S
C206   O382    1.411   .     S
C207   C211    1.415   .     A
C208   C212    1.386   .     A
C208   C636    1.410   1_554 S
C208   C641    1.421   1_554 S
C209   C210    1.392   .     A
C209   C632    1.404   .     S
C209   C640    1.421   .     S
C210   C211    1.387   .     A
C210   H223    1.084   .     S
C211   H216    1.082   .     S
C212   H225    1.080   .     S
C213   H262    1.083   .     S
H220   C341    1.088   .     S
H221   N228    1.029   .     S
H222   N229    1.029   .     S
H224   C632    1.084   .     S
H226   C250    1.083   .     S
N228   Zn240   2.017   .     S
N228   N229    1.289   .     D
N229   Zn239   2.017   .     S
O230   Zn239   1.957   .     S
O230   C241    1.276   .     S
O231   Zn240   1.983   .     S
O232   Zn239   1.957   .     S
O232   C244    1.289   .     S
O233   Zn240   1.917   .     S
O234   Zn239   1.983   .     S
O235   Zn240   1.957   .     S
O236   Zn239   1.917   .     S
O237   Zn240   1.957   .     S
C241   O279    1.287   .     A
C241   C243    1.406   .     S
C242   C244    1.452   .     S
C242   C255    1.406   .     A
C242   C250    1.403   .     A
C243   C341    1.350   .     S
C243   O430    1.390   .     S
C244   O281    1.298   .     A
C245   C246    1.405   .     S
C245   C3      1.350   1_655 S
C246   O282    1.293   .     A
C246   O187    1.272   1_655 S
C247   O284    1.296   .     A
C247   C249    1.443   .     S
C247   O189    1.288   1_655 S
C248   C261    1.393   .     A
C248   C689    1.404   1_554 S
C248   H704    1.084   1_554 S
C249   C261    1.400   .     A
C249   C260    1.382   .     A
C250   C683    1.387   .     S
C251   C253    1.390   .     A
C251   H263    1.083   .     S
C251   C682    1.387   1_554 S
C252   C255    1.405   .     A
C252   C685    1.420   .     S
C252   C688    1.410   .     S
C253   H275    1.079   .     S
C253   C684    1.420   1_554 S
C254   H266    1.113   .     S
C254   H409    1.114   .     S
C254   H411    1.109   .     S
C254   O430    1.411   .     S
C255   C259    1.415   .     A
C256   C260    1.386   .     A
C256   C684    1.410   1_554 S
C256   C689    1.421   1_554 S
C257   C258    1.392   .     A
C257   C680    1.404   .     S
C257   C688    1.421   .     S
C258   C259    1.387   .     A
C258   H271    1.084   .     S
C259   H264    1.082   .     S
C260   H273    1.080   .     S
C261   H166    1.083   1_655 S
H268   C389    1.088   .     S
H269   N276    1.029   .     S
H270   N277    1.029   .     S
H272   C680    1.084   .     S
H274   C154    1.083   1_655 S
N276   Zn288   2.017   .     S
N276   N277    1.289   .     D
N277   Zn287   2.017   .     S
O278   Zn287   1.957   .     S
O278   C145    1.276   1_655 S
O279   Zn288   1.983   .     S
O280   Zn287   1.957   .     S
O280   C148    1.289   1_655 S
O281   Zn288   1.917   .     S
O282   Zn287   1.983   .     S
O283   Zn288   1.957   .     S
O284   Zn287   1.917   .     S
O285   Zn288   1.957   .     S
C289   O327    1.287   .     A
C289   C291    1.406   .     S
C289   O422    1.276   1_455 S
C290   C292    1.452   .     S
C290   C303    1.406   .     A
C290   C298    1.403   .     A
C291   C101    1.350   1_465 S
C291   O46     1.390   1_565 S
C292   O329    1.298   .     A
C292   O424    1.289   1_455 S
C293   C294    1.405   .     S
C294   O330    1.293   .     A
C294   O379    1.272   .     S
C295   O332    1.296   .     A
C295   C297    1.443   .     S
C295   O381    1.288   .     S
C296   C309    1.393   .     A
C296   C737    1.404   1_554 S
C296   H752    1.084   1_554 S
C297   C309    1.400   .     A
C297   C308    1.382   .     A
C298   C731    1.387   .     S
C298   H418    1.083   1_455 S
C299   C301    1.390   .     A
C299   H311    1.083   .     S
C299   C730    1.387   1_554 S
C300   C303    1.405   .     A
C300   C733    1.420   .     S
C300   C736    1.410   .     S
C301   H323    1.079   .     S
C301   C732    1.420   1_554 S
C302   H314    1.113   .     S
C302   H25     1.114   1_565 S
C302   H27     1.109   1_565 S
C302   O46     1.411   1_565 S
C303   C307    1.415   .     A
C304   C308    1.386   .     A
C304   C732    1.410   1_554 S
C304   C737    1.421   1_554 S
C305   C306    1.392   .     A
C305   C728    1.404   .     S
C305   C736    1.421   .     S
C306   C307    1.387   .     A
C306   H319    1.084   .     S
C307   H312    1.082   .     S
C308   H321    1.080   .     S
C309   H358    1.083   .     S
H310   C405    1.083   1_455 S
H316   C5      1.088   1_565 S
H317   N324    1.029   .     S
H318   N325    1.029   .     S
H320   C728    1.084   .     S
H322   C346    1.083   .     S
N324   Zn336   2.017   .     S
N324   N325    1.289   .     D
N325   Zn335   2.017   .     S
O326   Zn335   1.957   .     S
O326   C337    1.276   .     S
O327   Zn336   1.983   .     S
O328   Zn335   1.957   .     S
O328   C340    1.289   .     S
O329   Zn336   1.917   .     S
O330   Zn335   1.983   .     S
O331   Zn336   1.957   .     S
O331   C390    1.272   1_455 S
O332   Zn335   1.917   .     S
O333   Zn336   1.957   .     S
O333   C391    1.288   1_455 S
C337   O375    1.287   .     A
C337   C339    1.406   .     S
C338   C340    1.452   .     S
C338   C351    1.406   .     A
C338   C346    1.403   .     A
C339   C5      1.350   1_565 S
C339   O94     1.390   1_565 S
C340   O377    1.298   .     A
C341   C342    1.405   .     S
C342   O378    1.293   .     A
C342   O427    1.272   .     S
C343   O380    1.296   .     A
C343   C345    1.443   .     S
C343   O429    1.288   .     S
C344   C357    1.393   .     A
C344   C785    1.404   1_554 S
C344   H800    1.084   1_554 S
C345   C357    1.400   .     A
C345   C356    1.382   .     A
C346   C779    1.387   .     S
C347   C349    1.390   .     A
C347   H359    1.083   .     S
C347   C778    1.387   1_554 S
C348   C351    1.405   .     A
C348   C781    1.420   .     S
C348   C784    1.410   .     S
C349   H371    1.079   .     S
C349   C780    1.420   1_554 S
C350   H362    1.113   .     S
C350   H73     1.114   1_565 S
C350   H75     1.109   1_565 S
C350   O94     1.411   1_565 S
C351   C355    1.415   .     A
C352   C356    1.386   .     A
C352   C780    1.410   1_554 S
C352   C785    1.421   1_554 S
C353   C354    1.392   .     A
C353   C776    1.404   .     S
C353   C784    1.421   .     S
C354   C355    1.387   .     A
C354   H367    1.084   .     S
C355   H360    1.082   .     S
C356   H369    1.080   .     S
C357   H406    1.083   .     S
H364   C53     1.088   1_565 S
H365   N372    1.029   .     S
H366   N373    1.029   .     S
H368   C776    1.084   .     S
H370   C394    1.083   .     S
N372   Zn384   2.017   .     S
N372   N373    1.289   .     D
N373   Zn383   2.017   .     S
O374   Zn383   1.957   .     S
O374   C385    1.276   .     S
O375   Zn384   1.983   .     S
O376   Zn383   1.957   .     S
O376   C388    1.289   .     S
O377   Zn384   1.917   .     S
O378   Zn383   1.983   .     S
O379   Zn384   1.957   .     S
O380   Zn383   1.917   .     S
O381   Zn384   1.957   .     S
C385   O423    1.287   .     A
C385   C387    1.406   .     S
C386   C388    1.452   .     S
C386   C399    1.406   .     A
C386   C394    1.403   .     A
C387   C53     1.350   1_565 S
C387   O142    1.390   1_565 S
C388   O425    1.298   .     A
C389   C390    1.405   .     S
C389   C147    1.350   1_655 S
C390   O426    1.293   .     A
C390   O331    1.272   1_655 S
C391   O428    1.296   .     A
C391   C393    1.443   .     S
C391   O333    1.288   1_655 S
C392   C405    1.393   .     A
C392   C833    1.404   1_554 S
C392   H848    1.084   1_554 S
C393   C405    1.400   .     A
C393   C404    1.382   .     A
C394   C827    1.387   .     S
C395   C397    1.390   .     A
C395   H407    1.083   .     S
C395   C826    1.387   1_554 S
C396   C399    1.405   .     A
C396   C829    1.420   .     S
C396   C832    1.410   .     S
C397   H419    1.079   .     S
C397   C828    1.420   1_554 S
C398   H410    1.113   .     S
C398   H121    1.114   1_565 S
C398   H123    1.109   1_565 S
C398   O142    1.411   1_565 S
C399   C403    1.415   .     A
C400   C404    1.386   .     A
C400   C828    1.410   1_554 S
C400   C833    1.421   1_554 S
C401   C402    1.392   .     A
C401   C824    1.404   .     S
C401   C832    1.421   .     S
C402   C403    1.387   .     A
C402   H415    1.084   .     S
C403   H408    1.082   .     S
C404   H417    1.080   .     S
C405   H310    1.083   1_655 S
H412   C101    1.088   1_565 S
H413   N420    1.029   .     S
H414   N421    1.029   .     S
H416   C824    1.084   .     S
H418   C298    1.083   1_655 S
N420   Zn432   2.017   .     S
N420   N421    1.289   .     D
N421   Zn431   2.017   .     S
O422   Zn431   1.957   .     S
O422   C289    1.276   1_655 S
O423   Zn432   1.983   .     S
O424   Zn431   1.957   .     S
O424   C292    1.289   1_655 S
O425   Zn432   1.917   .     S
O426   Zn431   1.983   .     S
O427   Zn432   1.957   .     S
O428   Zn431   1.917   .     S
O429   Zn432   1.957   .     S
C433   O471    1.287   .     A
C433   C435    1.406   .     S
C433   O566    1.276   1_455 S
C434   C436    1.452   .     S
C434   C447    1.406   .     A
C434   C442    1.403   .     A
C435   C677    1.350   1_455 S
C435   O622    1.390   .     S
C436   O473    1.298   .     A
C436   O568    1.289   1_455 S
C437   C438    1.405   .     S
C437   C771    1.350   1_545 S
C437   H748    1.088   1_545 S
C438   O474    1.293   .     A
C438   O523    1.272   .     S
C439   O476    1.296   .     A
C439   C441    1.443   .     S
C439   O525    1.288   .     S
C440   C453    1.393   .     A
C441   C453    1.400   .     A
C441   C452    1.382   .     A
C442   C11     1.387   1_556 S
C442   H562    1.083   1_455 S
C443   C445    1.390   .     A
C443   H455    1.083   .     S
C444   C447    1.405   .     A
C444   C13     1.420   1_556 S
C444   C16     1.410   1_556 S
C445   H467    1.079   .     S
C446   H458    1.113   .     S
C446   H601    1.114   .     S
C446   H603    1.109   .     S
C446   O622    1.411   .     S
C447   C451    1.415   .     A
C448   C452    1.386   .     A
C449   C450    1.392   .     A
C449   C8      1.404   1_556 S
C449   C16     1.421   1_556 S
C450   C451    1.387   .     A
C450   H463    1.084   .     S
C451   H456    1.082   .     S
C452   H465    1.080   .     S
C453   H502    1.083   .     S
H454   C549    1.083   1_455 S
H457   C734    1.114   1_545 S
H459   C734    1.109   1_545 S
H460   C581    1.088   .     S
H461   N468    1.029   .     S
H462   N469    1.029   .     S
H464   C8      1.084   1_556 S
H466   C490    1.083   .     S
N468   Zn480   2.017   .     S
N468   N469    1.289   .     D
N469   Zn479   2.017   .     S
O470   Zn479   1.957   .     S
O470   C481    1.276   .     S
O471   Zn480   1.983   .     S
O472   Zn479   1.957   .     S
O472   C484    1.289   .     S
O473   Zn480   1.917   .     S
O474   Zn479   1.983   .     S
O475   Zn480   1.957   .     S
O475   C534    1.272   1_455 S
O476   Zn479   1.917   .     S
O477   Zn480   1.957   .     S
O477   C535    1.288   1_455 S
O478   C734    1.411   1_545 S
O478   C723    1.390   1_545 S
C481   O519    1.287   .     A
C481   C483    1.406   .     S
C482   C484    1.452   .     S
C482   C495    1.406   .     A
C482   C490    1.403   .     A
C483   C581    1.350   .     S
C483   O670    1.390   .     S
C484   O521    1.298   .     A
C485   C486    1.405   .     S
C485   C819    1.350   1_545 S
C485   H796    1.088   1_545 S
C486   O522    1.293   .     A
C486   O571    1.272   .     S
C487   O524    1.296   .     A
C487   C489    1.443   .     S
C487   O573    1.288   .     S
C488   C501    1.393   .     A
C489   C501    1.400   .     A
C489   C500    1.382   .     A
C490   C59     1.387   1_556 S
C491   C493    1.390   .     A
C491   H503    1.083   .     S
C492   C495    1.405   .     A
C492   C61     1.420   1_556 S
C492   C64     1.410   1_556 S
C493   H515    1.079   .     S
C494   H506    1.113   .     S
C494   H649    1.114   .     S
C494   H651    1.109   .     S
C494   O670    1.411   .     S
C495   C499    1.415   .     A
C496   C500    1.386   .     A
C497   C498    1.392   .     A
C497   C56     1.404   1_556 S
C497   C64     1.421   1_556 S
C498   C499    1.387   .     A
C498   H511    1.084   .     S
C499   H504    1.082   .     S
C500   H513    1.080   .     S
C501   H550    1.083   .     S
H505   C782    1.114   1_545 S
H507   C782    1.109   1_545 S
H508   C629    1.088   .     S
H509   N516    1.029   .     S
H510   N517    1.029   .     S
H512   C56     1.084   1_556 S
H514   C538    1.083   .     S
N516   Zn528   2.017   .     S
N516   N517    1.289   .     D
N517   Zn527   2.017   .     S
O518   Zn527   1.957   .     S
O518   C529    1.276   .     S
O519   Zn528   1.983   .     S
O520   Zn527   1.957   .     S
O520   C532    1.289   .     S
O521   Zn528   1.917   .     S
O522   Zn527   1.983   .     S
O523   Zn528   1.957   .     S
O524   Zn527   1.917   .     S
O525   Zn528   1.957   .     S
O526   C782    1.411   1_545 S
O526   C771    1.390   1_545 S
C529   O567    1.287   .     A
C529   C531    1.406   .     S
C530   C532    1.452   .     S
C530   C543    1.406   .     A
C530   C538    1.403   .     A
C531   C629    1.350   .     S
C531   O718    1.390   .     S
C532   O569    1.298   .     A
C533   C534    1.405   .     S
C533   C723    1.350   1_645 S
C533   H844    1.088   1_545 S
C534   O570    1.293   .     A
C534   O475    1.272   1_655 S
C535   O572    1.296   .     A
C535   C537    1.443   .     S
C535   O477    1.288   1_655 S
C536   C549    1.393   .     A
C537   C549    1.400   .     A
C537   C548    1.382   .     A
C538   C107    1.387   1_556 S
C539   C541    1.390   .     A
C539   H551    1.083   .     S
C540   C543    1.405   .     A
C540   C109    1.420   1_556 S
C540   C112    1.410   1_556 S
C541   H563    1.079   .     S
C542   H554    1.113   .     S
C542   H697    1.114   .     S
C542   H699    1.109   .     S
C542   O718    1.411   .     S
C543   C547    1.415   .     A
C544   C548    1.386   .     A
C545   C546    1.392   .     A
C545   C104    1.404   1_556 S
C545   C112    1.421   1_556 S
C546   C547    1.387   .     A
C546   H559    1.084   .     S
C547   H552    1.082   .     S
C548   H561    1.080   .     S
C549   H454    1.083   1_655 S
H553   C830    1.114   1_545 S
H555   C830    1.109   1_545 S
H556   C677    1.088   .     S
H557   N564    1.029   .     S
H558   N565    1.029   .     S
H560   C104    1.084   1_556 S
H562   C442    1.083   1_655 S
N564   Zn576   2.017   .     S
N564   N565    1.289   .     D
N565   Zn575   2.017   .     S
O566   Zn575   1.957   .     S
O566   C433    1.276   1_655 S
O567   Zn576   1.983   .     S
O568   Zn575   1.957   .     S
O568   C436    1.289   1_655 S
O569   Zn576   1.917   .     S
O570   Zn575   1.983   .     S
O571   Zn576   1.957   .     S
O572   Zn575   1.917   .     S
O573   Zn576   1.957   .     S
O574   C830    1.411   1_545 S
O574   C819    1.390   1_545 S
C577   O615    1.287   .     A
C577   C579    1.406   .     S
C577   O710    1.276   1_455 S
C578   C580    1.452   .     S
C578   C591    1.406   .     A
C578   C586    1.403   .     A
C579   C821    1.350   1_455 S
C579   O766    1.390   .     S
C580   O617    1.298   .     A
C580   O712    1.289   1_455 S
C581   C582    1.405   .     S
C582   O618    1.293   .     A
C582   O667    1.272   .     S
C583   O620    1.296   .     A
C583   C585    1.443   .     S
C583   O669    1.288   .     S
C584   C597    1.393   .     A
C585   C597    1.400   .     A
C585   C596    1.382   .     A
C586   C155    1.387   1_556 S
C586   H706    1.083   1_455 S
C587   C589    1.390   .     A
C587   H599    1.083   .     S
C588   C591    1.405   .     A
C588   C157    1.420   1_556 S
C588   C160    1.410   1_556 S
C589   H611    1.079   .     S
C590   H602    1.113   .     S
C590   H745    1.114   .     S
C590   H747    1.109   .     S
C590   O766    1.411   .     S
C591   C595    1.415   .     A
C592   C596    1.386   .     A
C593   C594    1.392   .     A
C593   C152    1.404   1_556 S
C593   C160    1.421   1_556 S
C594   C595    1.387   .     A
C594   H607    1.084   .     S
C595   H600    1.082   .     S
C596   H609    1.080   .     S
C597   H646    1.083   .     S
H598   C693    1.083   1_455 S
H604   C725    1.088   .     S
H605   N612    1.029   .     S
H606   N613    1.029   .     S
H608   C152    1.084   1_556 S
H610   C634    1.083   .     S
N612   Zn624   2.017   .     S
N612   N613    1.289   .     D
N613   Zn623   2.017   .     S
O614   Zn623   1.957   .     S
O614   C625    1.276   .     S
O615   Zn624   1.983   .     S
O616   Zn623   1.957   .     S
O616   C628    1.289   .     S
O617   Zn624   1.917   .     S
O618   Zn623   1.983   .     S
O619   Zn624   1.957   .     S
O619   C678    1.272   1_455 S
O620   Zn623   1.917   .     S
O621   Zn624   1.957   .     S
O621   C679    1.288   1_455 S
C625   O663    1.287   .     A
C625   C627    1.406   .     S
C626   C628    1.452   .     S
C626   C639    1.406   .     A
C626   C634    1.403   .     A
C627   C725    1.350   .     S
C627   O814    1.390   .     S
C628   O665    1.298   .     A
C629   C630    1.405   .     S
C630   O666    1.293   .     A
C630   O715    1.272   .     S
C631   O668    1.296   .     A
C631   C633    1.443   .     S
C631   O717    1.288   .     S
C632   C645    1.393   .     A
C633   C645    1.400   .     A
C633   C644    1.382   .     A
C634   C203    1.387   1_556 S
C635   C637    1.390   .     A
C635   H647    1.083   .     S
C636   C639    1.405   .     A
C636   C205    1.420   1_556 S
C636   C208    1.410   1_556 S
C637   H659    1.079   .     S
C638   H650    1.113   .     S
C638   H793    1.114   .     S
C638   H795    1.109   .     S
C638   O814    1.411   .     S
C639   C643    1.415   .     A
C640   C644    1.386   .     A
C641   C642    1.392   .     A
C641   C200    1.404   1_556 S
C641   C208    1.421   1_556 S
C642   C643    1.387   .     A
C642   H655    1.084   .     S
C643   H648    1.082   .     S
C644   H657    1.080   .     S
C645   H694    1.083   .     S
H652   C773    1.088   .     S
H653   N660    1.029   .     S
H654   N661    1.029   .     S
H656   C200    1.084   1_556 S
H658   C682    1.083   .     S
N660   Zn672   2.017   .     S
N660   N661    1.289   .     D
N661   Zn671   2.017   .     S
O662   Zn671   1.957   .     S
O662   C673    1.276   .     S
O663   Zn672   1.983   .     S
O664   Zn671   1.957   .     S
O664   C676    1.289   .     S
O665   Zn672   1.917   .     S
O666   Zn671   1.983   .     S
O667   Zn672   1.957   .     S
O668   Zn671   1.917   .     S
O669   Zn672   1.957   .     S
C673   O711    1.287   .     A
C673   C675    1.406   .     S
C674   C676    1.452   .     S
C674   C687    1.406   .     A
C674   C682    1.403   .     A
C675   C773    1.350   .     S
C675   O862    1.390   .     S
C676   O713    1.298   .     A
C677   C678    1.405   .     S
C677   C435    1.350   1_655 S
C678   O714    1.293   .     A
C678   O619    1.272   1_655 S
C679   O716    1.296   .     A
C679   C681    1.443   .     S
C679   O621    1.288   1_655 S
C680   C693    1.393   .     A
C681   C693    1.400   .     A
C681   C692    1.382   .     A
C682   C251    1.387   1_556 S
C683   C685    1.390   .     A
C683   H695    1.083   .     S
C684   C687    1.405   .     A
C684   C253    1.420   1_556 S
C684   C256    1.410   1_556 S
C685   H707    1.079   .     S
C686   H698    1.113   .     S
C686   H841    1.114   .     S
C686   H843    1.109   .     S
C686   O862    1.411   .     S
C687   C691    1.415   .     A
C688   C692    1.386   .     A
C689   C690    1.392   .     A
C689   C248    1.404   1_556 S
C689   C256    1.421   1_556 S
C690   C691    1.387   .     A
C690   H703    1.084   .     S
C691   H696    1.082   .     S
C692   H705    1.080   .     S
C693   H598    1.083   1_655 S
H700   C821    1.088   .     S
H701   N708    1.029   .     S
H702   N709    1.029   .     S
H704   C248    1.084   1_556 S
H706   C586    1.083   1_655 S
N708   Zn720   2.017   .     S
N708   N709    1.289   .     D
N709   Zn719   2.017   .     S
O710   Zn719   1.957   .     S
O710   C577    1.276   1_655 S
O711   Zn720   1.983   .     S
O712   Zn719   1.957   .     S
O712   C580    1.289   1_655 S
O713   Zn720   1.917   .     S
O714   Zn719   1.983   .     S
O715   Zn720   1.957   .     S
O716   Zn719   1.917   .     S
O717   Zn720   1.957   .     S
C721   O759    1.287   .     A
C721   C723    1.406   .     S
C721   O854    1.276   1_455 S
C722   C724    1.452   .     S
C722   C735    1.406   .     A
C722   C730    1.403   .     A
C723   C533    1.350   1_465 S
C723   O478    1.390   1_565 S
C724   O761    1.298   .     A
C724   O856    1.289   1_455 S
C725   C726    1.405   .     S
C726   O762    1.293   .     A
C726   O811    1.272   .     S
C727   O764    1.296   .     A
C727   C729    1.443   .     S
C727   O813    1.288   .     S
C728   C741    1.393   .     A
C729   C741    1.400   .     A
C729   C740    1.382   .     A
C730   C299    1.387   1_556 S
C730   H850    1.083   1_455 S
C731   C733    1.390   .     A
C731   H743    1.083   .     S
C732   C735    1.405   .     A
C732   C301    1.420   1_556 S
C732   C304    1.410   1_556 S
C733   H755    1.079   .     S
C734   H746    1.113   .     S
C734   H457    1.114   1_565 S
C734   H459    1.109   1_565 S
C734   O478    1.411   1_565 S
C735   C739    1.415   .     A
C736   C740    1.386   .     A
C737   C738    1.392   .     A
C737   C296    1.404   1_556 S
C737   C304    1.421   1_556 S
C738   C739    1.387   .     A
C738   H751    1.084   .     S
C739   H744    1.082   .     S
C740   H753    1.080   .     S
C741   H790    1.083   .     S
H742   C837    1.083   1_455 S
H748   C437    1.088   1_565 S
H749   N756    1.029   .     S
H750   N757    1.029   .     S
H752   C296    1.084   1_556 S
H754   C778    1.083   .     S
N756   Zn768   2.017   .     S
N756   N757    1.289   .     D
N757   Zn767   2.017   .     S
O758   Zn767   1.957   .     S
O758   C769    1.276   .     S
O759   Zn768   1.983   .     S
O760   Zn767   1.957   .     S
O760   C772    1.289   .     S
O761   Zn768   1.917   .     S
O762   Zn767   1.983   .     S
O763   Zn768   1.957   .     S
O763   C822    1.272   1_455 S
O764   Zn767   1.917   .     S
O765   Zn768   1.957   .     S
O765   C823    1.288   1_455 S
C769   O807    1.287   .     A
C769   C771    1.406   .     S
C770   C772    1.452   .     S
C770   C783    1.406   .     A
C770   C778    1.403   .     A
C771   C437    1.350   1_565 S
C771   O526    1.390   1_565 S
C772   O809    1.298   .     A
C773   C774    1.405   .     S
C774   O810    1.293   .     A
C774   O859    1.272   .     S
C775   O812    1.296   .     A
C775   C777    1.443   .     S
C775   O861    1.288   .     S
C776   C789    1.393   .     A
C777   C789    1.400   .     A
C777   C788    1.382   .     A
C778   C347    1.387   1_556 S
C779   C781    1.390   .     A
C779   H791    1.083   .     S
C780   C783    1.405   .     A
C780   C349    1.420   1_556 S
C780   C352    1.410   1_556 S
C781   H803    1.079   .     S
C782   H794    1.113   .     S
C782   H505    1.114   1_565 S
C782   H507    1.109   1_565 S
C782   O526    1.411   1_565 S
C783   C787    1.415   .     A
C784   C788    1.386   .     A
C785   C786    1.392   .     A
C785   C344    1.404   1_556 S
C785   C352    1.421   1_556 S
C786   C787    1.387   .     A
C786   H799    1.084   .     S
C787   H792    1.082   .     S
C788   H801    1.080   .     S
C789   H838    1.083   .     S
H796   C485    1.088   1_565 S
H797   N804    1.029   .     S
H798   N805    1.029   .     S
H800   C344    1.084   1_556 S
H802   C826    1.083   .     S
N804   Zn816   2.017   .     S
N804   N805    1.289   .     D
N805   Zn815   2.017   .     S
O806   Zn815   1.957   .     S
O806   C817    1.276   .     S
O807   Zn816   1.983   .     S
O808   Zn815   1.957   .     S
O808   C820    1.289   .     S
O809   Zn816   1.917   .     S
O810   Zn815   1.983   .     S
O811   Zn816   1.957   .     S
O812   Zn815   1.917   .     S
O813   Zn816   1.957   .     S
C817   O855    1.287   .     A
C817   C819    1.406   .     S
C818   C820    1.452   .     S
C818   C831    1.406   .     A
C818   C826    1.403   .     A
C819   C485    1.350   1_565 S
C819   O574    1.390   1_565 S
C820   O857    1.298   .     A
C821   C822    1.405   .     S
C821   C579    1.350   1_655 S
C822   O858    1.293   .     A
C822   O763    1.272   1_655 S
C823   O860    1.296   .     A
C823   C825    1.443   .     S
C823   O765    1.288   1_655 S
C824   C837    1.393   .     A
C825   C837    1.400   .     A
C825   C836    1.382   .     A
C826   C395    1.387   1_556 S
C827   C829    1.390   .     A
C827   H839    1.083   .     S
C828   C831    1.405   .     A
C828   C397    1.420   1_556 S
C828   C400    1.410   1_556 S
C829   H851    1.079   .     S
C830   H842    1.113   .     S
C830   H553    1.114   1_565 S
C830   H555    1.109   1_565 S
C830   O574    1.411   1_565 S
C831   C835    1.415   .     A
C832   C836    1.386   .     A
C833   C834    1.392   .     A
C833   C392    1.404   1_556 S
C833   C400    1.421   1_556 S
C834   C835    1.387   .     A
C834   H847    1.084   .     S
C835   H840    1.082   .     S
C836   H849    1.080   .     S
C837   H742    1.083   1_655 S
H844   C533    1.088   1_565 S
H845   N852    1.029   .     S
H846   N853    1.029   .     S
H848   C392    1.084   1_556 S
H850   C730    1.083   1_655 S
N852   Zn864   2.017   .     S
N852   N853    1.289   .     D
N853   Zn863   2.017   .     S
O854   Zn863   1.957   .     S
O854   C721    1.276   1_655 S
O855   Zn864   1.983   .     S
O856   Zn863   1.957   .     S
O856   C724    1.289   1_655 S
O857   Zn864   1.917   .     S
O858   Zn863   1.983   .     S
O859   Zn864   1.957   .     S
O860   Zn863   1.917   .     S
O861   Zn864   1.957   .     S
