data_str_m2_o1_o16_pcu_sym.163
_audit_creation_date              2020-01-03
_audit_creation_method            'Materials Studio'
_symmetry_space_group_name_H-M    'P1'
_symmetry_Int_Tables_number       1
_symmetry_cell_setting            triclinic
loop_
_symmetry_equiv_pos_as_xyz
  x,y,z
_cell_length_a                    28.5256
_cell_length_b                    32.5210
_cell_length_c                    26.9002
_cell_angle_alpha                 90.2590
_cell_angle_beta                  72.2785
_cell_angle_gamma                 90.2354
loop_
_atom_site_label
_atom_site_type_symbol
_atom_site_fract_x
_atom_site_fract_y
_atom_site_fract_z
_atom_site_U_iso_or_equiv
_atom_site_adp_type
_atom_site_occupancy
C1     C     0.16667   0.24593   0.25032   0.00000  Uiso   1.00
C2     C     0.14423   0.16970   0.49034   0.00000  Uiso   1.00
C3     C     0.15542   0.18038   0.43692   0.00000  Uiso   1.00
C4     C     0.18053   0.17613   0.01605   0.00000  Uiso   1.00
C5     C     0.22534   0.19634   0.48964   0.00000  Uiso   1.00
C6     C     0.23290   0.21113   0.43932   0.00000  Uiso   1.00
C7     C     0.19800   0.20410   0.41384   0.00000  Uiso   1.00
C8     C     0.17368   0.16302   0.06736   0.00000  Uiso   1.00
C9     C     0.25270   0.19103   0.06636   0.00000  Uiso   1.00
C10    C     0.12331   0.16773   0.40827   0.00000  Uiso   1.00
C11    C     0.21072   0.31225   0.23911   0.00000  Uiso   1.00
C12    C     0.14012   0.16783   0.35037   0.00000  Uiso   1.00
C13    C     0.21019   0.02145   0.23941   0.00000  Uiso   1.00
C14    C     0.16531   0.04260   0.25226   0.00000  Uiso   1.00
C15    C     0.12042   0.02056   0.26588   0.00000  Uiso   1.00
C16    C     0.12145   0.31121   0.26494   0.00000  Uiso   1.00
C17    C     0.16638   0.29041   0.25138   0.00000  Uiso   1.00
C18    C     0.30013   0.19409   0.27993   0.00000  Uiso   1.00
C19    C     0.01632   0.19391   0.28018   0.00000  Uiso   1.00
C20    C     0.03336   0.13945   0.21972   0.00000  Uiso   1.00
C21    C     0.31703   0.13942   0.21978   0.00000  Uiso   1.00
C22    C     0.16619   0.08733   0.25094   0.00000  Uiso   1.00
C23    C     0.19302   0.16714   0.14993   0.00000  Uiso   1.00
C24    C     0.26147   0.20276   0.01456   0.00000  Uiso   1.00
C25    C     0.20803   0.17223   0.09327   0.00000  Uiso   1.00
C26    C     0.07644   0.15132   0.43549   0.00000  Uiso   1.00
C27    C     0.06340   0.14578   0.48929   0.00000  Uiso   1.00
C28    C     0.09688   0.15381   0.01621   0.00000  Uiso   1.00
Cu29   Cu    0.11978   0.16666   0.25000   0.00000  Uiso   1.00
Cu30   Cu    0.21355   0.16667   0.25000   0.00000  Uiso   1.00
H31    H     0.27975   0.19829   0.08594   0.00000  Uiso   1.00
H32    H     0.24501   0.03775   0.22893   0.00000  Uiso   1.00
H33    H     0.08692   0.29444   0.27540   0.00000  Uiso   1.00
H34    H     0.27489   0.21632   0.30351   0.00000  Uiso   1.00
H35    H     0.02822   0.21572   0.30439   0.00000  Uiso   1.00
H36    H     0.05892   0.11766   0.19545   0.00000  Uiso   1.00
H37    H     0.30515   0.11764   0.19556   0.00000  Uiso   1.00
H38    H     0.26580   0.22847   0.41962   0.00000  Uiso   1.00
H39    H     0.29579   0.21809   0.49452   0.00000  Uiso   1.00
H40    H     0.14140   0.14608   0.08876   0.00000  Uiso   1.00
H41    H     0.08386   0.14820   0.05758   0.00000  Uiso   1.00
H42    H     0.02732   0.13381   0.01026   0.00000  Uiso   1.00
H43    H     0.20418   0.21863   0.37642   0.00000  Uiso   1.00
H44    H     0.24580   0.29652   0.22859   0.00000  Uiso   1.00
N45    N     0.04931   0.16666   0.24998   0.00000  Uiso   1.00
N46    N     0.28402   0.16669   0.25000   0.00000  Uiso   1.00
O47    O     0.12708   0.22678   0.25000   0.00000  Uiso   1.00
O48    O     0.20627   0.22679   0.25001   0.00000  Uiso   1.00
O49    O     0.10775   0.16665   0.32549   0.00000  Uiso   1.00
O50    O     0.18694   0.16666   0.32549   0.00000  Uiso   1.00
O51    O     0.12706   0.10654   0.24999   0.00000  Uiso   1.00
O52    O     0.20625   0.10655   0.25000   0.00000  Uiso   1.00
O53    O     0.14640   0.16667   0.17451   0.00000  Uiso   1.00
O54    O     0.22559   0.16668   0.17451   0.00000  Uiso   1.00
N55    N     0.07381   0.04112   0.28156   0.00000  Uiso   1.00
H56    H     0.05427   0.03128   0.31914   0.00000  Uiso   1.00
H57    H     0.05409   0.03205   0.25632   0.00000  Uiso   1.00
N58    N     0.04207   0.13937   0.40871   0.00000  Uiso   1.00
H59    H     0.03391   0.10816   0.41584   0.00000  Uiso   1.00
H60    H     0.00960   0.15599   0.42454   0.00000  Uiso   1.00
C61    C     0.50000   0.24593   0.25032   0.00000  Uiso   1.00
C62    C     0.47757   0.16970   0.49034   0.00000  Uiso   1.00
C63    C     0.48875   0.18038   0.43692   0.00000  Uiso   1.00
C64    C     0.51386   0.17613   0.01605   0.00000  Uiso   1.00
C65    C     0.55867   0.19634   0.48964   0.00000  Uiso   1.00
C66    C     0.56623   0.21113   0.43932   0.00000  Uiso   1.00
C67    C     0.53133   0.20410   0.41384   0.00000  Uiso   1.00
C68    C     0.50702   0.16302   0.06736   0.00000  Uiso   1.00
C69    C     0.58603   0.19103   0.06636   0.00000  Uiso   1.00
C70    C     0.45664   0.16773   0.40827   0.00000  Uiso   1.00
C71    C     0.54406   0.31225   0.23911   0.00000  Uiso   1.00
C72    C     0.47346   0.16783   0.35037   0.00000  Uiso   1.00
C73    C     0.54352   0.02145   0.23941   0.00000  Uiso   1.00
C74    C     0.49864   0.04260   0.25226   0.00000  Uiso   1.00
C75    C     0.45376   0.02056   0.26588   0.00000  Uiso   1.00
C76    C     0.45478   0.31121   0.26494   0.00000  Uiso   1.00
C77    C     0.49971   0.29041   0.25138   0.00000  Uiso   1.00
C78    C     0.63346   0.19409   0.27993   0.00000  Uiso   1.00
C79    C     0.34966   0.19391   0.28018   0.00000  Uiso   1.00
C80    C     0.36669   0.13945   0.21972   0.00000  Uiso   1.00
C81    C     0.65037   0.13942   0.21978   0.00000  Uiso   1.00
C82    C     0.49952   0.08733   0.25094   0.00000  Uiso   1.00
C83    C     0.52635   0.16714   0.14993   0.00000  Uiso   1.00
C84    C     0.59480   0.20276   0.01456   0.00000  Uiso   1.00
C85    C     0.54136   0.17223   0.09327   0.00000  Uiso   1.00
C86    C     0.40977   0.15132   0.43549   0.00000  Uiso   1.00
C87    C     0.39673   0.14578   0.48929   0.00000  Uiso   1.00
C88    C     0.43022   0.15381   0.01621   0.00000  Uiso   1.00
Cu89   Cu    0.45311   0.16666   0.25000   0.00000  Uiso   1.00
Cu90   Cu    0.54689   0.16667   0.25000   0.00000  Uiso   1.00
H91    H     0.61308   0.19829   0.08594   0.00000  Uiso   1.00
H92    H     0.57835   0.03775   0.22893   0.00000  Uiso   1.00
H93    H     0.42025   0.29444   0.27540   0.00000  Uiso   1.00
H94    H     0.60822   0.21632   0.30351   0.00000  Uiso   1.00
H95    H     0.36155   0.21572   0.30439   0.00000  Uiso   1.00
H96    H     0.39226   0.11766   0.19545   0.00000  Uiso   1.00
H97    H     0.63848   0.11764   0.19556   0.00000  Uiso   1.00
H98    H     0.59913   0.22847   0.41962   0.00000  Uiso   1.00
H99    H     0.62912   0.21809   0.49452   0.00000  Uiso   1.00
H100   H     0.47473   0.14608   0.08876   0.00000  Uiso   1.00
H101   H     0.41719   0.14820   0.05758   0.00000  Uiso   1.00
H102   H     0.36066   0.13381   0.01026   0.00000  Uiso   1.00
H103   H     0.53752   0.21863   0.37642   0.00000  Uiso   1.00
H104   H     0.57914   0.29652   0.22859   0.00000  Uiso   1.00
N105   N     0.38265   0.16666   0.24998   0.00000  Uiso   1.00
N106   N     0.61735   0.16669   0.25000   0.00000  Uiso   1.00
O107   O     0.46042   0.22678   0.25000   0.00000  Uiso   1.00
O108   O     0.53961   0.22679   0.25001   0.00000  Uiso   1.00
O109   O     0.44108   0.16665   0.32549   0.00000  Uiso   1.00
O110   O     0.52027   0.16666   0.32549   0.00000  Uiso   1.00
O111   O     0.46039   0.10654   0.24999   0.00000  Uiso   1.00
O112   O     0.53958   0.10655   0.25000   0.00000  Uiso   1.00
O113   O     0.47973   0.16667   0.17451   0.00000  Uiso   1.00
O114   O     0.55892   0.16668   0.17451   0.00000  Uiso   1.00
N115   N     0.40714   0.04112   0.28156   0.00000  Uiso   1.00
H116   H     0.38760   0.03128   0.31914   0.00000  Uiso   1.00
H117   H     0.38743   0.03205   0.25632   0.00000  Uiso   1.00
N118   N     0.37540   0.13937   0.40871   0.00000  Uiso   1.00
H119   H     0.36724   0.10816   0.41584   0.00000  Uiso   1.00
H120   H     0.34293   0.15599   0.42454   0.00000  Uiso   1.00
C121   C     0.83334   0.24593   0.25032   0.00000  Uiso   1.00
C122   C     0.81090   0.16970   0.49034   0.00000  Uiso   1.00
C123   C     0.82209   0.18038   0.43692   0.00000  Uiso   1.00
C124   C     0.84720   0.17613   0.01605   0.00000  Uiso   1.00
C125   C     0.89201   0.19634   0.48964   0.00000  Uiso   1.00
C126   C     0.89956   0.21113   0.43932   0.00000  Uiso   1.00
C127   C     0.86466   0.20410   0.41384   0.00000  Uiso   1.00
C128   C     0.84035   0.16302   0.06736   0.00000  Uiso   1.00
C129   C     0.91936   0.19103   0.06636   0.00000  Uiso   1.00
C130   C     0.78997   0.16773   0.40827   0.00000  Uiso   1.00
C131   C     0.87739   0.31225   0.23911   0.00000  Uiso   1.00
C132   C     0.80679   0.16783   0.35037   0.00000  Uiso   1.00
C133   C     0.87685   0.02145   0.23941   0.00000  Uiso   1.00
C134   C     0.83197   0.04260   0.25226   0.00000  Uiso   1.00
C135   C     0.78709   0.02056   0.26588   0.00000  Uiso   1.00
C136   C     0.78811   0.31121   0.26494   0.00000  Uiso   1.00
C137   C     0.83305   0.29041   0.25138   0.00000  Uiso   1.00
C138   C     0.96679   0.19409   0.27993   0.00000  Uiso   1.00
C139   C     0.68299   0.19391   0.28018   0.00000  Uiso   1.00
C140   C     0.70002   0.13945   0.21972   0.00000  Uiso   1.00
C141   C     0.98370   0.13942   0.21978   0.00000  Uiso   1.00
C142   C     0.83286   0.08733   0.25094   0.00000  Uiso   1.00
C143   C     0.85968   0.16714   0.14993   0.00000  Uiso   1.00
C144   C     0.92813   0.20276   0.01456   0.00000  Uiso   1.00
C145   C     0.87469   0.17223   0.09327   0.00000  Uiso   1.00
C146   C     0.74311   0.15132   0.43549   0.00000  Uiso   1.00
C147   C     0.73007   0.14578   0.48929   0.00000  Uiso   1.00
C148   C     0.76355   0.15381   0.01621   0.00000  Uiso   1.00
Cu149  Cu    0.78645   0.16666   0.25000   0.00000  Uiso   1.00
Cu150  Cu    0.88022   0.16667   0.25000   0.00000  Uiso   1.00
H151   H     0.94641   0.19829   0.08594   0.00000  Uiso   1.00
H152   H     0.91168   0.03775   0.22893   0.00000  Uiso   1.00
H153   H     0.75358   0.29444   0.27540   0.00000  Uiso   1.00
H154   H     0.94155   0.21632   0.30351   0.00000  Uiso   1.00
H155   H     0.69488   0.21572   0.30439   0.00000  Uiso   1.00
H156   H     0.72559   0.11766   0.19545   0.00000  Uiso   1.00
H157   H     0.97181   0.11764   0.19556   0.00000  Uiso   1.00
H158   H     0.93247   0.22847   0.41962   0.00000  Uiso   1.00
H159   H     0.96246   0.21809   0.49452   0.00000  Uiso   1.00
H160   H     0.80807   0.14608   0.08876   0.00000  Uiso   1.00
H161   H     0.75052   0.14820   0.05758   0.00000  Uiso   1.00
H162   H     0.69399   0.13381   0.01026   0.00000  Uiso   1.00
H163   H     0.87085   0.21863   0.37642   0.00000  Uiso   1.00
H164   H     0.91247   0.29652   0.22859   0.00000  Uiso   1.00
N165   N     0.71598   0.16666   0.24998   0.00000  Uiso   1.00
N166   N     0.95069   0.16669   0.25000   0.00000  Uiso   1.00
O167   O     0.79375   0.22678   0.25000   0.00000  Uiso   1.00
O168   O     0.87294   0.22679   0.25001   0.00000  Uiso   1.00
O169   O     0.77441   0.16665   0.32549   0.00000  Uiso   1.00
O170   O     0.85360   0.16666   0.32549   0.00000  Uiso   1.00
O171   O     0.79373   0.10654   0.24999   0.00000  Uiso   1.00
O172   O     0.87292   0.10655   0.25000   0.00000  Uiso   1.00
O173   O     0.81306   0.16667   0.17451   0.00000  Uiso   1.00
O174   O     0.89225   0.16668   0.17451   0.00000  Uiso   1.00
N175   N     0.74048   0.04112   0.28156   0.00000  Uiso   1.00
H176   H     0.72094   0.03128   0.31914   0.00000  Uiso   1.00
H177   H     0.72076   0.03205   0.25632   0.00000  Uiso   1.00
N178   N     0.70874   0.13937   0.40871   0.00000  Uiso   1.00
H179   H     0.70057   0.10816   0.41584   0.00000  Uiso   1.00
H180   H     0.67626   0.15599   0.42454   0.00000  Uiso   1.00
C181   C     0.16667   0.57926   0.25032   0.00000  Uiso   1.00
C182   C     0.14423   0.50303   0.49034   0.00000  Uiso   1.00
C183   C     0.15542   0.51371   0.43692   0.00000  Uiso   1.00
C184   C     0.18053   0.50946   0.01605   0.00000  Uiso   1.00
C185   C     0.22534   0.52968   0.48964   0.00000  Uiso   1.00
C186   C     0.23290   0.54446   0.43932   0.00000  Uiso   1.00
C187   C     0.19800   0.53743   0.41384   0.00000  Uiso   1.00
C188   C     0.17368   0.49635   0.06736   0.00000  Uiso   1.00
C189   C     0.25270   0.52436   0.06636   0.00000  Uiso   1.00
C190   C     0.12331   0.50106   0.40827   0.00000  Uiso   1.00
C191   C     0.21072   0.64559   0.23911   0.00000  Uiso   1.00
C192   C     0.14012   0.50116   0.35037   0.00000  Uiso   1.00
C193   C     0.21019   0.35478   0.23941   0.00000  Uiso   1.00
C194   C     0.16531   0.37594   0.25226   0.00000  Uiso   1.00
C195   C     0.12042   0.35390   0.26588   0.00000  Uiso   1.00
C196   C     0.12145   0.64454   0.26494   0.00000  Uiso   1.00
C197   C     0.16638   0.62374   0.25138   0.00000  Uiso   1.00
C198   C     0.30013   0.52742   0.27993   0.00000  Uiso   1.00
C199   C     0.01632   0.52724   0.28018   0.00000  Uiso   1.00
C200   C     0.03336   0.47278   0.21972   0.00000  Uiso   1.00
C201   C     0.31703   0.47276   0.21978   0.00000  Uiso   1.00
C202   C     0.16619   0.42066   0.25094   0.00000  Uiso   1.00
C203   C     0.19302   0.50048   0.14993   0.00000  Uiso   1.00
C204   C     0.26147   0.53609   0.01456   0.00000  Uiso   1.00
C205   C     0.20803   0.50557   0.09327   0.00000  Uiso   1.00
C206   C     0.07644   0.48466   0.43549   0.00000  Uiso   1.00
C207   C     0.06340   0.47911   0.48929   0.00000  Uiso   1.00
C208   C     0.09688   0.48714   0.01621   0.00000  Uiso   1.00
Cu209  Cu    0.11978   0.49999   0.25000   0.00000  Uiso   1.00
Cu210  Cu    0.21355   0.50001   0.25000   0.00000  Uiso   1.00
H211   H     0.27975   0.53162   0.08594   0.00000  Uiso   1.00
H212   H     0.24501   0.37108   0.22893   0.00000  Uiso   1.00
H213   H     0.08692   0.62777   0.27540   0.00000  Uiso   1.00
H214   H     0.27489   0.54965   0.30351   0.00000  Uiso   1.00
H215   H     0.02822   0.54905   0.30439   0.00000  Uiso   1.00
H216   H     0.05892   0.45100   0.19545   0.00000  Uiso   1.00
H217   H     0.30515   0.45097   0.19556   0.00000  Uiso   1.00
H218   H     0.26580   0.56181   0.41962   0.00000  Uiso   1.00
H219   H     0.29579   0.55143   0.49452   0.00000  Uiso   1.00
H220   H     0.14140   0.47941   0.08876   0.00000  Uiso   1.00
H221   H     0.08386   0.48153   0.05758   0.00000  Uiso   1.00
H222   H     0.02732   0.46714   0.01026   0.00000  Uiso   1.00
H223   H     0.20418   0.55197   0.37642   0.00000  Uiso   1.00
H224   H     0.24580   0.62985   0.22859   0.00000  Uiso   1.00
N225   N     0.04931   0.49999   0.24998   0.00000  Uiso   1.00
N226   N     0.28402   0.50002   0.25000   0.00000  Uiso   1.00
O227   O     0.12708   0.56011   0.25000   0.00000  Uiso   1.00
O228   O     0.20627   0.56012   0.25001   0.00000  Uiso   1.00
O229   O     0.10775   0.49998   0.32549   0.00000  Uiso   1.00
O230   O     0.18694   0.49999   0.32549   0.00000  Uiso   1.00
O231   O     0.12706   0.43988   0.24999   0.00000  Uiso   1.00
O232   O     0.20625   0.43989   0.25000   0.00000  Uiso   1.00
O233   O     0.14640   0.50001   0.17451   0.00000  Uiso   1.00
O234   O     0.22559   0.50002   0.17451   0.00000  Uiso   1.00
N235   N     0.07381   0.37446   0.28156   0.00000  Uiso   1.00
H236   H     0.05427   0.36462   0.31914   0.00000  Uiso   1.00
H237   H     0.05409   0.36538   0.25632   0.00000  Uiso   1.00
N238   N     0.04207   0.47270   0.40871   0.00000  Uiso   1.00
H239   H     0.03391   0.44149   0.41584   0.00000  Uiso   1.00
H240   H     0.00960   0.48933   0.42454   0.00000  Uiso   1.00
C241   C     0.50000   0.57926   0.25032   0.00000  Uiso   1.00
C242   C     0.47757   0.50303   0.49034   0.00000  Uiso   1.00
C243   C     0.48875   0.51371   0.43692   0.00000  Uiso   1.00
C244   C     0.51386   0.50946   0.01605   0.00000  Uiso   1.00
C245   C     0.55867   0.52968   0.48964   0.00000  Uiso   1.00
C246   C     0.56623   0.54446   0.43932   0.00000  Uiso   1.00
C247   C     0.53133   0.53743   0.41384   0.00000  Uiso   1.00
C248   C     0.50702   0.49635   0.06736   0.00000  Uiso   1.00
C249   C     0.58603   0.52436   0.06636   0.00000  Uiso   1.00
C250   C     0.45664   0.50106   0.40827   0.00000  Uiso   1.00
C251   C     0.54406   0.64559   0.23911   0.00000  Uiso   1.00
C252   C     0.47346   0.50116   0.35037   0.00000  Uiso   1.00
C253   C     0.54352   0.35478   0.23941   0.00000  Uiso   1.00
C254   C     0.49864   0.37594   0.25226   0.00000  Uiso   1.00
C255   C     0.45376   0.35390   0.26588   0.00000  Uiso   1.00
C256   C     0.45478   0.64454   0.26494   0.00000  Uiso   1.00
C257   C     0.49971   0.62374   0.25138   0.00000  Uiso   1.00
C258   C     0.63346   0.52742   0.27993   0.00000  Uiso   1.00
C259   C     0.34966   0.52724   0.28018   0.00000  Uiso   1.00
C260   C     0.36669   0.47278   0.21972   0.00000  Uiso   1.00
C261   C     0.65037   0.47276   0.21978   0.00000  Uiso   1.00
C262   C     0.49952   0.42066   0.25094   0.00000  Uiso   1.00
C263   C     0.52635   0.50048   0.14993   0.00000  Uiso   1.00
C264   C     0.59480   0.53609   0.01456   0.00000  Uiso   1.00
C265   C     0.54136   0.50557   0.09327   0.00000  Uiso   1.00
C266   C     0.40977   0.48466   0.43549   0.00000  Uiso   1.00
C267   C     0.39673   0.47911   0.48929   0.00000  Uiso   1.00
C268   C     0.43022   0.48714   0.01621   0.00000  Uiso   1.00
Cu269  Cu    0.45311   0.49999   0.25000   0.00000  Uiso   1.00
Cu270  Cu    0.54689   0.50001   0.25000   0.00000  Uiso   1.00
H271   H     0.61308   0.53162   0.08594   0.00000  Uiso   1.00
H272   H     0.57835   0.37108   0.22893   0.00000  Uiso   1.00
H273   H     0.42025   0.62777   0.27540   0.00000  Uiso   1.00
H274   H     0.60822   0.54965   0.30351   0.00000  Uiso   1.00
H275   H     0.36155   0.54905   0.30439   0.00000  Uiso   1.00
H276   H     0.39226   0.45100   0.19545   0.00000  Uiso   1.00
H277   H     0.63848   0.45097   0.19556   0.00000  Uiso   1.00
H278   H     0.59913   0.56181   0.41962   0.00000  Uiso   1.00
H279   H     0.62912   0.55143   0.49452   0.00000  Uiso   1.00
H280   H     0.47473   0.47941   0.08876   0.00000  Uiso   1.00
H281   H     0.41719   0.48153   0.05758   0.00000  Uiso   1.00
H282   H     0.36066   0.46714   0.01026   0.00000  Uiso   1.00
H283   H     0.53752   0.55197   0.37642   0.00000  Uiso   1.00
H284   H     0.57914   0.62985   0.22859   0.00000  Uiso   1.00
N285   N     0.38265   0.49999   0.24998   0.00000  Uiso   1.00
N286   N     0.61735   0.50002   0.25000   0.00000  Uiso   1.00
O287   O     0.46042   0.56011   0.25000   0.00000  Uiso   1.00
O288   O     0.53961   0.56012   0.25001   0.00000  Uiso   1.00
O289   O     0.44108   0.49998   0.32549   0.00000  Uiso   1.00
O290   O     0.52027   0.49999   0.32549   0.00000  Uiso   1.00
O291   O     0.46039   0.43988   0.24999   0.00000  Uiso   1.00
O292   O     0.53958   0.43989   0.25000   0.00000  Uiso   1.00
O293   O     0.47973   0.50001   0.17451   0.00000  Uiso   1.00
O294   O     0.55892   0.50002   0.17451   0.00000  Uiso   1.00
N295   N     0.40714   0.37446   0.28156   0.00000  Uiso   1.00
H296   H     0.38760   0.36462   0.31914   0.00000  Uiso   1.00
H297   H     0.38743   0.36538   0.25632   0.00000  Uiso   1.00
N298   N     0.37540   0.47270   0.40871   0.00000  Uiso   1.00
H299   H     0.36724   0.44149   0.41584   0.00000  Uiso   1.00
H300   H     0.34293   0.48933   0.42454   0.00000  Uiso   1.00
C301   C     0.83334   0.57926   0.25032   0.00000  Uiso   1.00
C302   C     0.81090   0.50303   0.49034   0.00000  Uiso   1.00
C303   C     0.82209   0.51371   0.43692   0.00000  Uiso   1.00
C304   C     0.84720   0.50946   0.01605   0.00000  Uiso   1.00
C305   C     0.89201   0.52968   0.48964   0.00000  Uiso   1.00
C306   C     0.89956   0.54446   0.43932   0.00000  Uiso   1.00
C307   C     0.86466   0.53743   0.41384   0.00000  Uiso   1.00
C308   C     0.84035   0.49635   0.06736   0.00000  Uiso   1.00
C309   C     0.91936   0.52436   0.06636   0.00000  Uiso   1.00
C310   C     0.78997   0.50106   0.40827   0.00000  Uiso   1.00
C311   C     0.87739   0.64559   0.23911   0.00000  Uiso   1.00
C312   C     0.80679   0.50116   0.35037   0.00000  Uiso   1.00
C313   C     0.87685   0.35478   0.23941   0.00000  Uiso   1.00
C314   C     0.83197   0.37594   0.25226   0.00000  Uiso   1.00
C315   C     0.78709   0.35390   0.26588   0.00000  Uiso   1.00
C316   C     0.78811   0.64454   0.26494   0.00000  Uiso   1.00
C317   C     0.83305   0.62374   0.25138   0.00000  Uiso   1.00
C318   C     0.96679   0.52742   0.27993   0.00000  Uiso   1.00
C319   C     0.68299   0.52724   0.28018   0.00000  Uiso   1.00
C320   C     0.70002   0.47278   0.21972   0.00000  Uiso   1.00
C321   C     0.98370   0.47276   0.21978   0.00000  Uiso   1.00
C322   C     0.83286   0.42066   0.25094   0.00000  Uiso   1.00
C323   C     0.85968   0.50048   0.14993   0.00000  Uiso   1.00
C324   C     0.92813   0.53609   0.01456   0.00000  Uiso   1.00
C325   C     0.87469   0.50557   0.09327   0.00000  Uiso   1.00
C326   C     0.74311   0.48466   0.43549   0.00000  Uiso   1.00
C327   C     0.73007   0.47911   0.48929   0.00000  Uiso   1.00
C328   C     0.76355   0.48714   0.01621   0.00000  Uiso   1.00
Cu329  Cu    0.78645   0.49999   0.25000   0.00000  Uiso   1.00
Cu330  Cu    0.88022   0.50001   0.25000   0.00000  Uiso   1.00
H331   H     0.94641   0.53162   0.08594   0.00000  Uiso   1.00
H332   H     0.91168   0.37108   0.22893   0.00000  Uiso   1.00
H333   H     0.75358   0.62777   0.27540   0.00000  Uiso   1.00
H334   H     0.94155   0.54965   0.30351   0.00000  Uiso   1.00
H335   H     0.69488   0.54905   0.30439   0.00000  Uiso   1.00
H336   H     0.72559   0.45100   0.19545   0.00000  Uiso   1.00
H337   H     0.97181   0.45097   0.19556   0.00000  Uiso   1.00
H338   H     0.93247   0.56181   0.41962   0.00000  Uiso   1.00
H339   H     0.96246   0.55143   0.49452   0.00000  Uiso   1.00
H340   H     0.80807   0.47941   0.08876   0.00000  Uiso   1.00
H341   H     0.75052   0.48153   0.05758   0.00000  Uiso   1.00
H342   H     0.69399   0.46714   0.01026   0.00000  Uiso   1.00
H343   H     0.87085   0.55197   0.37642   0.00000  Uiso   1.00
H344   H     0.91247   0.62985   0.22859   0.00000  Uiso   1.00
N345   N     0.71598   0.49999   0.24998   0.00000  Uiso   1.00
N346   N     0.95069   0.50002   0.25000   0.00000  Uiso   1.00
O347   O     0.79375   0.56011   0.25000   0.00000  Uiso   1.00
O348   O     0.87294   0.56012   0.25001   0.00000  Uiso   1.00
O349   O     0.77441   0.49998   0.32549   0.00000  Uiso   1.00
O350   O     0.85360   0.49999   0.32549   0.00000  Uiso   1.00
O351   O     0.79373   0.43988   0.24999   0.00000  Uiso   1.00
O352   O     0.87292   0.43989   0.25000   0.00000  Uiso   1.00
O353   O     0.81306   0.50001   0.17451   0.00000  Uiso   1.00
O354   O     0.89225   0.50002   0.17451   0.00000  Uiso   1.00
N355   N     0.74048   0.37446   0.28156   0.00000  Uiso   1.00
H356   H     0.72094   0.36462   0.31914   0.00000  Uiso   1.00
H357   H     0.72076   0.36538   0.25632   0.00000  Uiso   1.00
N358   N     0.70874   0.47270   0.40871   0.00000  Uiso   1.00
H359   H     0.70057   0.44149   0.41584   0.00000  Uiso   1.00
H360   H     0.67626   0.48933   0.42454   0.00000  Uiso   1.00
C361   C     0.16667   0.91259   0.25032   0.00000  Uiso   1.00
C362   C     0.14423   0.83637   0.49034   0.00000  Uiso   1.00
C363   C     0.15542   0.84704   0.43692   0.00000  Uiso   1.00
C364   C     0.18053   0.84279   0.01605   0.00000  Uiso   1.00
C365   C     0.22534   0.86301   0.48964   0.00000  Uiso   1.00
C366   C     0.23290   0.87780   0.43932   0.00000  Uiso   1.00
C367   C     0.19800   0.87077   0.41384   0.00000  Uiso   1.00
C368   C     0.17368   0.82969   0.06736   0.00000  Uiso   1.00
C369   C     0.25270   0.85769   0.06636   0.00000  Uiso   1.00
C370   C     0.12331   0.83440   0.40827   0.00000  Uiso   1.00
C371   C     0.21072   0.97892   0.23911   0.00000  Uiso   1.00
C372   C     0.14012   0.83449   0.35037   0.00000  Uiso   1.00
C373   C     0.21019   0.68812   0.23941   0.00000  Uiso   1.00
C374   C     0.16531   0.70927   0.25226   0.00000  Uiso   1.00
C375   C     0.12042   0.68723   0.26588   0.00000  Uiso   1.00
C376   C     0.12145   0.97788   0.26494   0.00000  Uiso   1.00
C377   C     0.16638   0.95708   0.25138   0.00000  Uiso   1.00
C378   C     0.30013   0.86076   0.27993   0.00000  Uiso   1.00
C379   C     0.01632   0.86058   0.28018   0.00000  Uiso   1.00
C380   C     0.03336   0.80611   0.21972   0.00000  Uiso   1.00
C381   C     0.31703   0.80609   0.21978   0.00000  Uiso   1.00
C382   C     0.16619   0.75399   0.25094   0.00000  Uiso   1.00
C383   C     0.19302   0.83381   0.14993   0.00000  Uiso   1.00
C384   C     0.26147   0.86943   0.01456   0.00000  Uiso   1.00
C385   C     0.20803   0.83890   0.09327   0.00000  Uiso   1.00
C386   C     0.07644   0.81799   0.43549   0.00000  Uiso   1.00
C387   C     0.06340   0.81245   0.48929   0.00000  Uiso   1.00
C388   C     0.09688   0.82047   0.01621   0.00000  Uiso   1.00
Cu389  Cu    0.11978   0.83333   0.25000   0.00000  Uiso   1.00
Cu390  Cu    0.21355   0.83334   0.25000   0.00000  Uiso   1.00
H391   H     0.27975   0.86495   0.08594   0.00000  Uiso   1.00
H392   H     0.24501   0.70442   0.22893   0.00000  Uiso   1.00
H393   H     0.08692   0.96110   0.27540   0.00000  Uiso   1.00
H394   H     0.27489   0.88299   0.30351   0.00000  Uiso   1.00
H395   H     0.02822   0.88238   0.30439   0.00000  Uiso   1.00
H396   H     0.05892   0.78433   0.19545   0.00000  Uiso   1.00
H397   H     0.30515   0.78431   0.19556   0.00000  Uiso   1.00
H398   H     0.26580   0.89514   0.41962   0.00000  Uiso   1.00
H399   H     0.29579   0.88476   0.49452   0.00000  Uiso   1.00
H400   H     0.14140   0.81275   0.08876   0.00000  Uiso   1.00
H401   H     0.08386   0.81486   0.05758   0.00000  Uiso   1.00
H402   H     0.02732   0.80047   0.01026   0.00000  Uiso   1.00
H403   H     0.20418   0.88530   0.37642   0.00000  Uiso   1.00
H404   H     0.24580   0.96318   0.22859   0.00000  Uiso   1.00
N405   N     0.04931   0.83332   0.24998   0.00000  Uiso   1.00
N406   N     0.28402   0.83335   0.25000   0.00000  Uiso   1.00
O407   O     0.12708   0.89345   0.25000   0.00000  Uiso   1.00
O408   O     0.20627   0.89346   0.25001   0.00000  Uiso   1.00
O409   O     0.10775   0.83332   0.32549   0.00000  Uiso   1.00
O410   O     0.18694   0.83333   0.32549   0.00000  Uiso   1.00
O411   O     0.12706   0.77321   0.24999   0.00000  Uiso   1.00
O412   O     0.20625   0.77322   0.25000   0.00000  Uiso   1.00
O413   O     0.14640   0.83334   0.17451   0.00000  Uiso   1.00
O414   O     0.22559   0.83335   0.17451   0.00000  Uiso   1.00
N415   N     0.07381   0.70779   0.28156   0.00000  Uiso   1.00
H416   H     0.05427   0.69795   0.31914   0.00000  Uiso   1.00
H417   H     0.05409   0.69872   0.25632   0.00000  Uiso   1.00
N418   N     0.04207   0.80603   0.40871   0.00000  Uiso   1.00
H419   H     0.03391   0.77483   0.41584   0.00000  Uiso   1.00
H420   H     0.00960   0.82266   0.42454   0.00000  Uiso   1.00
C421   C     0.50000   0.91259   0.25032   0.00000  Uiso   1.00
C422   C     0.47757   0.83637   0.49034   0.00000  Uiso   1.00
C423   C     0.48875   0.84704   0.43692   0.00000  Uiso   1.00
C424   C     0.51386   0.84279   0.01605   0.00000  Uiso   1.00
C425   C     0.55867   0.86301   0.48964   0.00000  Uiso   1.00
C426   C     0.56623   0.87780   0.43932   0.00000  Uiso   1.00
C427   C     0.53133   0.87077   0.41384   0.00000  Uiso   1.00
C428   C     0.50702   0.82969   0.06736   0.00000  Uiso   1.00
C429   C     0.58603   0.85769   0.06636   0.00000  Uiso   1.00
C430   C     0.45664   0.83440   0.40827   0.00000  Uiso   1.00
C431   C     0.54406   0.97892   0.23911   0.00000  Uiso   1.00
C432   C     0.47346   0.83449   0.35037   0.00000  Uiso   1.00
C433   C     0.54352   0.68812   0.23941   0.00000  Uiso   1.00
C434   C     0.49864   0.70927   0.25226   0.00000  Uiso   1.00
C435   C     0.45376   0.68723   0.26588   0.00000  Uiso   1.00
C436   C     0.45478   0.97788   0.26494   0.00000  Uiso   1.00
C437   C     0.49971   0.95708   0.25138   0.00000  Uiso   1.00
C438   C     0.63346   0.86076   0.27993   0.00000  Uiso   1.00
C439   C     0.34966   0.86058   0.28018   0.00000  Uiso   1.00
C440   C     0.36669   0.80611   0.21972   0.00000  Uiso   1.00
C441   C     0.65037   0.80609   0.21978   0.00000  Uiso   1.00
C442   C     0.49952   0.75399   0.25094   0.00000  Uiso   1.00
C443   C     0.52635   0.83381   0.14993   0.00000  Uiso   1.00
C444   C     0.59480   0.86943   0.01456   0.00000  Uiso   1.00
C445   C     0.54136   0.83890   0.09327   0.00000  Uiso   1.00
C446   C     0.40977   0.81799   0.43549   0.00000  Uiso   1.00
C447   C     0.39673   0.81245   0.48929   0.00000  Uiso   1.00
C448   C     0.43022   0.82047   0.01621   0.00000  Uiso   1.00
Cu449  Cu    0.45311   0.83333   0.25000   0.00000  Uiso   1.00
Cu450  Cu    0.54689   0.83334   0.25000   0.00000  Uiso   1.00
H451   H     0.61308   0.86495   0.08594   0.00000  Uiso   1.00
H452   H     0.57835   0.70442   0.22893   0.00000  Uiso   1.00
H453   H     0.42025   0.96110   0.27540   0.00000  Uiso   1.00
H454   H     0.60822   0.88299   0.30351   0.00000  Uiso   1.00
H455   H     0.36155   0.88238   0.30439   0.00000  Uiso   1.00
H456   H     0.39226   0.78433   0.19545   0.00000  Uiso   1.00
H457   H     0.63848   0.78431   0.19556   0.00000  Uiso   1.00
H458   H     0.59913   0.89514   0.41962   0.00000  Uiso   1.00
H459   H     0.62912   0.88476   0.49452   0.00000  Uiso   1.00
H460   H     0.47473   0.81275   0.08876   0.00000  Uiso   1.00
H461   H     0.41719   0.81486   0.05758   0.00000  Uiso   1.00
H462   H     0.36066   0.80047   0.01026   0.00000  Uiso   1.00
H463   H     0.53752   0.88530   0.37642   0.00000  Uiso   1.00
H464   H     0.57914   0.96318   0.22859   0.00000  Uiso   1.00
N465   N     0.38265   0.83332   0.24998   0.00000  Uiso   1.00
N466   N     0.61735   0.83335   0.25000   0.00000  Uiso   1.00
O467   O     0.46042   0.89345   0.25000   0.00000  Uiso   1.00
O468   O     0.53961   0.89346   0.25001   0.00000  Uiso   1.00
O469   O     0.44108   0.83332   0.32549   0.00000  Uiso   1.00
O470   O     0.52027   0.83333   0.32549   0.00000  Uiso   1.00
O471   O     0.46039   0.77321   0.24999   0.00000  Uiso   1.00
O472   O     0.53958   0.77322   0.25000   0.00000  Uiso   1.00
O473   O     0.47973   0.83334   0.17451   0.00000  Uiso   1.00
O474   O     0.55892   0.83335   0.17451   0.00000  Uiso   1.00
N475   N     0.40714   0.70779   0.28156   0.00000  Uiso   1.00
H476   H     0.38760   0.69795   0.31914   0.00000  Uiso   1.00
H477   H     0.38743   0.69872   0.25632   0.00000  Uiso   1.00
N478   N     0.37540   0.80603   0.40871   0.00000  Uiso   1.00
H479   H     0.36724   0.77483   0.41584   0.00000  Uiso   1.00
H480   H     0.34293   0.82266   0.42454   0.00000  Uiso   1.00
C481   C     0.83334   0.91259   0.25032   0.00000  Uiso   1.00
C482   C     0.81090   0.83637   0.49034   0.00000  Uiso   1.00
C483   C     0.82209   0.84704   0.43692   0.00000  Uiso   1.00
C484   C     0.84720   0.84279   0.01605   0.00000  Uiso   1.00
C485   C     0.89201   0.86301   0.48964   0.00000  Uiso   1.00
C486   C     0.89956   0.87780   0.43932   0.00000  Uiso   1.00
C487   C     0.86466   0.87077   0.41384   0.00000  Uiso   1.00
C488   C     0.84035   0.82969   0.06736   0.00000  Uiso   1.00
C489   C     0.91936   0.85769   0.06636   0.00000  Uiso   1.00
C490   C     0.78997   0.83440   0.40827   0.00000  Uiso   1.00
C491   C     0.87739   0.97892   0.23911   0.00000  Uiso   1.00
C492   C     0.80679   0.83449   0.35037   0.00000  Uiso   1.00
C493   C     0.87685   0.68812   0.23941   0.00000  Uiso   1.00
C494   C     0.83197   0.70927   0.25226   0.00000  Uiso   1.00
C495   C     0.78709   0.68723   0.26588   0.00000  Uiso   1.00
C496   C     0.78811   0.97788   0.26494   0.00000  Uiso   1.00
C497   C     0.83305   0.95708   0.25138   0.00000  Uiso   1.00
C498   C     0.96679   0.86076   0.27993   0.00000  Uiso   1.00
C499   C     0.68299   0.86058   0.28018   0.00000  Uiso   1.00
C500   C     0.70002   0.80611   0.21972   0.00000  Uiso   1.00
C501   C     0.98370   0.80609   0.21978   0.00000  Uiso   1.00
C502   C     0.83286   0.75399   0.25094   0.00000  Uiso   1.00
C503   C     0.85968   0.83381   0.14993   0.00000  Uiso   1.00
C504   C     0.92813   0.86943   0.01456   0.00000  Uiso   1.00
C505   C     0.87469   0.83890   0.09327   0.00000  Uiso   1.00
C506   C     0.74311   0.81799   0.43549   0.00000  Uiso   1.00
C507   C     0.73007   0.81245   0.48929   0.00000  Uiso   1.00
C508   C     0.76355   0.82047   0.01621   0.00000  Uiso   1.00
Cu509  Cu    0.78645   0.83333   0.25000   0.00000  Uiso   1.00
Cu510  Cu    0.88022   0.83334   0.25000   0.00000  Uiso   1.00
H511   H     0.94641   0.86495   0.08594   0.00000  Uiso   1.00
H512   H     0.91168   0.70442   0.22893   0.00000  Uiso   1.00
H513   H     0.75358   0.96110   0.27540   0.00000  Uiso   1.00
H514   H     0.94155   0.88299   0.30351   0.00000  Uiso   1.00
H515   H     0.69488   0.88238   0.30439   0.00000  Uiso   1.00
H516   H     0.72559   0.78433   0.19545   0.00000  Uiso   1.00
H517   H     0.97181   0.78431   0.19556   0.00000  Uiso   1.00
H518   H     0.93247   0.89514   0.41962   0.00000  Uiso   1.00
H519   H     0.96246   0.88476   0.49452   0.00000  Uiso   1.00
H520   H     0.80807   0.81275   0.08876   0.00000  Uiso   1.00
H521   H     0.75052   0.81486   0.05758   0.00000  Uiso   1.00
H522   H     0.69399   0.80047   0.01026   0.00000  Uiso   1.00
H523   H     0.87085   0.88530   0.37642   0.00000  Uiso   1.00
H524   H     0.91247   0.96318   0.22859   0.00000  Uiso   1.00
N525   N     0.71598   0.83332   0.24998   0.00000  Uiso   1.00
N526   N     0.95069   0.83335   0.25000   0.00000  Uiso   1.00
O527   O     0.79375   0.89345   0.25000   0.00000  Uiso   1.00
O528   O     0.87294   0.89346   0.25001   0.00000  Uiso   1.00
O529   O     0.77441   0.83332   0.32549   0.00000  Uiso   1.00
O530   O     0.85360   0.83333   0.32549   0.00000  Uiso   1.00
O531   O     0.79373   0.77321   0.24999   0.00000  Uiso   1.00
O532   O     0.87292   0.77322   0.25000   0.00000  Uiso   1.00
O533   O     0.81306   0.83334   0.17451   0.00000  Uiso   1.00
O534   O     0.89225   0.83335   0.17451   0.00000  Uiso   1.00
N535   N     0.74048   0.70779   0.28156   0.00000  Uiso   1.00
H536   H     0.72094   0.69795   0.31914   0.00000  Uiso   1.00
H537   H     0.72076   0.69872   0.25632   0.00000  Uiso   1.00
N538   N     0.70874   0.80603   0.40871   0.00000  Uiso   1.00
H539   H     0.70057   0.77483   0.41584   0.00000  Uiso   1.00
H540   H     0.67626   0.82266   0.42454   0.00000  Uiso   1.00
C541   C     0.16667   0.24593   0.75032   0.00000  Uiso   1.00
C542   C     0.14423   0.16970   0.99034   0.00000  Uiso   1.00
C543   C     0.15542   0.18038   0.93692   0.00000  Uiso   1.00
C544   C     0.18053   0.17613   0.51605   0.00000  Uiso   1.00
C545   C     0.22534   0.19634   0.98964   0.00000  Uiso   1.00
C546   C     0.23290   0.21113   0.93932   0.00000  Uiso   1.00
C547   C     0.19800   0.20410   0.91384   0.00000  Uiso   1.00
C548   C     0.17368   0.16302   0.56736   0.00000  Uiso   1.00
C549   C     0.25270   0.19103   0.56636   0.00000  Uiso   1.00
C550   C     0.12331   0.16773   0.90827   0.00000  Uiso   1.00
C551   C     0.21072   0.31225   0.73911   0.00000  Uiso   1.00
C552   C     0.14012   0.16783   0.85037   0.00000  Uiso   1.00
C553   C     0.21019   0.02145   0.73941   0.00000  Uiso   1.00
C554   C     0.16531   0.04260   0.75226   0.00000  Uiso   1.00
C555   C     0.12042   0.02056   0.76588   0.00000  Uiso   1.00
C556   C     0.12145   0.31121   0.76494   0.00000  Uiso   1.00
C557   C     0.16638   0.29041   0.75138   0.00000  Uiso   1.00
C558   C     0.30013   0.19409   0.77993   0.00000  Uiso   1.00
C559   C     0.01632   0.19391   0.78018   0.00000  Uiso   1.00
C560   C     0.03336   0.13945   0.71972   0.00000  Uiso   1.00
C561   C     0.31703   0.13942   0.71978   0.00000  Uiso   1.00
C562   C     0.16619   0.08733   0.75094   0.00000  Uiso   1.00
C563   C     0.19302   0.16714   0.64993   0.00000  Uiso   1.00
C564   C     0.26147   0.20276   0.51456   0.00000  Uiso   1.00
C565   C     0.20803   0.17223   0.59327   0.00000  Uiso   1.00
C566   C     0.07644   0.15132   0.93549   0.00000  Uiso   1.00
C567   C     0.06340   0.14578   0.98929   0.00000  Uiso   1.00
C568   C     0.09688   0.15381   0.51621   0.00000  Uiso   1.00
Cu569  Cu    0.11978   0.16666   0.75000   0.00000  Uiso   1.00
Cu570  Cu    0.21355   0.16667   0.75000   0.00000  Uiso   1.00
H571   H     0.27975   0.19829   0.58594   0.00000  Uiso   1.00
H572   H     0.24501   0.03775   0.72893   0.00000  Uiso   1.00
H573   H     0.08692   0.29444   0.77540   0.00000  Uiso   1.00
H574   H     0.27489   0.21632   0.80351   0.00000  Uiso   1.00
H575   H     0.02822   0.21572   0.80439   0.00000  Uiso   1.00
H576   H     0.05892   0.11766   0.69545   0.00000  Uiso   1.00
H577   H     0.30515   0.11764   0.69556   0.00000  Uiso   1.00
H578   H     0.26580   0.22847   0.91962   0.00000  Uiso   1.00
H579   H     0.29579   0.21809   0.99452   0.00000  Uiso   1.00
H580   H     0.14140   0.14608   0.58876   0.00000  Uiso   1.00
H581   H     0.08386   0.14820   0.55758   0.00000  Uiso   1.00
H582   H     0.02732   0.13381   0.51026   0.00000  Uiso   1.00
H583   H     0.20418   0.21863   0.87642   0.00000  Uiso   1.00
H584   H     0.24580   0.29652   0.72859   0.00000  Uiso   1.00
N585   N     0.04931   0.16666   0.74998   0.00000  Uiso   1.00
N586   N     0.28402   0.16669   0.75000   0.00000  Uiso   1.00
O587   O     0.12708   0.22678   0.75000   0.00000  Uiso   1.00
O588   O     0.20627   0.22679   0.75001   0.00000  Uiso   1.00
O589   O     0.10775   0.16665   0.82549   0.00000  Uiso   1.00
O590   O     0.18694   0.16666   0.82549   0.00000  Uiso   1.00
O591   O     0.12706   0.10654   0.74999   0.00000  Uiso   1.00
O592   O     0.20625   0.10655   0.75000   0.00000  Uiso   1.00
O593   O     0.14640   0.16667   0.67451   0.00000  Uiso   1.00
O594   O     0.22559   0.16668   0.67451   0.00000  Uiso   1.00
N595   N     0.07381   0.04112   0.78156   0.00000  Uiso   1.00
H596   H     0.05427   0.03128   0.81914   0.00000  Uiso   1.00
H597   H     0.05409   0.03205   0.75632   0.00000  Uiso   1.00
N598   N     0.04207   0.13937   0.90871   0.00000  Uiso   1.00
H599   H     0.03391   0.10816   0.91584   0.00000  Uiso   1.00
H600   H     0.00960   0.15599   0.92454   0.00000  Uiso   1.00
C601   C     0.50000   0.24593   0.75032   0.00000  Uiso   1.00
C602   C     0.47757   0.16970   0.99034   0.00000  Uiso   1.00
C603   C     0.48875   0.18038   0.93692   0.00000  Uiso   1.00
C604   C     0.51386   0.17613   0.51605   0.00000  Uiso   1.00
C605   C     0.55867   0.19634   0.98964   0.00000  Uiso   1.00
C606   C     0.56623   0.21113   0.93932   0.00000  Uiso   1.00
C607   C     0.53133   0.20410   0.91384   0.00000  Uiso   1.00
C608   C     0.50702   0.16302   0.56736   0.00000  Uiso   1.00
C609   C     0.58603   0.19103   0.56636   0.00000  Uiso   1.00
C610   C     0.45664   0.16773   0.90827   0.00000  Uiso   1.00
C611   C     0.54406   0.31225   0.73911   0.00000  Uiso   1.00
C612   C     0.47346   0.16783   0.85037   0.00000  Uiso   1.00
C613   C     0.54352   0.02145   0.73941   0.00000  Uiso   1.00
C614   C     0.49864   0.04260   0.75226   0.00000  Uiso   1.00
C615   C     0.45376   0.02056   0.76588   0.00000  Uiso   1.00
C616   C     0.45478   0.31121   0.76494   0.00000  Uiso   1.00
C617   C     0.49971   0.29041   0.75138   0.00000  Uiso   1.00
C618   C     0.63346   0.19409   0.77993   0.00000  Uiso   1.00
C619   C     0.34966   0.19391   0.78018   0.00000  Uiso   1.00
C620   C     0.36669   0.13945   0.71972   0.00000  Uiso   1.00
C621   C     0.65037   0.13942   0.71978   0.00000  Uiso   1.00
C622   C     0.49952   0.08733   0.75094   0.00000  Uiso   1.00
C623   C     0.52635   0.16714   0.64993   0.00000  Uiso   1.00
C624   C     0.59480   0.20276   0.51456   0.00000  Uiso   1.00
C625   C     0.54136   0.17223   0.59327   0.00000  Uiso   1.00
C626   C     0.40977   0.15132   0.93549   0.00000  Uiso   1.00
C627   C     0.39673   0.14578   0.98929   0.00000  Uiso   1.00
C628   C     0.43022   0.15381   0.51621   0.00000  Uiso   1.00
Cu629  Cu    0.45311   0.16666   0.75000   0.00000  Uiso   1.00
Cu630  Cu    0.54689   0.16667   0.75000   0.00000  Uiso   1.00
H631   H     0.61308   0.19829   0.58594   0.00000  Uiso   1.00
H632   H     0.57835   0.03775   0.72893   0.00000  Uiso   1.00
H633   H     0.42025   0.29444   0.77540   0.00000  Uiso   1.00
H634   H     0.60822   0.21632   0.80351   0.00000  Uiso   1.00
H635   H     0.36155   0.21572   0.80439   0.00000  Uiso   1.00
H636   H     0.39226   0.11766   0.69545   0.00000  Uiso   1.00
H637   H     0.63848   0.11764   0.69556   0.00000  Uiso   1.00
H638   H     0.59913   0.22847   0.91962   0.00000  Uiso   1.00
H639   H     0.62912   0.21809   0.99452   0.00000  Uiso   1.00
H640   H     0.47473   0.14608   0.58876   0.00000  Uiso   1.00
H641   H     0.41719   0.14820   0.55758   0.00000  Uiso   1.00
H642   H     0.36066   0.13381   0.51026   0.00000  Uiso   1.00
H643   H     0.53752   0.21863   0.87642   0.00000  Uiso   1.00
H644   H     0.57914   0.29652   0.72859   0.00000  Uiso   1.00
N645   N     0.38265   0.16666   0.74998   0.00000  Uiso   1.00
N646   N     0.61735   0.16669   0.75000   0.00000  Uiso   1.00
O647   O     0.46042   0.22678   0.75000   0.00000  Uiso   1.00
O648   O     0.53961   0.22679   0.75001   0.00000  Uiso   1.00
O649   O     0.44108   0.16665   0.82549   0.00000  Uiso   1.00
O650   O     0.52027   0.16666   0.82549   0.00000  Uiso   1.00
O651   O     0.46039   0.10654   0.74999   0.00000  Uiso   1.00
O652   O     0.53958   0.10655   0.75000   0.00000  Uiso   1.00
O653   O     0.47973   0.16667   0.67451   0.00000  Uiso   1.00
O654   O     0.55892   0.16668   0.67451   0.00000  Uiso   1.00
N655   N     0.40714   0.04112   0.78156   0.00000  Uiso   1.00
H656   H     0.38760   0.03128   0.81914   0.00000  Uiso   1.00
H657   H     0.38743   0.03205   0.75632   0.00000  Uiso   1.00
N658   N     0.37540   0.13937   0.90871   0.00000  Uiso   1.00
H659   H     0.36724   0.10816   0.91584   0.00000  Uiso   1.00
H660   H     0.34293   0.15599   0.92454   0.00000  Uiso   1.00
C661   C     0.83334   0.24593   0.75032   0.00000  Uiso   1.00
C662   C     0.81090   0.16970   0.99034   0.00000  Uiso   1.00
C663   C     0.82209   0.18038   0.93692   0.00000  Uiso   1.00
C664   C     0.84720   0.17613   0.51605   0.00000  Uiso   1.00
C665   C     0.89201   0.19634   0.98964   0.00000  Uiso   1.00
C666   C     0.89956   0.21113   0.93932   0.00000  Uiso   1.00
C667   C     0.86466   0.20410   0.91384   0.00000  Uiso   1.00
C668   C     0.84035   0.16302   0.56736   0.00000  Uiso   1.00
C669   C     0.91936   0.19103   0.56636   0.00000  Uiso   1.00
C670   C     0.78997   0.16773   0.90827   0.00000  Uiso   1.00
C671   C     0.87739   0.31225   0.73911   0.00000  Uiso   1.00
C672   C     0.80679   0.16783   0.85037   0.00000  Uiso   1.00
C673   C     0.87685   0.02145   0.73941   0.00000  Uiso   1.00
C674   C     0.83197   0.04260   0.75226   0.00000  Uiso   1.00
C675   C     0.78709   0.02056   0.76588   0.00000  Uiso   1.00
C676   C     0.78811   0.31121   0.76494   0.00000  Uiso   1.00
C677   C     0.83305   0.29041   0.75138   0.00000  Uiso   1.00
C678   C     0.96679   0.19409   0.77993   0.00000  Uiso   1.00
C679   C     0.68299   0.19391   0.78018   0.00000  Uiso   1.00
C680   C     0.70002   0.13945   0.71972   0.00000  Uiso   1.00
C681   C     0.98370   0.13942   0.71978   0.00000  Uiso   1.00
C682   C     0.83286   0.08733   0.75094   0.00000  Uiso   1.00
C683   C     0.85968   0.16714   0.64993   0.00000  Uiso   1.00
C684   C     0.92813   0.20276   0.51456   0.00000  Uiso   1.00
C685   C     0.87469   0.17223   0.59327   0.00000  Uiso   1.00
C686   C     0.74311   0.15132   0.93549   0.00000  Uiso   1.00
C687   C     0.73007   0.14578   0.98929   0.00000  Uiso   1.00
C688   C     0.76355   0.15381   0.51621   0.00000  Uiso   1.00
Cu689  Cu    0.78645   0.16666   0.75000   0.00000  Uiso   1.00
Cu690  Cu    0.88022   0.16667   0.75000   0.00000  Uiso   1.00
H691   H     0.94641   0.19829   0.58594   0.00000  Uiso   1.00
H692   H     0.91168   0.03775   0.72893   0.00000  Uiso   1.00
H693   H     0.75358   0.29444   0.77540   0.00000  Uiso   1.00
H694   H     0.94155   0.21632   0.80351   0.00000  Uiso   1.00
H695   H     0.69488   0.21572   0.80439   0.00000  Uiso   1.00
H696   H     0.72559   0.11766   0.69545   0.00000  Uiso   1.00
H697   H     0.97181   0.11764   0.69556   0.00000  Uiso   1.00
H698   H     0.93247   0.22847   0.91962   0.00000  Uiso   1.00
H699   H     0.96246   0.21809   0.99452   0.00000  Uiso   1.00
H700   H     0.80807   0.14608   0.58876   0.00000  Uiso   1.00
H701   H     0.75052   0.14820   0.55758   0.00000  Uiso   1.00
H702   H     0.69399   0.13381   0.51026   0.00000  Uiso   1.00
H703   H     0.87085   0.21863   0.87642   0.00000  Uiso   1.00
H704   H     0.91247   0.29652   0.72859   0.00000  Uiso   1.00
N705   N     0.71598   0.16666   0.74998   0.00000  Uiso   1.00
N706   N     0.95069   0.16669   0.75000   0.00000  Uiso   1.00
O707   O     0.79375   0.22678   0.75000   0.00000  Uiso   1.00
O708   O     0.87294   0.22679   0.75001   0.00000  Uiso   1.00
O709   O     0.77441   0.16665   0.82549   0.00000  Uiso   1.00
O710   O     0.85360   0.16666   0.82549   0.00000  Uiso   1.00
O711   O     0.79373   0.10654   0.74999   0.00000  Uiso   1.00
O712   O     0.87292   0.10655   0.75000   0.00000  Uiso   1.00
O713   O     0.81306   0.16667   0.67451   0.00000  Uiso   1.00
O714   O     0.89225   0.16668   0.67451   0.00000  Uiso   1.00
N715   N     0.74048   0.04112   0.78156   0.00000  Uiso   1.00
H716   H     0.72094   0.03128   0.81914   0.00000  Uiso   1.00
H717   H     0.72076   0.03205   0.75632   0.00000  Uiso   1.00
N718   N     0.70874   0.13937   0.90871   0.00000  Uiso   1.00
H719   H     0.70057   0.10816   0.91584   0.00000  Uiso   1.00
H720   H     0.67626   0.15599   0.92454   0.00000  Uiso   1.00
C721   C     0.16667   0.57926   0.75032   0.00000  Uiso   1.00
C722   C     0.14423   0.50303   0.99034   0.00000  Uiso   1.00
C723   C     0.15542   0.51371   0.93692   0.00000  Uiso   1.00
C724   C     0.18053   0.50946   0.51605   0.00000  Uiso   1.00
C725   C     0.22534   0.52968   0.98964   0.00000  Uiso   1.00
C726   C     0.23290   0.54446   0.93932   0.00000  Uiso   1.00
C727   C     0.19800   0.53743   0.91384   0.00000  Uiso   1.00
C728   C     0.17368   0.49635   0.56736   0.00000  Uiso   1.00
C729   C     0.25270   0.52436   0.56636   0.00000  Uiso   1.00
C730   C     0.12331   0.50106   0.90827   0.00000  Uiso   1.00
C731   C     0.21072   0.64559   0.73911   0.00000  Uiso   1.00
C732   C     0.14012   0.50116   0.85037   0.00000  Uiso   1.00
C733   C     0.21019   0.35478   0.73941   0.00000  Uiso   1.00
C734   C     0.16531   0.37594   0.75226   0.00000  Uiso   1.00
C735   C     0.12042   0.35390   0.76588   0.00000  Uiso   1.00
C736   C     0.12145   0.64454   0.76494   0.00000  Uiso   1.00
C737   C     0.16638   0.62374   0.75138   0.00000  Uiso   1.00
C738   C     0.30013   0.52742   0.77993   0.00000  Uiso   1.00
C739   C     0.01632   0.52724   0.78018   0.00000  Uiso   1.00
C740   C     0.03336   0.47278   0.71972   0.00000  Uiso   1.00
C741   C     0.31703   0.47276   0.71978   0.00000  Uiso   1.00
C742   C     0.16619   0.42066   0.75094   0.00000  Uiso   1.00
C743   C     0.19302   0.50048   0.64993   0.00000  Uiso   1.00
C744   C     0.26147   0.53609   0.51456   0.00000  Uiso   1.00
C745   C     0.20803   0.50557   0.59327   0.00000  Uiso   1.00
C746   C     0.07644   0.48466   0.93549   0.00000  Uiso   1.00
C747   C     0.06340   0.47911   0.98929   0.00000  Uiso   1.00
C748   C     0.09688   0.48714   0.51621   0.00000  Uiso   1.00
Cu749  Cu    0.11978   0.49999   0.75000   0.00000  Uiso   1.00
Cu750  Cu    0.21355   0.50001   0.75000   0.00000  Uiso   1.00
H751   H     0.27975   0.53162   0.58594   0.00000  Uiso   1.00
H752   H     0.24501   0.37108   0.72893   0.00000  Uiso   1.00
H753   H     0.08692   0.62777   0.77540   0.00000  Uiso   1.00
H754   H     0.27489   0.54965   0.80351   0.00000  Uiso   1.00
H755   H     0.02822   0.54905   0.80439   0.00000  Uiso   1.00
H756   H     0.05892   0.45100   0.69545   0.00000  Uiso   1.00
H757   H     0.30515   0.45097   0.69556   0.00000  Uiso   1.00
H758   H     0.26580   0.56181   0.91962   0.00000  Uiso   1.00
H759   H     0.29579   0.55143   0.99452   0.00000  Uiso   1.00
H760   H     0.14140   0.47941   0.58876   0.00000  Uiso   1.00
H761   H     0.08386   0.48153   0.55758   0.00000  Uiso   1.00
H762   H     0.02732   0.46714   0.51026   0.00000  Uiso   1.00
H763   H     0.20418   0.55197   0.87642   0.00000  Uiso   1.00
H764   H     0.24580   0.62985   0.72859   0.00000  Uiso   1.00
N765   N     0.04931   0.49999   0.74998   0.00000  Uiso   1.00
N766   N     0.28402   0.50002   0.75000   0.00000  Uiso   1.00
O767   O     0.12708   0.56011   0.75000   0.00000  Uiso   1.00
O768   O     0.20627   0.56012   0.75001   0.00000  Uiso   1.00
O769   O     0.10775   0.49998   0.82549   0.00000  Uiso   1.00
O770   O     0.18694   0.49999   0.82549   0.00000  Uiso   1.00
O771   O     0.12706   0.43988   0.74999   0.00000  Uiso   1.00
O772   O     0.20625   0.43989   0.75000   0.00000  Uiso   1.00
O773   O     0.14640   0.50001   0.67451   0.00000  Uiso   1.00
O774   O     0.22559   0.50002   0.67451   0.00000  Uiso   1.00
N775   N     0.07381   0.37446   0.78156   0.00000  Uiso   1.00
H776   H     0.05427   0.36462   0.81914   0.00000  Uiso   1.00
H777   H     0.05409   0.36538   0.75632   0.00000  Uiso   1.00
N778   N     0.04207   0.47270   0.90871   0.00000  Uiso   1.00
H779   H     0.03391   0.44149   0.91584   0.00000  Uiso   1.00
H780   H     0.00960   0.48933   0.92454   0.00000  Uiso   1.00
C781   C     0.50000   0.57926   0.75032   0.00000  Uiso   1.00
C782   C     0.47757   0.50303   0.99034   0.00000  Uiso   1.00
C783   C     0.48875   0.51371   0.93692   0.00000  Uiso   1.00
C784   C     0.51386   0.50946   0.51605   0.00000  Uiso   1.00
C785   C     0.55867   0.52968   0.98964   0.00000  Uiso   1.00
C786   C     0.56623   0.54446   0.93932   0.00000  Uiso   1.00
C787   C     0.53133   0.53743   0.91384   0.00000  Uiso   1.00
C788   C     0.50702   0.49635   0.56736   0.00000  Uiso   1.00
C789   C     0.58603   0.52436   0.56636   0.00000  Uiso   1.00
C790   C     0.45664   0.50106   0.90827   0.00000  Uiso   1.00
C791   C     0.54406   0.64559   0.73911   0.00000  Uiso   1.00
C792   C     0.47346   0.50116   0.85037   0.00000  Uiso   1.00
C793   C     0.54352   0.35478   0.73941   0.00000  Uiso   1.00
C794   C     0.49864   0.37594   0.75226   0.00000  Uiso   1.00
C795   C     0.45376   0.35390   0.76588   0.00000  Uiso   1.00
C796   C     0.45478   0.64454   0.76494   0.00000  Uiso   1.00
C797   C     0.49971   0.62374   0.75138   0.00000  Uiso   1.00
C798   C     0.63346   0.52742   0.77993   0.00000  Uiso   1.00
C799   C     0.34966   0.52724   0.78018   0.00000  Uiso   1.00
C800   C     0.36669   0.47278   0.71972   0.00000  Uiso   1.00
C801   C     0.65037   0.47276   0.71978   0.00000  Uiso   1.00
C802   C     0.49952   0.42066   0.75094   0.00000  Uiso   1.00
C803   C     0.52635   0.50048   0.64993   0.00000  Uiso   1.00
C804   C     0.59480   0.53609   0.51456   0.00000  Uiso   1.00
C805   C     0.54136   0.50557   0.59327   0.00000  Uiso   1.00
C806   C     0.40977   0.48466   0.93549   0.00000  Uiso   1.00
C807   C     0.39673   0.47911   0.98929   0.00000  Uiso   1.00
C808   C     0.43022   0.48714   0.51621   0.00000  Uiso   1.00
Cu809  Cu    0.45311   0.49999   0.75000   0.00000  Uiso   1.00
Cu810  Cu    0.54689   0.50001   0.75000   0.00000  Uiso   1.00
H811   H     0.61308   0.53162   0.58594   0.00000  Uiso   1.00
H812   H     0.57835   0.37108   0.72893   0.00000  Uiso   1.00
H813   H     0.42025   0.62777   0.77540   0.00000  Uiso   1.00
H814   H     0.60822   0.54965   0.80351   0.00000  Uiso   1.00
H815   H     0.36155   0.54905   0.80439   0.00000  Uiso   1.00
H816   H     0.39226   0.45100   0.69545   0.00000  Uiso   1.00
H817   H     0.63848   0.45097   0.69556   0.00000  Uiso   1.00
H818   H     0.59913   0.56181   0.91962   0.00000  Uiso   1.00
H819   H     0.62912   0.55143   0.99452   0.00000  Uiso   1.00
H820   H     0.47473   0.47941   0.58876   0.00000  Uiso   1.00
H821   H     0.41719   0.48153   0.55758   0.00000  Uiso   1.00
H822   H     0.36066   0.46714   0.51026   0.00000  Uiso   1.00
H823   H     0.53752   0.55197   0.87642   0.00000  Uiso   1.00
H824   H     0.57914   0.62985   0.72859   0.00000  Uiso   1.00
N825   N     0.38265   0.49999   0.74998   0.00000  Uiso   1.00
N826   N     0.61735   0.50002   0.75000   0.00000  Uiso   1.00
O827   O     0.46042   0.56011   0.75000   0.00000  Uiso   1.00
O828   O     0.53961   0.56012   0.75001   0.00000  Uiso   1.00
O829   O     0.44108   0.49998   0.82549   0.00000  Uiso   1.00
O830   O     0.52027   0.49999   0.82549   0.00000  Uiso   1.00
O831   O     0.46039   0.43988   0.74999   0.00000  Uiso   1.00
O832   O     0.53958   0.43989   0.75000   0.00000  Uiso   1.00
O833   O     0.47973   0.50001   0.67451   0.00000  Uiso   1.00
O834   O     0.55892   0.50002   0.67451   0.00000  Uiso   1.00
N835   N     0.40714   0.37446   0.78156   0.00000  Uiso   1.00
H836   H     0.38760   0.36462   0.81914   0.00000  Uiso   1.00
H837   H     0.38743   0.36538   0.75632   0.00000  Uiso   1.00
N838   N     0.37540   0.47270   0.90871   0.00000  Uiso   1.00
H839   H     0.36724   0.44149   0.91584   0.00000  Uiso   1.00
H840   H     0.34293   0.48933   0.92454   0.00000  Uiso   1.00
C841   C     0.83334   0.57926   0.75032   0.00000  Uiso   1.00
C842   C     0.81090   0.50303   0.99034   0.00000  Uiso   1.00
C843   C     0.82209   0.51371   0.93692   0.00000  Uiso   1.00
C844   C     0.84720   0.50946   0.51605   0.00000  Uiso   1.00
C845   C     0.89201   0.52968   0.98964   0.00000  Uiso   1.00
C846   C     0.89956   0.54446   0.93932   0.00000  Uiso   1.00
C847   C     0.86466   0.53743   0.91384   0.00000  Uiso   1.00
C848   C     0.84035   0.49635   0.56736   0.00000  Uiso   1.00
C849   C     0.91936   0.52436   0.56636   0.00000  Uiso   1.00
C850   C     0.78997   0.50106   0.90827   0.00000  Uiso   1.00
C851   C     0.87739   0.64559   0.73911   0.00000  Uiso   1.00
C852   C     0.80679   0.50116   0.85037   0.00000  Uiso   1.00
C853   C     0.87685   0.35478   0.73941   0.00000  Uiso   1.00
C854   C     0.83197   0.37594   0.75226   0.00000  Uiso   1.00
C855   C     0.78709   0.35390   0.76588   0.00000  Uiso   1.00
C856   C     0.78811   0.64454   0.76494   0.00000  Uiso   1.00
C857   C     0.83305   0.62374   0.75138   0.00000  Uiso   1.00
C858   C     0.96679   0.52742   0.77993   0.00000  Uiso   1.00
C859   C     0.68299   0.52724   0.78018   0.00000  Uiso   1.00
C860   C     0.70002   0.47278   0.71972   0.00000  Uiso   1.00
C861   C     0.98370   0.47276   0.71978   0.00000  Uiso   1.00
C862   C     0.83286   0.42066   0.75094   0.00000  Uiso   1.00
C863   C     0.85968   0.50048   0.64993   0.00000  Uiso   1.00
C864   C     0.92813   0.53609   0.51456   0.00000  Uiso   1.00
C865   C     0.87469   0.50557   0.59327   0.00000  Uiso   1.00
C866   C     0.74311   0.48466   0.93549   0.00000  Uiso   1.00
C867   C     0.73007   0.47911   0.98929   0.00000  Uiso   1.00
C868   C     0.76355   0.48714   0.51621   0.00000  Uiso   1.00
Cu869  Cu    0.78645   0.49999   0.75000   0.00000  Uiso   1.00
Cu870  Cu    0.88022   0.50001   0.75000   0.00000  Uiso   1.00
H871   H     0.94641   0.53162   0.58594   0.00000  Uiso   1.00
H872   H     0.91168   0.37108   0.72893   0.00000  Uiso   1.00
H873   H     0.75358   0.62777   0.77540   0.00000  Uiso   1.00
H874   H     0.94155   0.54965   0.80351   0.00000  Uiso   1.00
H875   H     0.69488   0.54905   0.80439   0.00000  Uiso   1.00
H876   H     0.72559   0.45100   0.69545   0.00000  Uiso   1.00
H877   H     0.97181   0.45097   0.69556   0.00000  Uiso   1.00
H878   H     0.93247   0.56181   0.91962   0.00000  Uiso   1.00
H879   H     0.96246   0.55143   0.99452   0.00000  Uiso   1.00
H880   H     0.80807   0.47941   0.58876   0.00000  Uiso   1.00
H881   H     0.75052   0.48153   0.55758   0.00000  Uiso   1.00
H882   H     0.69399   0.46714   0.51026   0.00000  Uiso   1.00
H883   H     0.87085   0.55197   0.87642   0.00000  Uiso   1.00
H884   H     0.91247   0.62985   0.72859   0.00000  Uiso   1.00
N885   N     0.71598   0.49999   0.74998   0.00000  Uiso   1.00
N886   N     0.95069   0.50002   0.75000   0.00000  Uiso   1.00
O887   O     0.79375   0.56011   0.75000   0.00000  Uiso   1.00
O888   O     0.87294   0.56012   0.75001   0.00000  Uiso   1.00
O889   O     0.77441   0.49998   0.82549   0.00000  Uiso   1.00
O890   O     0.85360   0.49999   0.82549   0.00000  Uiso   1.00
O891   O     0.79373   0.43988   0.74999   0.00000  Uiso   1.00
O892   O     0.87292   0.43989   0.75000   0.00000  Uiso   1.00
O893   O     0.81306   0.50001   0.67451   0.00000  Uiso   1.00
O894   O     0.89225   0.50002   0.67451   0.00000  Uiso   1.00
N895   N     0.74048   0.37446   0.78156   0.00000  Uiso   1.00
H896   H     0.72094   0.36462   0.81914   0.00000  Uiso   1.00
H897   H     0.72076   0.36538   0.75632   0.00000  Uiso   1.00
N898   N     0.70874   0.47270   0.90871   0.00000  Uiso   1.00
H899   H     0.70057   0.44149   0.91584   0.00000  Uiso   1.00
H900   H     0.67626   0.48933   0.92454   0.00000  Uiso   1.00
C901   C     0.16667   0.91259   0.75032   0.00000  Uiso   1.00
C902   C     0.14423   0.83637   0.99034   0.00000  Uiso   1.00
C903   C     0.15542   0.84704   0.93692   0.00000  Uiso   1.00
C904   C     0.18053   0.84279   0.51605   0.00000  Uiso   1.00
C905   C     0.22534   0.86301   0.98964   0.00000  Uiso   1.00
C906   C     0.23290   0.87780   0.93932   0.00000  Uiso   1.00
C907   C     0.19800   0.87077   0.91384   0.00000  Uiso   1.00
C908   C     0.17368   0.82969   0.56736   0.00000  Uiso   1.00
C909   C     0.25270   0.85769   0.56636   0.00000  Uiso   1.00
C910   C     0.12331   0.83440   0.90827   0.00000  Uiso   1.00
C911   C     0.21072   0.97892   0.73911   0.00000  Uiso   1.00
C912   C     0.14012   0.83449   0.85037   0.00000  Uiso   1.00
C913   C     0.21019   0.68812   0.73941   0.00000  Uiso   1.00
C914   C     0.16531   0.70927   0.75226   0.00000  Uiso   1.00
C915   C     0.12042   0.68723   0.76588   0.00000  Uiso   1.00
C916   C     0.12145   0.97788   0.76494   0.00000  Uiso   1.00
C917   C     0.16638   0.95708   0.75138   0.00000  Uiso   1.00
C918   C     0.30013   0.86076   0.77993   0.00000  Uiso   1.00
C919   C     0.01632   0.86058   0.78018   0.00000  Uiso   1.00
C920   C     0.03336   0.80611   0.71972   0.00000  Uiso   1.00
C921   C     0.31703   0.80609   0.71978   0.00000  Uiso   1.00
C922   C     0.16619   0.75399   0.75094   0.00000  Uiso   1.00
C923   C     0.19302   0.83381   0.64993   0.00000  Uiso   1.00
C924   C     0.26147   0.86943   0.51456   0.00000  Uiso   1.00
C925   C     0.20803   0.83890   0.59327   0.00000  Uiso   1.00
C926   C     0.07644   0.81799   0.93549   0.00000  Uiso   1.00
C927   C     0.06340   0.81245   0.98929   0.00000  Uiso   1.00
C928   C     0.09688   0.82047   0.51621   0.00000  Uiso   1.00
Cu929  Cu    0.11978   0.83333   0.75000   0.00000  Uiso   1.00
Cu930  Cu    0.21355   0.83334   0.75000   0.00000  Uiso   1.00
H931   H     0.27975   0.86495   0.58594   0.00000  Uiso   1.00
H932   H     0.24501   0.70442   0.72893   0.00000  Uiso   1.00
H933   H     0.08692   0.96110   0.77540   0.00000  Uiso   1.00
H934   H     0.27489   0.88299   0.80351   0.00000  Uiso   1.00
H935   H     0.02822   0.88238   0.80439   0.00000  Uiso   1.00
H936   H     0.05892   0.78433   0.69545   0.00000  Uiso   1.00
H937   H     0.30515   0.78431   0.69556   0.00000  Uiso   1.00
H938   H     0.26580   0.89514   0.91962   0.00000  Uiso   1.00
H939   H     0.29579   0.88476   0.99452   0.00000  Uiso   1.00
H940   H     0.14140   0.81275   0.58876   0.00000  Uiso   1.00
H941   H     0.08386   0.81486   0.55758   0.00000  Uiso   1.00
H942   H     0.02732   0.80047   0.51026   0.00000  Uiso   1.00
H943   H     0.20418   0.88530   0.87642   0.00000  Uiso   1.00
H944   H     0.24580   0.96318   0.72859   0.00000  Uiso   1.00
N945   N     0.04931   0.83332   0.74998   0.00000  Uiso   1.00
N946   N     0.28402   0.83335   0.75000   0.00000  Uiso   1.00
O947   O     0.12708   0.89345   0.75000   0.00000  Uiso   1.00
O948   O     0.20627   0.89346   0.75001   0.00000  Uiso   1.00
O949   O     0.10775   0.83332   0.82549   0.00000  Uiso   1.00
O950   O     0.18694   0.83333   0.82549   0.00000  Uiso   1.00
O951   O     0.12706   0.77321   0.74999   0.00000  Uiso   1.00
O952   O     0.20625   0.77322   0.75000   0.00000  Uiso   1.00
O953   O     0.14640   0.83334   0.67451   0.00000  Uiso   1.00
O954   O     0.22559   0.83335   0.67451   0.00000  Uiso   1.00
N955   N     0.07381   0.70779   0.78156   0.00000  Uiso   1.00
H956   H     0.05427   0.69795   0.81914   0.00000  Uiso   1.00
H957   H     0.05409   0.69872   0.75632   0.00000  Uiso   1.00
N958   N     0.04207   0.80603   0.90871   0.00000  Uiso   1.00
H959   H     0.03391   0.77483   0.91584   0.00000  Uiso   1.00
H960   H     0.00960   0.82266   0.92454   0.00000  Uiso   1.00
C961   C     0.50000   0.91259   0.75032   0.00000  Uiso   1.00
C962   C     0.47757   0.83637   0.99034   0.00000  Uiso   1.00
C963   C     0.48875   0.84704   0.93692   0.00000  Uiso   1.00
C964   C     0.51386   0.84279   0.51605   0.00000  Uiso   1.00
C965   C     0.55867   0.86301   0.98964   0.00000  Uiso   1.00
C966   C     0.56623   0.87780   0.93932   0.00000  Uiso   1.00
C967   C     0.53133   0.87077   0.91384   0.00000  Uiso   1.00
C968   C     0.50702   0.82969   0.56736   0.00000  Uiso   1.00
C969   C     0.58603   0.85769   0.56636   0.00000  Uiso   1.00
C970   C     0.45664   0.83440   0.90827   0.00000  Uiso   1.00
C971   C     0.54406   0.97892   0.73911   0.00000  Uiso   1.00
C972   C     0.47346   0.83449   0.85037   0.00000  Uiso   1.00
C973   C     0.54352   0.68812   0.73941   0.00000  Uiso   1.00
C974   C     0.49864   0.70927   0.75226   0.00000  Uiso   1.00
C975   C     0.45376   0.68723   0.76588   0.00000  Uiso   1.00
C976   C     0.45478   0.97788   0.76494   0.00000  Uiso   1.00
C977   C     0.49971   0.95708   0.75138   0.00000  Uiso   1.00
C978   C     0.63346   0.86076   0.77993   0.00000  Uiso   1.00
C979   C     0.34966   0.86058   0.78018   0.00000  Uiso   1.00
C980   C     0.36669   0.80611   0.71972   0.00000  Uiso   1.00
C981   C     0.65037   0.80609   0.71978   0.00000  Uiso   1.00
C982   C     0.49952   0.75399   0.75094   0.00000  Uiso   1.00
C983   C     0.52635   0.83381   0.64993   0.00000  Uiso   1.00
C984   C     0.59480   0.86943   0.51456   0.00000  Uiso   1.00
C985   C     0.54136   0.83890   0.59327   0.00000  Uiso   1.00
C986   C     0.40977   0.81799   0.93549   0.00000  Uiso   1.00
C987   C     0.39673   0.81245   0.98929   0.00000  Uiso   1.00
C988   C     0.43022   0.82047   0.51621   0.00000  Uiso   1.00
Cu989  Cu    0.45311   0.83333   0.75000   0.00000  Uiso   1.00
Cu990  Cu    0.54689   0.83334   0.75000   0.00000  Uiso   1.00
H991   H     0.61308   0.86495   0.58594   0.00000  Uiso   1.00
H992   H     0.57835   0.70442   0.72893   0.00000  Uiso   1.00
H993   H     0.42025   0.96110   0.77540   0.00000  Uiso   1.00
H994   H     0.60822   0.88299   0.80351   0.00000  Uiso   1.00
H995   H     0.36155   0.88238   0.80439   0.00000  Uiso   1.00
H996   H     0.39226   0.78433   0.69545   0.00000  Uiso   1.00
H997   H     0.63848   0.78431   0.69556   0.00000  Uiso   1.00
H998   H     0.59913   0.89514   0.91962   0.00000  Uiso   1.00
H999   H     0.62912   0.88476   0.99452   0.00000  Uiso   1.00
H1000  H     0.47473   0.81275   0.58876   0.00000  Uiso   1.00
H1001  H     0.41719   0.81486   0.55758   0.00000  Uiso   1.00
H1002  H     0.36066   0.80047   0.51026   0.00000  Uiso   1.00
H1003  H     0.53752   0.88530   0.87642   0.00000  Uiso   1.00
H1004  H     0.57914   0.96318   0.72859   0.00000  Uiso   1.00
N1005  N     0.38265   0.83332   0.74998   0.00000  Uiso   1.00
N1006  N     0.61735   0.83335   0.75000   0.00000  Uiso   1.00
O1007  O     0.46042   0.89345   0.75000   0.00000  Uiso   1.00
O1008  O     0.53961   0.89346   0.75001   0.00000  Uiso   1.00
O1009  O     0.44108   0.83332   0.82549   0.00000  Uiso   1.00
O1010  O     0.52027   0.83333   0.82549   0.00000  Uiso   1.00
O1011  O     0.46039   0.77321   0.74999   0.00000  Uiso   1.00
O1012  O     0.53958   0.77322   0.75000   0.00000  Uiso   1.00
O1013  O     0.47973   0.83334   0.67451   0.00000  Uiso   1.00
O1014  O     0.55892   0.83335   0.67451   0.00000  Uiso   1.00
N1015  N     0.40714   0.70779   0.78156   0.00000  Uiso   1.00
H1016  H     0.38760   0.69795   0.81914   0.00000  Uiso   1.00
H1017  H     0.38743   0.69872   0.75632   0.00000  Uiso   1.00
N1018  N     0.37540   0.80603   0.90871   0.00000  Uiso   1.00
H1019  H     0.36724   0.77483   0.91584   0.00000  Uiso   1.00
H1020  H     0.34293   0.82266   0.92454   0.00000  Uiso   1.00
C1021  C     0.83334   0.91259   0.75032   0.00000  Uiso   1.00
C1022  C     0.81090   0.83637   0.99034   0.00000  Uiso   1.00
C1023  C     0.82209   0.84704   0.93692   0.00000  Uiso   1.00
C1024  C     0.84720   0.84279   0.51605   0.00000  Uiso   1.00
C1025  C     0.89201   0.86301   0.98964   0.00000  Uiso   1.00
C1026  C     0.89956   0.87780   0.93932   0.00000  Uiso   1.00
C1027  C     0.86466   0.87077   0.91384   0.00000  Uiso   1.00
C1028  C     0.84035   0.82969   0.56736   0.00000  Uiso   1.00
C1029  C     0.91936   0.85769   0.56636   0.00000  Uiso   1.00
C1030  C     0.78997   0.83440   0.90827   0.00000  Uiso   1.00
C1031  C     0.87739   0.97892   0.73911   0.00000  Uiso   1.00
C1032  C     0.80679   0.83449   0.85037   0.00000  Uiso   1.00
C1033  C     0.87685   0.68812   0.73941   0.00000  Uiso   1.00
C1034  C     0.83197   0.70927   0.75226   0.00000  Uiso   1.00
C1035  C     0.78709   0.68723   0.76588   0.00000  Uiso   1.00
C1036  C     0.78811   0.97788   0.76494   0.00000  Uiso   1.00
C1037  C     0.83305   0.95708   0.75138   0.00000  Uiso   1.00
C1038  C     0.96679   0.86076   0.77993   0.00000  Uiso   1.00
C1039  C     0.68299   0.86058   0.78018   0.00000  Uiso   1.00
C1040  C     0.70002   0.80611   0.71972   0.00000  Uiso   1.00
C1041  C     0.98370   0.80609   0.71978   0.00000  Uiso   1.00
C1042  C     0.83286   0.75399   0.75094   0.00000  Uiso   1.00
C1043  C     0.85968   0.83381   0.64993   0.00000  Uiso   1.00
C1044  C     0.92813   0.86943   0.51456   0.00000  Uiso   1.00
C1045  C     0.87469   0.83890   0.59327   0.00000  Uiso   1.00
C1046  C     0.74311   0.81799   0.93549   0.00000  Uiso   1.00
C1047  C     0.73007   0.81245   0.98929   0.00000  Uiso   1.00
C1048  C     0.76355   0.82047   0.51621   0.00000  Uiso   1.00
Cu1049 Cu    0.78645   0.83333   0.75000   0.00000  Uiso   1.00
Cu1050 Cu    0.88022   0.83334   0.75000   0.00000  Uiso   1.00
H1051  H     0.94641   0.86495   0.58594   0.00000  Uiso   1.00
H1052  H     0.91168   0.70442   0.72893   0.00000  Uiso   1.00
H1053  H     0.75358   0.96110   0.77540   0.00000  Uiso   1.00
H1054  H     0.94155   0.88299   0.80351   0.00000  Uiso   1.00
H1055  H     0.69488   0.88238   0.80439   0.00000  Uiso   1.00
H1056  H     0.72559   0.78433   0.69545   0.00000  Uiso   1.00
H1057  H     0.97181   0.78431   0.69556   0.00000  Uiso   1.00
H1058  H     0.93247   0.89514   0.91962   0.00000  Uiso   1.00
H1059  H     0.96246   0.88476   0.99452   0.00000  Uiso   1.00
H1060  H     0.80807   0.81275   0.58876   0.00000  Uiso   1.00
H1061  H     0.75052   0.81486   0.55758   0.00000  Uiso   1.00
H1062  H     0.69399   0.80047   0.51026   0.00000  Uiso   1.00
H1063  H     0.87085   0.88530   0.87642   0.00000  Uiso   1.00
H1064  H     0.91247   0.96318   0.72859   0.00000  Uiso   1.00
N1065  N     0.71598   0.83332   0.74998   0.00000  Uiso   1.00
N1066  N     0.95069   0.83335   0.75000   0.00000  Uiso   1.00
O1067  O     0.79375   0.89345   0.75000   0.00000  Uiso   1.00
O1068  O     0.87294   0.89346   0.75001   0.00000  Uiso   1.00
O1069  O     0.77441   0.83332   0.82549   0.00000  Uiso   1.00
O1070  O     0.85360   0.83333   0.82549   0.00000  Uiso   1.00
O1071  O     0.79373   0.77321   0.74999   0.00000  Uiso   1.00
O1072  O     0.87292   0.77322   0.75000   0.00000  Uiso   1.00
O1073  O     0.81306   0.83334   0.67451   0.00000  Uiso   1.00
O1074  O     0.89225   0.83335   0.67451   0.00000  Uiso   1.00
N1075  N     0.74048   0.70779   0.78156   0.00000  Uiso   1.00
H1076  H     0.72094   0.69795   0.81914   0.00000  Uiso   1.00
H1077  H     0.72076   0.69872   0.75632   0.00000  Uiso   1.00
N1078  N     0.70874   0.80603   0.90871   0.00000  Uiso   1.00
H1079  H     0.70057   0.77483   0.91584   0.00000  Uiso   1.00
H1080  H     0.67626   0.82266   0.92454   0.00000  Uiso   1.00
loop_
_geom_bond_atom_site_label_1
_geom_bond_atom_site_label_2
_geom_bond_distance
_geom_bond_site_symmetry_2
_ccdc_geom_bond_type
C1     O48     1.290   .     A
C1     C17     1.447   .     S
C1     O47     1.290   .     A
C2     C3      1.418   .     A
C2     C544    1.424   .     S
C2     C568    1.415   .     S
C3     C10     1.423   .     A
C3     C7      1.412   .     A
C4     C8      1.402   .     A
C4     C542    1.424   1_554 S
C4     C545    1.420   1_554 S
C5     C6      1.392   .     A
C5     C544    1.420   .     S
C5     C564    1.404   .     S
C6     C7      1.387   .     A
C6     H38     1.084   .     S
C7     H43     1.078   .     S
C8     C25     1.395   .     A
C8     H40     1.077   .     S
C9     C25     1.399   .     A
C9     C24     1.393   .     A
C9     H31     1.083   .     S
C10    C26     1.418   .     A
C10    C12     1.484   .     S
C11    H44     1.083   .     S
C11    C17     1.398   .     A
C11    C193    1.383   .     S
C12    O50     1.299   .     A
C12    O49     1.295   .     A
C13    H32     1.083   .     S
C13    C14     1.403   .     A
C13    C371    1.383   1_545 S
C14    C22     1.455   .     S
C14    C15     1.413   .     A
C15    N55     1.434   .     S
C15    C376    1.389   1_545 S
C16    H33     1.084   .     S
C16    C17     1.398   .     A
C16    C195    1.389   .     S
C18    H34     1.080   .     S
C18    N46     1.367   .     A
C18    C79     1.415   .     S
C19    N45     1.366   .     A
C19    H35     1.082   .     S
C19    C138    1.415   1_455 S
C20    N45     1.367   .     A
C20    H36     1.082   .     S
C20    C141    1.416   1_455 S
C21    H37     1.082   .     S
C21    N46     1.367   .     A
C21    C80     1.416   .     S
C22    O51     1.289   .     A
C22    O52     1.294   .     A
C23    O53     1.292   .     A
C23    C25     1.462   .     S
C23    O54     1.294   .     A
C24    C545    1.404   1_554 S
C24    H579    1.084   1_554 S
C26    C27     1.393   .     A
C26    N58     1.434   .     S
C27    C568    1.386   .     S
C27    H582    1.084   .     S
C28    H41     1.077   .     S
C28    C567    1.386   1_554 S
C28    C542    1.415   1_554 S
Cu29   O49     1.954   .     S
Cu29   Cu30    2.675   .     S
Cu29   O47     1.965   .     S
Cu29   O51     1.967   .     S
Cu29   N45     2.010   .     S
Cu29   O53     1.939   .     S
Cu30   O54     1.954   .     S
Cu30   O50     1.939   .     S
Cu30   O48     1.967   .     S
Cu30   N46     2.010   .     S
Cu30   O52     1.965   .     S
H39    C564    1.084   .     S
H42    C567    1.084   1_554 S
N55    H56     1.046   .     S
N55    H57     1.046   .     S
N58    H60     1.046   .     S
N58    H59     1.046   .     S
C61    O108    1.290   .     A
C61    C77     1.447   .     S
C61    O107    1.290   .     A
C62    C63     1.418   .     A
C62    C604    1.424   .     S
C62    C628    1.415   .     S
C63    C70     1.423   .     A
C63    C67     1.412   .     A
C64    C68     1.402   .     A
C64    C602    1.424   1_554 S
C64    C605    1.420   1_554 S
C65    C66     1.392   .     A
C65    C604    1.420   .     S
C65    C624    1.404   .     S
C66    C67     1.387   .     A
C66    H98     1.084   .     S
C67    H103    1.078   .     S
C68    C85     1.395   .     A
C68    H100    1.077   .     S
C69    C85     1.399   .     A
C69    C84     1.393   .     A
C69    H91     1.083   .     S
C70    C86     1.418   .     A
C70    C72     1.484   .     S
C71    H104    1.083   .     S
C71    C77     1.398   .     A
C71    C253    1.383   .     S
C72    O110    1.299   .     A
C72    O109    1.295   .     A
C73    H92     1.083   .     S
C73    C74     1.403   .     A
C73    C431    1.383   1_545 S
C74    C82     1.455   .     S
C74    C75     1.413   .     A
C75    N115    1.434   .     S
C75    C436    1.389   1_545 S
C76    H93     1.084   .     S
C76    C77     1.398   .     A
C76    C255    1.389   .     S
C78    H94     1.080   .     S
C78    N106    1.367   .     A
C78    C139    1.415   .     S
C79    N105    1.366   .     A
C79    H95     1.082   .     S
C80    N105    1.367   .     A
C80    H96     1.082   .     S
C81    H97     1.082   .     S
C81    N106    1.367   .     A
C81    C140    1.416   .     S
C82    O111    1.289   .     A
C82    O112    1.294   .     A
C83    O113    1.292   .     A
C83    C85     1.462   .     S
C83    O114    1.294   .     A
C84    C605    1.404   1_554 S
C84    H639    1.084   1_554 S
C86    C87     1.393   .     A
C86    N118    1.434   .     S
C87    C628    1.386   .     S
C87    H642    1.084   .     S
C88    H101    1.077   .     S
C88    C627    1.386   1_554 S
C88    C602    1.415   1_554 S
Cu89   O109    1.954   .     S
Cu89   Cu90    2.675   .     S
Cu89   O107    1.965   .     S
Cu89   O111    1.967   .     S
Cu89   N105    2.010   .     S
Cu89   O113    1.939   .     S
Cu90   O114    1.954   .     S
Cu90   O110    1.939   .     S
Cu90   O108    1.967   .     S
Cu90   N106    2.010   .     S
Cu90   O112    1.965   .     S
H99    C624    1.084   .     S
H102   C627    1.084   1_554 S
N115   H116    1.046   .     S
N115   H117    1.046   .     S
N118   H120    1.046   .     S
N118   H119    1.046   .     S
C121   O168    1.290   .     A
C121   C137    1.447   .     S
C121   O167    1.290   .     A
C122   C123    1.418   .     A
C122   C664    1.424   .     S
C122   C688    1.415   .     S
C123   C130    1.423   .     A
C123   C127    1.412   .     A
C124   C128    1.402   .     A
C124   C662    1.424   1_554 S
C124   C665    1.420   1_554 S
C125   C126    1.392   .     A
C125   C664    1.420   .     S
C125   C684    1.404   .     S
C126   C127    1.387   .     A
C126   H158    1.084   .     S
C127   H163    1.078   .     S
C128   C145    1.395   .     A
C128   H160    1.077   .     S
C129   C145    1.399   .     A
C129   C144    1.393   .     A
C129   H151    1.083   .     S
C130   C146    1.418   .     A
C130   C132    1.484   .     S
C131   H164    1.083   .     S
C131   C137    1.398   .     A
C131   C313    1.383   .     S
C132   O170    1.299   .     A
C132   O169    1.295   .     A
C133   H152    1.083   .     S
C133   C134    1.403   .     A
C133   C491    1.383   1_545 S
C134   C142    1.455   .     S
C134   C135    1.413   .     A
C135   N175    1.434   .     S
C135   C496    1.389   1_545 S
C136   H153    1.084   .     S
C136   C137    1.398   .     A
C136   C315    1.389   .     S
C138   H154    1.080   .     S
C138   N166    1.367   .     A
C138   C19     1.415   1_655 S
C139   N165    1.366   .     A
C139   H155    1.082   .     S
C140   N165    1.367   .     A
C140   H156    1.082   .     S
C141   H157    1.082   .     S
C141   N166    1.367   .     A
C141   C20     1.416   1_655 S
C142   O171    1.289   .     A
C142   O172    1.294   .     A
C143   O173    1.292   .     A
C143   C145    1.462   .     S
C143   O174    1.294   .     A
C144   C665    1.404   1_554 S
C144   H699    1.084   1_554 S
C146   C147    1.393   .     A
C146   N178    1.434   .     S
C147   C688    1.386   .     S
C147   H702    1.084   .     S
C148   H161    1.077   .     S
C148   C687    1.386   1_554 S
C148   C662    1.415   1_554 S
Cu149  O169    1.954   .     S
Cu149  Cu150   2.675   .     S
Cu149  O167    1.965   .     S
Cu149  O171    1.967   .     S
Cu149  N165    2.010   .     S
Cu149  O173    1.939   .     S
Cu150  O174    1.954   .     S
Cu150  O170    1.939   .     S
Cu150  O168    1.967   .     S
Cu150  N166    2.010   .     S
Cu150  O172    1.965   .     S
H159   C684    1.084   .     S
H162   C687    1.084   1_554 S
N175   H176    1.046   .     S
N175   H177    1.046   .     S
N178   H180    1.046   .     S
N178   H179    1.046   .     S
C181   O228    1.290   .     A
C181   C197    1.447   .     S
C181   O227    1.290   .     A
C182   C183    1.418   .     A
C182   C724    1.424   .     S
C182   C748    1.415   .     S
C183   C190    1.423   .     A
C183   C187    1.412   .     A
C184   C188    1.402   .     A
C184   C722    1.424   1_554 S
C184   C725    1.420   1_554 S
C185   C186    1.392   .     A
C185   C724    1.420   .     S
C185   C744    1.404   .     S
C186   C187    1.387   .     A
C186   H218    1.084   .     S
C187   H223    1.078   .     S
C188   C205    1.395   .     A
C188   H220    1.077   .     S
C189   C205    1.399   .     A
C189   C204    1.393   .     A
C189   H211    1.083   .     S
C190   C206    1.418   .     A
C190   C192    1.484   .     S
C191   H224    1.083   .     S
C191   C197    1.398   .     A
C191   C373    1.383   .     S
C192   O230    1.299   .     A
C192   O229    1.295   .     A
C193   H212    1.083   .     S
C193   C194    1.403   .     A
C194   C202    1.455   .     S
C194   C195    1.413   .     A
C195   N235    1.434   .     S
C196   H213    1.084   .     S
C196   C197    1.398   .     A
C196   C375    1.389   .     S
C198   H214    1.080   .     S
C198   N226    1.367   .     A
C198   C259    1.415   .     S
C199   N225    1.366   .     A
C199   H215    1.082   .     S
C199   C318    1.415   1_455 S
C200   N225    1.367   .     A
C200   H216    1.082   .     S
C200   C321    1.416   1_455 S
C201   H217    1.082   .     S
C201   N226    1.367   .     A
C201   C260    1.416   .     S
C202   O231    1.289   .     A
C202   O232    1.294   .     A
C203   O233    1.292   .     A
C203   C205    1.462   .     S
C203   O234    1.294   .     A
C204   C725    1.404   1_554 S
C204   H759    1.084   1_554 S
C206   C207    1.393   .     A
C206   N238    1.434   .     S
C207   C748    1.386   .     S
C207   H762    1.084   .     S
C208   H221    1.077   .     S
C208   C747    1.386   1_554 S
C208   C722    1.415   1_554 S
Cu209  O229    1.954   .     S
Cu209  Cu210   2.675   .     S
Cu209  O227    1.965   .     S
Cu209  O231    1.967   .     S
Cu209  N225    2.010   .     S
Cu209  O233    1.939   .     S
Cu210  O234    1.954   .     S
Cu210  O230    1.939   .     S
Cu210  O228    1.967   .     S
Cu210  N226    2.010   .     S
Cu210  O232    1.965   .     S
H219   C744    1.084   .     S
H222   C747    1.084   1_554 S
N235   H236    1.046   .     S
N235   H237    1.046   .     S
N238   H240    1.046   .     S
N238   H239    1.046   .     S
C241   O288    1.290   .     A
C241   C257    1.447   .     S
C241   O287    1.290   .     A
C242   C243    1.418   .     A
C242   C784    1.424   .     S
C242   C808    1.415   .     S
C243   C250    1.423   .     A
C243   C247    1.412   .     A
C244   C248    1.402   .     A
C244   C782    1.424   1_554 S
C244   C785    1.420   1_554 S
C245   C246    1.392   .     A
C245   C784    1.420   .     S
C245   C804    1.404   .     S
C246   C247    1.387   .     A
C246   H278    1.084   .     S
C247   H283    1.078   .     S
C248   C265    1.395   .     A
C248   H280    1.077   .     S
C249   C265    1.399   .     A
C249   C264    1.393   .     A
C249   H271    1.083   .     S
C250   C266    1.418   .     A
C250   C252    1.484   .     S
C251   H284    1.083   .     S
C251   C257    1.398   .     A
C251   C433    1.383   .     S
C252   O290    1.299   .     A
C252   O289    1.295   .     A
C253   H272    1.083   .     S
C253   C254    1.403   .     A
C254   C262    1.455   .     S
C254   C255    1.413   .     A
C255   N295    1.434   .     S
C256   H273    1.084   .     S
C256   C257    1.398   .     A
C256   C435    1.389   .     S
C258   H274    1.080   .     S
C258   N286    1.367   .     A
C258   C319    1.415   .     S
C259   N285    1.366   .     A
C259   H275    1.082   .     S
C260   N285    1.367   .     A
C260   H276    1.082   .     S
C261   H277    1.082   .     S
C261   N286    1.367   .     A
C261   C320    1.416   .     S
C262   O291    1.289   .     A
C262   O292    1.294   .     A
C263   O293    1.292   .     A
C263   C265    1.462   .     S
C263   O294    1.294   .     A
C264   C785    1.404   1_554 S
C264   H819    1.084   1_554 S
C266   C267    1.393   .     A
C266   N298    1.434   .     S
C267   C808    1.386   .     S
C267   H822    1.084   .     S
C268   H281    1.077   .     S
C268   C807    1.386   1_554 S
C268   C782    1.415   1_554 S
Cu269  O289    1.954   .     S
Cu269  Cu270   2.675   .     S
Cu269  O287    1.965   .     S
Cu269  O291    1.967   .     S
Cu269  N285    2.010   .     S
Cu269  O293    1.939   .     S
Cu270  O294    1.954   .     S
Cu270  O290    1.939   .     S
Cu270  O288    1.967   .     S
Cu270  N286    2.010   .     S
Cu270  O292    1.965   .     S
H279   C804    1.084   .     S
H282   C807    1.084   1_554 S
N295   H296    1.046   .     S
N295   H297    1.046   .     S
N298   H300    1.046   .     S
N298   H299    1.046   .     S
C301   O348    1.290   .     A
C301   C317    1.447   .     S
C301   O347    1.290   .     A
C302   C303    1.418   .     A
C302   C844    1.424   .     S
C302   C868    1.415   .     S
C303   C310    1.423   .     A
C303   C307    1.412   .     A
C304   C308    1.402   .     A
C304   C842    1.424   1_554 S
C304   C845    1.420   1_554 S
C305   C306    1.392   .     A
C305   C844    1.420   .     S
C305   C864    1.404   .     S
C306   C307    1.387   .     A
C306   H338    1.084   .     S
C307   H343    1.078   .     S
C308   C325    1.395   .     A
C308   H340    1.077   .     S
C309   C325    1.399   .     A
C309   C324    1.393   .     A
C309   H331    1.083   .     S
C310   C326    1.418   .     A
C310   C312    1.484   .     S
C311   H344    1.083   .     S
C311   C317    1.398   .     A
C311   C493    1.383   .     S
C312   O350    1.299   .     A
C312   O349    1.295   .     A
C313   H332    1.083   .     S
C313   C314    1.403   .     A
C314   C322    1.455   .     S
C314   C315    1.413   .     A
C315   N355    1.434   .     S
C316   H333    1.084   .     S
C316   C317    1.398   .     A
C316   C495    1.389   .     S
C318   H334    1.080   .     S
C318   N346    1.367   .     A
C318   C199    1.415   1_655 S
C319   N345    1.366   .     A
C319   H335    1.082   .     S
C320   N345    1.367   .     A
C320   H336    1.082   .     S
C321   H337    1.082   .     S
C321   N346    1.367   .     A
C321   C200    1.416   1_655 S
C322   O351    1.289   .     A
C322   O352    1.294   .     A
C323   O353    1.292   .     A
C323   C325    1.462   .     S
C323   O354    1.294   .     A
C324   C845    1.404   1_554 S
C324   H879    1.084   1_554 S
C326   C327    1.393   .     A
C326   N358    1.434   .     S
C327   C868    1.386   .     S
C327   H882    1.084   .     S
C328   H341    1.077   .     S
C328   C867    1.386   1_554 S
C328   C842    1.415   1_554 S
Cu329  O349    1.954   .     S
Cu329  Cu330   2.675   .     S
Cu329  O347    1.965   .     S
Cu329  O351    1.967   .     S
Cu329  N345    2.010   .     S
Cu329  O353    1.939   .     S
Cu330  O354    1.954   .     S
Cu330  O350    1.939   .     S
Cu330  O348    1.967   .     S
Cu330  N346    2.010   .     S
Cu330  O352    1.965   .     S
H339   C864    1.084   .     S
H342   C867    1.084   1_554 S
N355   H356    1.046   .     S
N355   H357    1.046   .     S
N358   H360    1.046   .     S
N358   H359    1.046   .     S
C361   O408    1.290   .     A
C361   C377    1.447   .     S
C361   O407    1.290   .     A
C362   C363    1.418   .     A
C362   C904    1.424   .     S
C362   C928    1.415   .     S
C363   C370    1.423   .     A
C363   C367    1.412   .     A
C364   C368    1.402   .     A
C364   C902    1.424   1_554 S
C364   C905    1.420   1_554 S
C365   C366    1.392   .     A
C365   C904    1.420   .     S
C365   C924    1.404   .     S
C366   C367    1.387   .     A
C366   H398    1.084   .     S
C367   H403    1.078   .     S
C368   C385    1.395   .     A
C368   H400    1.077   .     S
C369   C385    1.399   .     A
C369   C384    1.393   .     A
C369   H391    1.083   .     S
C370   C386    1.418   .     A
C370   C372    1.484   .     S
C371   H404    1.083   .     S
C371   C377    1.398   .     A
C371   C13     1.383   1_565 S
C372   O410    1.299   .     A
C372   O409    1.295   .     A
C373   H392    1.083   .     S
C373   C374    1.403   .     A
C374   C382    1.455   .     S
C374   C375    1.413   .     A
C375   N415    1.434   .     S
C376   H393    1.084   .     S
C376   C377    1.398   .     A
C376   C15     1.389   1_565 S
C378   H394    1.080   .     S
C378   N406    1.367   .     A
C378   C439    1.415   .     S
C379   N405    1.366   .     A
C379   H395    1.082   .     S
C379   C498    1.415   1_455 S
C380   N405    1.367   .     A
C380   H396    1.082   .     S
C380   C501    1.416   1_455 S
C381   H397    1.082   .     S
C381   N406    1.367   .     A
C381   C440    1.416   .     S
C382   O411    1.289   .     A
C382   O412    1.294   .     A
C383   O413    1.292   .     A
C383   C385    1.462   .     S
C383   O414    1.294   .     A
C384   C905    1.404   1_554 S
C384   H939    1.084   1_554 S
C386   C387    1.393   .     A
C386   N418    1.434   .     S
C387   C928    1.386   .     S
C387   H942    1.084   .     S
C388   H401    1.077   .     S
C388   C927    1.386   1_554 S
C388   C902    1.415   1_554 S
Cu389  O409    1.954   .     S
Cu389  Cu390   2.675   .     S
Cu389  O407    1.965   .     S
Cu389  O411    1.967   .     S
Cu389  N405    2.010   .     S
Cu389  O413    1.939   .     S
Cu390  O414    1.954   .     S
Cu390  O410    1.939   .     S
Cu390  O408    1.967   .     S
Cu390  N406    2.010   .     S
Cu390  O412    1.965   .     S
H399   C924    1.084   .     S
H402   C927    1.084   1_554 S
N415   H416    1.046   .     S
N415   H417    1.046   .     S
N418   H420    1.046   .     S
N418   H419    1.046   .     S
C421   O468    1.290   .     A
C421   C437    1.447   .     S
C421   O467    1.290   .     A
C422   C423    1.418   .     A
C422   C964    1.424   .     S
C422   C988    1.415   .     S
C423   C430    1.423   .     A
C423   C427    1.412   .     A
C424   C428    1.402   .     A
C424   C962    1.424   1_554 S
C424   C965    1.420   1_554 S
C425   C426    1.392   .     A
C425   C964    1.420   .     S
C425   C984    1.404   .     S
C426   C427    1.387   .     A
C426   H458    1.084   .     S
C427   H463    1.078   .     S
C428   C445    1.395   .     A
C428   H460    1.077   .     S
C429   C445    1.399   .     A
C429   C444    1.393   .     A
C429   H451    1.083   .     S
C430   C446    1.418   .     A
C430   C432    1.484   .     S
C431   H464    1.083   .     S
C431   C437    1.398   .     A
C431   C73     1.383   1_565 S
C432   O470    1.299   .     A
C432   O469    1.295   .     A
C433   H452    1.083   .     S
C433   C434    1.403   .     A
C434   C442    1.455   .     S
C434   C435    1.413   .     A
C435   N475    1.434   .     S
C436   H453    1.084   .     S
C436   C437    1.398   .     A
C436   C75     1.389   1_565 S
C438   H454    1.080   .     S
C438   N466    1.367   .     A
C438   C499    1.415   .     S
C439   N465    1.366   .     A
C439   H455    1.082   .     S
C440   N465    1.367   .     A
C440   H456    1.082   .     S
C441   H457    1.082   .     S
C441   N466    1.367   .     A
C441   C500    1.416   .     S
C442   O471    1.289   .     A
C442   O472    1.294   .     A
C443   O473    1.292   .     A
C443   C445    1.462   .     S
C443   O474    1.294   .     A
C444   C965    1.404   1_554 S
C444   H999    1.084   1_554 S
C446   C447    1.393   .     A
C446   N478    1.434   .     S
C447   C988    1.386   .     S
C447   H1002   1.084   .     S
C448   H461    1.077   .     S
C448   C987    1.386   1_554 S
C448   C962    1.415   1_554 S
Cu449  O469    1.954   .     S
Cu449  Cu450   2.675   .     S
Cu449  O467    1.965   .     S
Cu449  O471    1.967   .     S
Cu449  N465    2.010   .     S
Cu449  O473    1.939   .     S
Cu450  O474    1.954   .     S
Cu450  O470    1.939   .     S
Cu450  O468    1.967   .     S
Cu450  N466    2.010   .     S
Cu450  O472    1.965   .     S
H459   C984    1.084   .     S
H462   C987    1.084   1_554 S
N475   H476    1.046   .     S
N475   H477    1.046   .     S
N478   H480    1.046   .     S
N478   H479    1.046   .     S
C481   O528    1.290   .     A
C481   C497    1.447   .     S
C481   O527    1.290   .     A
C482   C483    1.418   .     A
C482   C1024   1.424   .     S
C482   C1048   1.415   .     S
C483   C490    1.423   .     A
C483   C487    1.412   .     A
C484   C488    1.402   .     A
C484   C1022   1.424   1_554 S
C484   C1025   1.420   1_554 S
C485   C486    1.392   .     A
C485   C1024   1.420   .     S
C485   C1044   1.404   .     S
C486   C487    1.387   .     A
C486   H518    1.084   .     S
C487   H523    1.078   .     S
C488   C505    1.395   .     A
C488   H520    1.077   .     S
C489   C505    1.399   .     A
C489   C504    1.393   .     A
C489   H511    1.083   .     S
C490   C506    1.418   .     A
C490   C492    1.484   .     S
C491   H524    1.083   .     S
C491   C497    1.398   .     A
C491   C133    1.383   1_565 S
C492   O530    1.299   .     A
C492   O529    1.295   .     A
C493   H512    1.083   .     S
C493   C494    1.403   .     A
C494   C502    1.455   .     S
C494   C495    1.413   .     A
C495   N535    1.434   .     S
C496   H513    1.084   .     S
C496   C497    1.398   .     A
C496   C135    1.389   1_565 S
C498   H514    1.080   .     S
C498   N526    1.367   .     A
C498   C379    1.415   1_655 S
C499   N525    1.366   .     A
C499   H515    1.082   .     S
C500   N525    1.367   .     A
C500   H516    1.082   .     S
C501   H517    1.082   .     S
C501   N526    1.367   .     A
C501   C380    1.416   1_655 S
C502   O531    1.289   .     A
C502   O532    1.294   .     A
C503   O533    1.292   .     A
C503   C505    1.462   .     S
C503   O534    1.294   .     A
C504   C1025   1.404   1_554 S
C504   H1059   1.084   1_554 S
C506   C507    1.393   .     A
C506   N538    1.434   .     S
C507   C1048   1.386   .     S
C507   H1062   1.084   .     S
C508   H521    1.077   .     S
C508   C1047   1.386   1_554 S
C508   C1022   1.415   1_554 S
Cu509  O529    1.954   .     S
Cu509  Cu510   2.675   .     S
Cu509  O527    1.965   .     S
Cu509  O531    1.967   .     S
Cu509  N525    2.010   .     S
Cu509  O533    1.939   .     S
Cu510  O534    1.954   .     S
Cu510  O530    1.939   .     S
Cu510  O528    1.967   .     S
Cu510  N526    2.010   .     S
Cu510  O532    1.965   .     S
H519   C1044   1.084   .     S
H522   C1047   1.084   1_554 S
N535   H536    1.046   .     S
N535   H537    1.046   .     S
N538   H540    1.046   .     S
N538   H539    1.046   .     S
C541   O588    1.290   .     A
C541   C557    1.447   .     S
C541   O587    1.290   .     A
C542   C543    1.418   .     A
C542   C4      1.424   1_556 S
C542   C28     1.415   1_556 S
C543   C550    1.423   .     A
C543   C547    1.412   .     A
C544   C548    1.402   .     A
C545   C546    1.392   .     A
C545   C4      1.420   1_556 S
C545   C24     1.404   1_556 S
C546   C547    1.387   .     A
C546   H578    1.084   .     S
C547   H583    1.078   .     S
C548   C565    1.395   .     A
C548   H580    1.077   .     S
C549   C565    1.399   .     A
C549   C564    1.393   .     A
C549   H571    1.083   .     S
C550   C566    1.418   .     A
C550   C552    1.484   .     S
C551   H584    1.083   .     S
C551   C557    1.398   .     A
C551   C733    1.383   .     S
C552   O590    1.299   .     A
C552   O589    1.295   .     A
C553   H572    1.083   .     S
C553   C554    1.403   .     A
C553   C911    1.383   1_545 S
C554   C562    1.455   .     S
C554   C555    1.413   .     A
C555   N595    1.434   .     S
C555   C916    1.389   1_545 S
C556   H573    1.084   .     S
C556   C557    1.398   .     A
C556   C735    1.389   .     S
C558   H574    1.080   .     S
C558   N586    1.367   .     A
C558   C619    1.415   .     S
C559   N585    1.366   .     A
C559   H575    1.082   .     S
C559   C678    1.415   1_455 S
C560   N585    1.367   .     A
C560   H576    1.082   .     S
C560   C681    1.416   1_455 S
C561   H577    1.082   .     S
C561   N586    1.367   .     A
C561   C620    1.416   .     S
C562   O591    1.289   .     A
C562   O592    1.294   .     A
C563   O593    1.292   .     A
C563   C565    1.462   .     S
C563   O594    1.294   .     A
C566   C567    1.393   .     A
C566   N598    1.434   .     S
C567   C28     1.386   1_556 S
C567   H42     1.084   1_556 S
C568   H581    1.077   .     S
Cu569  O589    1.954   .     S
Cu569  Cu570   2.675   .     S
Cu569  O587    1.965   .     S
Cu569  O591    1.967   .     S
Cu569  N585    2.010   .     S
Cu569  O593    1.939   .     S
Cu570  O594    1.954   .     S
Cu570  O590    1.939   .     S
Cu570  O588    1.967   .     S
Cu570  N586    2.010   .     S
Cu570  O592    1.965   .     S
H579   C24     1.084   1_556 S
N595   H596    1.046   .     S
N595   H597    1.046   .     S
N598   H600    1.046   .     S
N598   H599    1.046   .     S
C601   O648    1.290   .     A
C601   C617    1.447   .     S
C601   O647    1.290   .     A
C602   C603    1.418   .     A
C602   C64     1.424   1_556 S
C602   C88     1.415   1_556 S
C603   C610    1.423   .     A
C603   C607    1.412   .     A
C604   C608    1.402   .     A
C605   C606    1.392   .     A
C605   C64     1.420   1_556 S
C605   C84     1.404   1_556 S
C606   C607    1.387   .     A
C606   H638    1.084   .     S
C607   H643    1.078   .     S
C608   C625    1.395   .     A
C608   H640    1.077   .     S
C609   C625    1.399   .     A
C609   C624    1.393   .     A
C609   H631    1.083   .     S
C610   C626    1.418   .     A
C610   C612    1.484   .     S
C611   H644    1.083   .     S
C611   C617    1.398   .     A
C611   C793    1.383   .     S
C612   O650    1.299   .     A
C612   O649    1.295   .     A
C613   H632    1.083   .     S
C613   C614    1.403   .     A
C613   C971    1.383   1_545 S
C614   C622    1.455   .     S
C614   C615    1.413   .     A
C615   N655    1.434   .     S
C615   C976    1.389   1_545 S
C616   H633    1.084   .     S
C616   C617    1.398   .     A
C616   C795    1.389   .     S
C618   H634    1.080   .     S
C618   N646    1.367   .     A
C618   C679    1.415   .     S
C619   N645    1.366   .     A
C619   H635    1.082   .     S
C620   N645    1.367   .     A
C620   H636    1.082   .     S
C621   H637    1.082   .     S
C621   N646    1.367   .     A
C621   C680    1.416   .     S
C622   O651    1.289   .     A
C622   O652    1.294   .     A
C623   O653    1.292   .     A
C623   C625    1.462   .     S
C623   O654    1.294   .     A
C626   C627    1.393   .     A
C626   N658    1.434   .     S
C627   C88     1.386   1_556 S
C627   H102    1.084   1_556 S
C628   H641    1.077   .     S
Cu629  O649    1.954   .     S
Cu629  Cu630   2.675   .     S
Cu629  O647    1.965   .     S
Cu629  O651    1.967   .     S
Cu629  N645    2.010   .     S
Cu629  O653    1.939   .     S
Cu630  O654    1.954   .     S
Cu630  O650    1.939   .     S
Cu630  O648    1.967   .     S
Cu630  N646    2.010   .     S
Cu630  O652    1.965   .     S
H639   C84     1.084   1_556 S
N655   H656    1.046   .     S
N655   H657    1.046   .     S
N658   H660    1.046   .     S
N658   H659    1.046   .     S
C661   O708    1.290   .     A
C661   C677    1.447   .     S
C661   O707    1.290   .     A
C662   C663    1.418   .     A
C662   C124    1.424   1_556 S
C662   C148    1.415   1_556 S
C663   C670    1.423   .     A
C663   C667    1.412   .     A
C664   C668    1.402   .     A
C665   C666    1.392   .     A
C665   C124    1.420   1_556 S
C665   C144    1.404   1_556 S
C666   C667    1.387   .     A
C666   H698    1.084   .     S
C667   H703    1.078   .     S
C668   C685    1.395   .     A
C668   H700    1.077   .     S
C669   C685    1.399   .     A
C669   C684    1.393   .     A
C669   H691    1.083   .     S
C670   C686    1.418   .     A
C670   C672    1.484   .     S
C671   H704    1.083   .     S
C671   C677    1.398   .     A
C671   C853    1.383   .     S
C672   O710    1.299   .     A
C672   O709    1.295   .     A
C673   H692    1.083   .     S
C673   C674    1.403   .     A
C673   C1031   1.383   1_545 S
C674   C682    1.455   .     S
C674   C675    1.413   .     A
C675   N715    1.434   .     S
C675   C1036   1.389   1_545 S
C676   H693    1.084   .     S
C676   C677    1.398   .     A
C676   C855    1.389   .     S
C678   H694    1.080   .     S
C678   N706    1.367   .     A
C678   C559    1.415   1_655 S
C679   N705    1.366   .     A
C679   H695    1.082   .     S
C680   N705    1.367   .     A
C680   H696    1.082   .     S
C681   H697    1.082   .     S
C681   N706    1.367   .     A
C681   C560    1.416   1_655 S
C682   O711    1.289   .     A
C682   O712    1.294   .     A
C683   O713    1.292   .     A
C683   C685    1.462   .     S
C683   O714    1.294   .     A
C686   C687    1.393   .     A
C686   N718    1.434   .     S
C687   C148    1.386   1_556 S
C687   H162    1.084   1_556 S
C688   H701    1.077   .     S
Cu689  O709    1.954   .     S
Cu689  Cu690   2.675   .     S
Cu689  O707    1.965   .     S
Cu689  O711    1.967   .     S
Cu689  N705    2.010   .     S
Cu689  O713    1.939   .     S
Cu690  O714    1.954   .     S
Cu690  O710    1.939   .     S
Cu690  O708    1.967   .     S
Cu690  N706    2.010   .     S
Cu690  O712    1.965   .     S
H699   C144    1.084   1_556 S
N715   H716    1.046   .     S
N715   H717    1.046   .     S
N718   H720    1.046   .     S
N718   H719    1.046   .     S
C721   O768    1.290   .     A
C721   C737    1.447   .     S
C721   O767    1.290   .     A
C722   C723    1.418   .     A
C722   C184    1.424   1_556 S
C722   C208    1.415   1_556 S
C723   C730    1.423   .     A
C723   C727    1.412   .     A
C724   C728    1.402   .     A
C725   C726    1.392   .     A
C725   C184    1.420   1_556 S
C725   C204    1.404   1_556 S
C726   C727    1.387   .     A
C726   H758    1.084   .     S
C727   H763    1.078   .     S
C728   C745    1.395   .     A
C728   H760    1.077   .     S
C729   C745    1.399   .     A
C729   C744    1.393   .     A
C729   H751    1.083   .     S
C730   C746    1.418   .     A
C730   C732    1.484   .     S
C731   H764    1.083   .     S
C731   C737    1.398   .     A
C731   C913    1.383   .     S
C732   O770    1.299   .     A
C732   O769    1.295   .     A
C733   H752    1.083   .     S
C733   C734    1.403   .     A
C734   C742    1.455   .     S
C734   C735    1.413   .     A
C735   N775    1.434   .     S
C736   H753    1.084   .     S
C736   C737    1.398   .     A
C736   C915    1.389   .     S
C738   H754    1.080   .     S
C738   N766    1.367   .     A
C738   C799    1.415   .     S
C739   N765    1.366   .     A
C739   H755    1.082   .     S
C739   C858    1.415   1_455 S
C740   N765    1.367   .     A
C740   H756    1.082   .     S
C740   C861    1.416   1_455 S
C741   H757    1.082   .     S
C741   N766    1.367   .     A
C741   C800    1.416   .     S
C742   O771    1.289   .     A
C742   O772    1.294   .     A
C743   O773    1.292   .     A
C743   C745    1.462   .     S
C743   O774    1.294   .     A
C746   C747    1.393   .     A
C746   N778    1.434   .     S
C747   C208    1.386   1_556 S
C747   H222    1.084   1_556 S
C748   H761    1.077   .     S
Cu749  O769    1.954   .     S
Cu749  Cu750   2.675   .     S
Cu749  O767    1.965   .     S
Cu749  O771    1.967   .     S
Cu749  N765    2.010   .     S
Cu749  O773    1.939   .     S
Cu750  O774    1.954   .     S
Cu750  O770    1.939   .     S
Cu750  O768    1.967   .     S
Cu750  N766    2.010   .     S
Cu750  O772    1.965   .     S
H759   C204    1.084   1_556 S
N775   H776    1.046   .     S
N775   H777    1.046   .     S
N778   H780    1.046   .     S
N778   H779    1.046   .     S
C781   O828    1.290   .     A
C781   C797    1.447   .     S
C781   O827    1.290   .     A
C782   C783    1.418   .     A
C782   C244    1.424   1_556 S
C782   C268    1.415   1_556 S
C783   C790    1.423   .     A
C783   C787    1.412   .     A
C784   C788    1.402   .     A
C785   C786    1.392   .     A
C785   C244    1.420   1_556 S
C785   C264    1.404   1_556 S
C786   C787    1.387   .     A
C786   H818    1.084   .     S
C787   H823    1.078   .     S
C788   C805    1.395   .     A
C788   H820    1.077   .     S
C789   C805    1.399   .     A
C789   C804    1.393   .     A
C789   H811    1.083   .     S
C790   C806    1.418   .     A
C790   C792    1.484   .     S
C791   H824    1.083   .     S
C791   C797    1.398   .     A
C791   C973    1.383   .     S
C792   O830    1.299   .     A
C792   O829    1.295   .     A
C793   H812    1.083   .     S
C793   C794    1.403   .     A
C794   C802    1.455   .     S
C794   C795    1.413   .     A
C795   N835    1.434   .     S
C796   H813    1.084   .     S
C796   C797    1.398   .     A
C796   C975    1.389   .     S
C798   H814    1.080   .     S
C798   N826    1.367   .     A
C798   C859    1.415   .     S
C799   N825    1.366   .     A
C799   H815    1.082   .     S
C800   N825    1.367   .     A
C800   H816    1.082   .     S
C801   H817    1.082   .     S
C801   N826    1.367   .     A
C801   C860    1.416   .     S
C802   O831    1.289   .     A
C802   O832    1.294   .     A
C803   O833    1.292   .     A
C803   C805    1.462   .     S
C803   O834    1.294   .     A
C806   C807    1.393   .     A
C806   N838    1.434   .     S
C807   C268    1.386   1_556 S
C807   H282    1.084   1_556 S
C808   H821    1.077   .     S
Cu809  O829    1.954   .     S
Cu809  Cu810   2.675   .     S
Cu809  O827    1.965   .     S
Cu809  O831    1.967   .     S
Cu809  N825    2.010   .     S
Cu809  O833    1.939   .     S
Cu810  O834    1.954   .     S
Cu810  O830    1.939   .     S
Cu810  O828    1.967   .     S
Cu810  N826    2.010   .     S
Cu810  O832    1.965   .     S
H819   C264    1.084   1_556 S
N835   H836    1.046   .     S
N835   H837    1.046   .     S
N838   H840    1.046   .     S
N838   H839    1.046   .     S
C841   O888    1.290   .     A
C841   C857    1.447   .     S
C841   O887    1.290   .     A
C842   C843    1.418   .     A
C842   C304    1.424   1_556 S
C842   C328    1.415   1_556 S
C843   C850    1.423   .     A
C843   C847    1.412   .     A
C844   C848    1.402   .     A
C845   C846    1.392   .     A
C845   C304    1.420   1_556 S
C845   C324    1.404   1_556 S
C846   C847    1.387   .     A
C846   H878    1.084   .     S
C847   H883    1.078   .     S
C848   C865    1.395   .     A
C848   H880    1.077   .     S
C849   C865    1.399   .     A
C849   C864    1.393   .     A
C849   H871    1.083   .     S
C850   C866    1.418   .     A
C850   C852    1.484   .     S
C851   H884    1.083   .     S
C851   C857    1.398   .     A
C851   C1033   1.383   .     S
C852   O890    1.299   .     A
C852   O889    1.295   .     A
C853   H872    1.083   .     S
C853   C854    1.403   .     A
C854   C862    1.455   .     S
C854   C855    1.413   .     A
C855   N895    1.434   .     S
C856   H873    1.084   .     S
C856   C857    1.398   .     A
C856   C1035   1.389   .     S
C858   H874    1.080   .     S
C858   N886    1.367   .     A
C858   C739    1.415   1_655 S
C859   N885    1.366   .     A
C859   H875    1.082   .     S
C860   N885    1.367   .     A
C860   H876    1.082   .     S
C861   H877    1.082   .     S
C861   N886    1.367   .     A
C861   C740    1.416   1_655 S
C862   O891    1.289   .     A
C862   O892    1.294   .     A
C863   O893    1.292   .     A
C863   C865    1.462   .     S
C863   O894    1.294   .     A
C866   C867    1.393   .     A
C866   N898    1.434   .     S
C867   C328    1.386   1_556 S
C867   H342    1.084   1_556 S
C868   H881    1.077   .     S
Cu869  O889    1.954   .     S
Cu869  Cu870   2.675   .     S
Cu869  O887    1.965   .     S
Cu869  O891    1.967   .     S
Cu869  N885    2.010   .     S
Cu869  O893    1.939   .     S
Cu870  O894    1.954   .     S
Cu870  O890    1.939   .     S
Cu870  O888    1.967   .     S
Cu870  N886    2.010   .     S
Cu870  O892    1.965   .     S
H879   C324    1.084   1_556 S
N895   H896    1.046   .     S
N895   H897    1.046   .     S
N898   H900    1.046   .     S
N898   H899    1.046   .     S
C901   O948    1.290   .     A
C901   C917    1.447   .     S
C901   O947    1.290   .     A
C902   C903    1.418   .     A
C902   C364    1.424   1_556 S
C902   C388    1.415   1_556 S
C903   C910    1.423   .     A
C903   C907    1.412   .     A
C904   C908    1.402   .     A
C905   C906    1.392   .     A
C905   C364    1.420   1_556 S
C905   C384    1.404   1_556 S
C906   C907    1.387   .     A
C906   H938    1.084   .     S
C907   H943    1.078   .     S
C908   C925    1.395   .     A
C908   H940    1.077   .     S
C909   C925    1.399   .     A
C909   C924    1.393   .     A
C909   H931    1.083   .     S
C910   C926    1.418   .     A
C910   C912    1.484   .     S
C911   H944    1.083   .     S
C911   C917    1.398   .     A
C911   C553    1.383   1_565 S
C912   O950    1.299   .     A
C912   O949    1.295   .     A
C913   H932    1.083   .     S
C913   C914    1.403   .     A
C914   C922    1.455   .     S
C914   C915    1.413   .     A
C915   N955    1.434   .     S
C916   H933    1.084   .     S
C916   C917    1.398   .     A
C916   C555    1.389   1_565 S
C918   H934    1.080   .     S
C918   N946    1.367   .     A
C918   C979    1.415   .     S
C919   N945    1.366   .     A
C919   H935    1.082   .     S
C919   C1038   1.415   1_455 S
C920   N945    1.367   .     A
C920   H936    1.082   .     S
C920   C1041   1.416   1_455 S
C921   H937    1.082   .     S
C921   N946    1.367   .     A
C921   C980    1.416   .     S
C922   O951    1.289   .     A
C922   O952    1.294   .     A
C923   O953    1.292   .     A
C923   C925    1.462   .     S
C923   O954    1.294   .     A
C926   C927    1.393   .     A
C926   N958    1.434   .     S
C927   C388    1.386   1_556 S
C927   H402    1.084   1_556 S
C928   H941    1.077   .     S
Cu929  O949    1.954   .     S
Cu929  Cu930   2.675   .     S
Cu929  O947    1.965   .     S
Cu929  O951    1.967   .     S
Cu929  N945    2.010   .     S
Cu929  O953    1.939   .     S
Cu930  O954    1.954   .     S
Cu930  O950    1.939   .     S
Cu930  O948    1.967   .     S
Cu930  N946    2.010   .     S
Cu930  O952    1.965   .     S
H939   C384    1.084   1_556 S
N955   H956    1.046   .     S
N955   H957    1.046   .     S
N958   H960    1.046   .     S
N958   H959    1.046   .     S
C961   O1008   1.290   .     A
C961   C977    1.447   .     S
C961   O1007   1.290   .     A
C962   C963    1.418   .     A
C962   C424    1.424   1_556 S
C962   C448    1.415   1_556 S
C963   C970    1.423   .     A
C963   C967    1.412   .     A
C964   C968    1.402   .     A
C965   C966    1.392   .     A
C965   C424    1.420   1_556 S
C965   C444    1.404   1_556 S
C966   C967    1.387   .     A
C966   H998    1.084   .     S
C967   H1003   1.078   .     S
C968   C985    1.395   .     A
C968   H1000   1.077   .     S
C969   C985    1.399   .     A
C969   C984    1.393   .     A
C969   H991    1.083   .     S
C970   C986    1.418   .     A
C970   C972    1.484   .     S
C971   H1004   1.083   .     S
C971   C977    1.398   .     A
C971   C613    1.383   1_565 S
C972   O1010   1.299   .     A
C972   O1009   1.295   .     A
C973   H992    1.083   .     S
C973   C974    1.403   .     A
C974   C982    1.455   .     S
C974   C975    1.413   .     A
C975   N1015   1.434   .     S
C976   H993    1.084   .     S
C976   C977    1.398   .     A
C976   C615    1.389   1_565 S
C978   H994    1.080   .     S
C978   N1006   1.367   .     A
C978   C1039   1.415   .     S
C979   N1005   1.366   .     A
C979   H995    1.082   .     S
C980   N1005   1.367   .     A
C980   H996    1.082   .     S
C981   H997    1.082   .     S
C981   N1006   1.367   .     A
C981   C1040   1.416   .     S
C982   O1011   1.289   .     A
C982   O1012   1.294   .     A
C983   O1013   1.292   .     A
C983   C985    1.462   .     S
C983   O1014   1.294   .     A
C986   C987    1.393   .     A
C986   N1018   1.434   .     S
C987   C448    1.386   1_556 S
C987   H462    1.084   1_556 S
C988   H1001   1.077   .     S
Cu989  O1009   1.954   .     S
Cu989  Cu990   2.675   .     S
Cu989  O1007   1.965   .     S
Cu989  O1011   1.967   .     S
Cu989  N1005   2.010   .     S
Cu989  O1013   1.939   .     S
Cu990  O1014   1.954   .     S
Cu990  O1010   1.939   .     S
Cu990  O1008   1.967   .     S
Cu990  N1006   2.010   .     S
Cu990  O1012   1.965   .     S
H999   C444    1.084   1_556 S
N1015  H1016   1.046   .     S
N1015  H1017   1.046   .     S
N1018  H1020   1.046   .     S
N1018  H1019   1.046   .     S
C1021  O1068   1.290   .     A
C1021  C1037   1.447   .     S
C1021  O1067   1.290   .     A
C1022  C1023   1.418   .     A
C1022  C484    1.424   1_556 S
C1022  C508    1.415   1_556 S
C1023  C1030   1.423   .     A
C1023  C1027   1.412   .     A
C1024  C1028   1.402   .     A
C1025  C1026   1.392   .     A
C1025  C484    1.420   1_556 S
C1025  C504    1.404   1_556 S
C1026  C1027   1.387   .     A
C1026  H1058   1.084   .     S
C1027  H1063   1.078   .     S
C1028  C1045   1.395   .     A
C1028  H1060   1.077   .     S
C1029  C1045   1.399   .     A
C1029  C1044   1.393   .     A
C1029  H1051   1.083   .     S
C1030  C1046   1.418   .     A
C1030  C1032   1.484   .     S
C1031  H1064   1.083   .     S
C1031  C1037   1.398   .     A
C1031  C673    1.383   1_565 S
C1032  O1070   1.299   .     A
C1032  O1069   1.295   .     A
C1033  H1052   1.083   .     S
C1033  C1034   1.403   .     A
C1034  C1042   1.455   .     S
C1034  C1035   1.413   .     A
C1035  N1075   1.434   .     S
C1036  H1053   1.084   .     S
C1036  C1037   1.398   .     A
C1036  C675    1.389   1_565 S
C1038  H1054   1.080   .     S
C1038  N1066   1.367   .     A
C1038  C919    1.415   1_655 S
C1039  N1065   1.366   .     A
C1039  H1055   1.082   .     S
C1040  N1065   1.367   .     A
C1040  H1056   1.082   .     S
C1041  H1057   1.082   .     S
C1041  N1066   1.367   .     A
C1041  C920    1.416   1_655 S
C1042  O1071   1.289   .     A
C1042  O1072   1.294   .     A
C1043  O1073   1.292   .     A
C1043  C1045   1.462   .     S
C1043  O1074   1.294   .     A
C1046  C1047   1.393   .     A
C1046  N1078   1.434   .     S
C1047  C508    1.386   1_556 S
C1047  H522    1.084   1_556 S
C1048  H1061   1.077   .     S
Cu1049 O1069   1.954   .     S
Cu1049 Cu1050  2.675   .     S
Cu1049 O1067   1.965   .     S
Cu1049 O1071   1.967   .     S
Cu1049 N1065   2.010   .     S
Cu1049 O1073   1.939   .     S
Cu1050 O1074   1.954   .     S
Cu1050 O1070   1.939   .     S
Cu1050 O1068   1.967   .     S
Cu1050 N1066   2.010   .     S
Cu1050 O1072   1.965   .     S
H1059  C504    1.084   1_556 S
N1075  H1076   1.046   .     S
N1075  H1077   1.046   .     S
N1078  H1080   1.046   .     S
N1078  H1079   1.046   .     S
