data_str_m3_o1_o16_pcu_sym.172
_audit_creation_date              2020-01-03
_audit_creation_method            'Materials Studio'
_symmetry_space_group_name_H-M    'P1'
_symmetry_Int_Tables_number       1
_symmetry_cell_setting            triclinic
loop_
_symmetry_equiv_pos_as_xyz
  x,y,z
_cell_length_a                    29.5566
_cell_length_b                    32.1395
_cell_length_c                    26.2371
_cell_angle_alpha                 90.2219
_cell_angle_beta                  69.7793
_cell_angle_gamma                 89.9019
loop_
_atom_site_label
_atom_site_type_symbol
_atom_site_fract_x
_atom_site_fract_y
_atom_site_fract_z
_atom_site_U_iso_or_equiv
_atom_site_adp_type
_atom_site_occupancy
O1     O     0.12846   0.22775   0.25001   0.00000  Uiso   1.00
O2     O     0.20490   0.22774   0.25001   0.00000  Uiso   1.00
C3     C     0.16658   0.24670   0.25024   0.00000  Uiso   1.00
O4     O     0.10947   0.16666   0.32681   0.00000  Uiso   1.00
O5     O     0.18591   0.16665   0.32681   0.00000  Uiso   1.00
C6     C     0.13991   0.16453   0.35215   0.00000  Uiso   1.00
Zn7    Zn    0.11562   0.16667   0.25000   0.00000  Uiso   1.00
Zn8    Zn    0.21771   0.16666   0.25000   0.00000  Uiso   1.00
O9     O     0.12843   0.10559   0.25000   0.00000  Uiso   1.00
O10    O     0.20488   0.10558   0.25000   0.00000  Uiso   1.00
O11    O     0.14742   0.16668   0.17319   0.00000  Uiso   1.00
O12    O     0.22387   0.16667   0.17319   0.00000  Uiso   1.00
C13    C     0.16665   0.08664   0.25008   0.00000  Uiso   1.00
C14    C     0.19347   0.16647   0.14775   0.00000  Uiso   1.00
C15    C     0.26105   0.12557   0.00771   0.00000  Uiso   1.00
H16    H     0.27832   0.13271   0.08076   0.00000  Uiso   1.00
H17    H     0.25792   0.09273   0.41287   0.00000  Uiso   1.00
C18    C     0.20989   0.16075   0.08925   0.00000  Uiso   1.00
C19    C     0.07734   0.17816   0.44153   0.00000  Uiso   1.00
C20    C     0.06440   0.18299   0.49735   0.00000  Uiso   1.00
C21    C     0.09774   0.17423   0.02255   0.00000  Uiso   1.00
C22    C     0.14409   0.15818   0.49223   0.00000  Uiso   1.00
C23    C     0.15343   0.14664   0.43784   0.00000  Uiso   1.00
C24    C     0.18144   0.15317   0.01396   0.00000  Uiso   1.00
C25    C     0.22434   0.13084   0.48473   0.00000  Uiso   1.00
C26    C     0.22825   0.11298   0.43464   0.00000  Uiso   1.00
C27    C     0.19360   0.12106   0.41134   0.00000  Uiso   1.00
C28    C     0.17725   0.17053   0.06391   0.00000  Uiso   1.00
C29    C     0.25244   0.13938   0.06102   0.00000  Uiso   1.00
C30    C     0.12244   0.16130   0.41126   0.00000  Uiso   1.00
H31    H     0.14737   0.19058   0.08540   0.00000  Uiso   1.00
H32    H     0.05261   0.18857   0.42193   0.00000  Uiso   1.00
H33    H     0.08585   0.17926   0.06587   0.00000  Uiso   1.00
H34    H     0.02920   0.19532   0.02084   0.00000  Uiso   1.00
H35    H     0.19820   0.10651   0.37259   0.00000  Uiso   1.00
C36    C     0.20283   0.31201   0.26252   0.00000  Uiso   1.00
H37    H     0.23100   0.29574   0.27211   0.00000  Uiso   1.00
C38    C     0.20289   0.02131   0.26242   0.00000  Uiso   1.00
H39    H     0.23107   0.03756   0.27198   0.00000  Uiso   1.00
C40    C     0.16653   0.04249   0.25041   0.00000  Uiso   1.00
C41    C     0.12996   0.02133   0.23880   0.00000  Uiso   1.00
H42    H     0.10179   0.03758   0.22918   0.00000  Uiso   1.00
C43    C     0.12988   0.31204   0.23894   0.00000  Uiso   1.00
H44    H     0.10165   0.29581   0.22945   0.00000  Uiso   1.00
C45    C     0.16640   0.29085   0.25062   0.00000  Uiso   1.00
C46    C     0.31978   0.14073   0.21623   0.00000  Uiso   1.00
H47    H     0.30998   0.12001   0.18917   0.00000  Uiso   1.00
C48    C     0.03437   0.14071   0.21626   0.00000  Uiso   1.00
H49    H     0.06083   0.11995   0.18925   0.00000  Uiso   1.00
N50    N     0.04760   0.16668   0.25002   0.00000  Uiso   1.00
C51    C     0.01336   0.19265   0.28387   0.00000  Uiso   1.00
C52    C     0.29878   0.19256   0.28378   0.00000  Uiso   1.00
H53    H     0.27201   0.21324   0.31062   0.00000  Uiso   1.00
N54    N     0.28573   0.16665   0.25001   0.00000  Uiso   1.00
C55    C     0.02579   0.22069   0.31973   0.00000  Uiso   1.00
N56    N     0.03558   0.24345   0.34858   0.00000  Uiso   1.00
N57    N     0.30639   0.10585   0.47835   0.00000  Uiso   1.00
O58    O     0.32809   0.08333   0.00413   0.00000  Uiso   1.00
O59    O     0.32992   0.11602   0.42820   0.00000  Uiso   1.00
O60    O     0.46179   0.22775   0.25001   0.00000  Uiso   1.00
O61    O     0.53823   0.22774   0.25001   0.00000  Uiso   1.00
C62    C     0.49991   0.24670   0.25024   0.00000  Uiso   1.00
O63    O     0.44280   0.16666   0.32681   0.00000  Uiso   1.00
O64    O     0.51924   0.16665   0.32681   0.00000  Uiso   1.00
C65    C     0.47324   0.16453   0.35215   0.00000  Uiso   1.00
Zn66   Zn    0.44896   0.16667   0.25000   0.00000  Uiso   1.00
Zn67   Zn    0.55104   0.16666   0.25000   0.00000  Uiso   1.00
O68    O     0.46177   0.10559   0.25000   0.00000  Uiso   1.00
O69    O     0.53821   0.10558   0.25000   0.00000  Uiso   1.00
O70    O     0.48076   0.16668   0.17319   0.00000  Uiso   1.00
O71    O     0.55720   0.16667   0.17319   0.00000  Uiso   1.00
C72    C     0.49998   0.08664   0.25008   0.00000  Uiso   1.00
C73    C     0.52680   0.16647   0.14775   0.00000  Uiso   1.00
C74    C     0.59438   0.12557   0.00771   0.00000  Uiso   1.00
H75    H     0.61166   0.13271   0.08076   0.00000  Uiso   1.00
H76    H     0.59126   0.09273   0.41287   0.00000  Uiso   1.00
C77    C     0.54322   0.16075   0.08925   0.00000  Uiso   1.00
C78    C     0.41067   0.17816   0.44153   0.00000  Uiso   1.00
C79    C     0.39773   0.18299   0.49735   0.00000  Uiso   1.00
C80    C     0.43107   0.17423   0.02255   0.00000  Uiso   1.00
C81    C     0.47742   0.15818   0.49223   0.00000  Uiso   1.00
C82    C     0.48677   0.14664   0.43784   0.00000  Uiso   1.00
C83    C     0.51477   0.15317   0.01396   0.00000  Uiso   1.00
C84    C     0.55768   0.13084   0.48473   0.00000  Uiso   1.00
C85    C     0.56159   0.11298   0.43464   0.00000  Uiso   1.00
C86    C     0.52693   0.12106   0.41134   0.00000  Uiso   1.00
C87    C     0.51059   0.17053   0.06391   0.00000  Uiso   1.00
C88    C     0.58578   0.13938   0.06102   0.00000  Uiso   1.00
C89    C     0.45577   0.16130   0.41126   0.00000  Uiso   1.00
H90    H     0.48070   0.19058   0.08540   0.00000  Uiso   1.00
H91    H     0.38594   0.18857   0.42193   0.00000  Uiso   1.00
H92    H     0.41918   0.17926   0.06587   0.00000  Uiso   1.00
H93    H     0.36253   0.19532   0.02084   0.00000  Uiso   1.00
H94    H     0.53153   0.10651   0.37259   0.00000  Uiso   1.00
C95    C     0.53617   0.31201   0.26252   0.00000  Uiso   1.00
H96    H     0.56434   0.29574   0.27211   0.00000  Uiso   1.00
C97    C     0.53622   0.02131   0.26242   0.00000  Uiso   1.00
H98    H     0.56440   0.03756   0.27198   0.00000  Uiso   1.00
C99    C     0.49986   0.04249   0.25041   0.00000  Uiso   1.00
C100   C     0.46329   0.02133   0.23880   0.00000  Uiso   1.00
H101   H     0.43512   0.03758   0.22918   0.00000  Uiso   1.00
C102   C     0.46321   0.31204   0.23894   0.00000  Uiso   1.00
H103   H     0.43498   0.29581   0.22945   0.00000  Uiso   1.00
C104   C     0.49974   0.29085   0.25062   0.00000  Uiso   1.00
C105   C     0.65312   0.14073   0.21623   0.00000  Uiso   1.00
H106   H     0.64331   0.12001   0.18917   0.00000  Uiso   1.00
C107   C     0.36771   0.14071   0.21626   0.00000  Uiso   1.00
H108   H     0.39416   0.11995   0.18925   0.00000  Uiso   1.00
N109   N     0.38093   0.16668   0.25002   0.00000  Uiso   1.00
C110   C     0.34669   0.19265   0.28387   0.00000  Uiso   1.00
C111   C     0.63211   0.19256   0.28378   0.00000  Uiso   1.00
H112   H     0.60535   0.21324   0.31062   0.00000  Uiso   1.00
N113   N     0.61906   0.16665   0.25001   0.00000  Uiso   1.00
C114   C     0.35912   0.22069   0.31973   0.00000  Uiso   1.00
N115   N     0.36891   0.24345   0.34858   0.00000  Uiso   1.00
N116   N     0.63972   0.10585   0.47835   0.00000  Uiso   1.00
O117   O     0.66142   0.08333   0.00413   0.00000  Uiso   1.00
O118   O     0.66325   0.11602   0.42820   0.00000  Uiso   1.00
O119   O     0.79512   0.22775   0.25001   0.00000  Uiso   1.00
O120   O     0.87157   0.22774   0.25001   0.00000  Uiso   1.00
C121   C     0.83325   0.24670   0.25024   0.00000  Uiso   1.00
O122   O     0.77613   0.16666   0.32681   0.00000  Uiso   1.00
O123   O     0.85258   0.16665   0.32681   0.00000  Uiso   1.00
C124   C     0.80657   0.16453   0.35215   0.00000  Uiso   1.00
Zn125  Zn    0.78229   0.16667   0.25000   0.00000  Uiso   1.00
Zn126  Zn    0.88438   0.16666   0.25000   0.00000  Uiso   1.00
O127   O     0.79510   0.10559   0.25000   0.00000  Uiso   1.00
O128   O     0.87154   0.10558   0.25000   0.00000  Uiso   1.00
O129   O     0.81409   0.16668   0.17319   0.00000  Uiso   1.00
O130   O     0.89053   0.16667   0.17319   0.00000  Uiso   1.00
C131   C     0.83332   0.08664   0.25008   0.00000  Uiso   1.00
C132   C     0.86014   0.16647   0.14775   0.00000  Uiso   1.00
C133   C     0.92772   0.12557   0.00771   0.00000  Uiso   1.00
H134   H     0.94499   0.13271   0.08076   0.00000  Uiso   1.00
H135   H     0.92459   0.09273   0.41287   0.00000  Uiso   1.00
C136   C     0.87656   0.16075   0.08925   0.00000  Uiso   1.00
C137   C     0.74400   0.17816   0.44153   0.00000  Uiso   1.00
C138   C     0.73106   0.18299   0.49735   0.00000  Uiso   1.00
C139   C     0.76440   0.17423   0.02255   0.00000  Uiso   1.00
C140   C     0.81075   0.15818   0.49223   0.00000  Uiso   1.00
C141   C     0.82010   0.14664   0.43784   0.00000  Uiso   1.00
C142   C     0.84810   0.15317   0.01396   0.00000  Uiso   1.00
C143   C     0.89101   0.13084   0.48473   0.00000  Uiso   1.00
C144   C     0.89492   0.11298   0.43464   0.00000  Uiso   1.00
C145   C     0.86026   0.12106   0.41134   0.00000  Uiso   1.00
C146   C     0.84392   0.17053   0.06391   0.00000  Uiso   1.00
C147   C     0.91911   0.13938   0.06102   0.00000  Uiso   1.00
C148   C     0.78911   0.16130   0.41126   0.00000  Uiso   1.00
H149   H     0.81403   0.19058   0.08540   0.00000  Uiso   1.00
H150   H     0.71927   0.18857   0.42193   0.00000  Uiso   1.00
H151   H     0.75251   0.17926   0.06587   0.00000  Uiso   1.00
H152   H     0.69587   0.19532   0.02084   0.00000  Uiso   1.00
H153   H     0.86486   0.10651   0.37259   0.00000  Uiso   1.00
C154   C     0.86950   0.31201   0.26252   0.00000  Uiso   1.00
H155   H     0.89767   0.29574   0.27211   0.00000  Uiso   1.00
C156   C     0.86956   0.02131   0.26242   0.00000  Uiso   1.00
H157   H     0.89774   0.03756   0.27198   0.00000  Uiso   1.00
C158   C     0.83320   0.04249   0.25041   0.00000  Uiso   1.00
C159   C     0.79663   0.02133   0.23880   0.00000  Uiso   1.00
H160   H     0.76846   0.03758   0.22918   0.00000  Uiso   1.00
C161   C     0.79654   0.31204   0.23894   0.00000  Uiso   1.00
H162   H     0.76831   0.29581   0.22945   0.00000  Uiso   1.00
C163   C     0.83307   0.29085   0.25062   0.00000  Uiso   1.00
C164   C     0.98645   0.14073   0.21623   0.00000  Uiso   1.00
H165   H     0.97665   0.12001   0.18917   0.00000  Uiso   1.00
C166   C     0.70104   0.14071   0.21626   0.00000  Uiso   1.00
H167   H     0.72749   0.11995   0.18925   0.00000  Uiso   1.00
N168   N     0.71426   0.16668   0.25002   0.00000  Uiso   1.00
C169   C     0.68003   0.19265   0.28387   0.00000  Uiso   1.00
C170   C     0.96545   0.19256   0.28378   0.00000  Uiso   1.00
H171   H     0.93868   0.21324   0.31062   0.00000  Uiso   1.00
N172   N     0.95239   0.16665   0.25001   0.00000  Uiso   1.00
C173   C     0.69246   0.22069   0.31973   0.00000  Uiso   1.00
N174   N     0.70225   0.24345   0.34858   0.00000  Uiso   1.00
N175   N     0.97306   0.10585   0.47835   0.00000  Uiso   1.00
O176   O     0.99476   0.08333   0.00413   0.00000  Uiso   1.00
O177   O     0.99658   0.11602   0.42820   0.00000  Uiso   1.00
O178   O     0.12846   0.56108   0.25001   0.00000  Uiso   1.00
O179   O     0.20490   0.56107   0.25001   0.00000  Uiso   1.00
C180   C     0.16658   0.58003   0.25024   0.00000  Uiso   1.00
O181   O     0.10947   0.50000   0.32681   0.00000  Uiso   1.00
O182   O     0.18591   0.49999   0.32681   0.00000  Uiso   1.00
C183   C     0.13991   0.49786   0.35215   0.00000  Uiso   1.00
Zn184  Zn    0.11562   0.50001   0.25000   0.00000  Uiso   1.00
Zn185  Zn    0.21771   0.49999   0.25000   0.00000  Uiso   1.00
O186   O     0.12843   0.43893   0.25000   0.00000  Uiso   1.00
O187   O     0.20488   0.43892   0.25000   0.00000  Uiso   1.00
O188   O     0.14742   0.50001   0.17319   0.00000  Uiso   1.00
O189   O     0.22387   0.50000   0.17319   0.00000  Uiso   1.00
C190   C     0.16665   0.41997   0.25008   0.00000  Uiso   1.00
C191   C     0.19347   0.49980   0.14775   0.00000  Uiso   1.00
C192   C     0.26105   0.45890   0.00771   0.00000  Uiso   1.00
H193   H     0.27832   0.46604   0.08076   0.00000  Uiso   1.00
H194   H     0.25792   0.42606   0.41287   0.00000  Uiso   1.00
C195   C     0.20989   0.49408   0.08925   0.00000  Uiso   1.00
C196   C     0.07734   0.51149   0.44153   0.00000  Uiso   1.00
C197   C     0.06440   0.51632   0.49735   0.00000  Uiso   1.00
C198   C     0.09774   0.50756   0.02255   0.00000  Uiso   1.00
C199   C     0.14409   0.49152   0.49223   0.00000  Uiso   1.00
C200   C     0.15343   0.47998   0.43784   0.00000  Uiso   1.00
C201   C     0.18144   0.48650   0.01396   0.00000  Uiso   1.00
C202   C     0.22434   0.46418   0.48473   0.00000  Uiso   1.00
C203   C     0.22825   0.44632   0.43464   0.00000  Uiso   1.00
C204   C     0.19360   0.45440   0.41134   0.00000  Uiso   1.00
C205   C     0.17725   0.50387   0.06391   0.00000  Uiso   1.00
C206   C     0.25244   0.47271   0.06102   0.00000  Uiso   1.00
C207   C     0.12244   0.49463   0.41126   0.00000  Uiso   1.00
H208   H     0.14737   0.52391   0.08540   0.00000  Uiso   1.00
H209   H     0.05261   0.52190   0.42193   0.00000  Uiso   1.00
H210   H     0.08585   0.51260   0.06587   0.00000  Uiso   1.00
H211   H     0.02920   0.52865   0.02084   0.00000  Uiso   1.00
H212   H     0.19820   0.43984   0.37259   0.00000  Uiso   1.00
C213   C     0.20283   0.64534   0.26252   0.00000  Uiso   1.00
H214   H     0.23100   0.62907   0.27211   0.00000  Uiso   1.00
C215   C     0.20289   0.35464   0.26242   0.00000  Uiso   1.00
H216   H     0.23107   0.37090   0.27198   0.00000  Uiso   1.00
C217   C     0.16653   0.37582   0.25041   0.00000  Uiso   1.00
C218   C     0.12996   0.35466   0.23880   0.00000  Uiso   1.00
H219   H     0.10179   0.37091   0.22918   0.00000  Uiso   1.00
C220   C     0.12988   0.64537   0.23894   0.00000  Uiso   1.00
H221   H     0.10165   0.62914   0.22945   0.00000  Uiso   1.00
C222   C     0.16640   0.62418   0.25062   0.00000  Uiso   1.00
C223   C     0.31978   0.47406   0.21623   0.00000  Uiso   1.00
H224   H     0.30998   0.45334   0.18917   0.00000  Uiso   1.00
C225   C     0.03437   0.47405   0.21626   0.00000  Uiso   1.00
H226   H     0.06083   0.45329   0.18925   0.00000  Uiso   1.00
N227   N     0.04760   0.50001   0.25002   0.00000  Uiso   1.00
C228   C     0.01336   0.52598   0.28387   0.00000  Uiso   1.00
C229   C     0.29878   0.52589   0.28378   0.00000  Uiso   1.00
H230   H     0.27201   0.54657   0.31062   0.00000  Uiso   1.00
N231   N     0.28573   0.49998   0.25001   0.00000  Uiso   1.00
C232   C     0.02579   0.55402   0.31973   0.00000  Uiso   1.00
N233   N     0.03558   0.57678   0.34858   0.00000  Uiso   1.00
N234   N     0.30639   0.43918   0.47835   0.00000  Uiso   1.00
O235   O     0.32809   0.41667   0.00413   0.00000  Uiso   1.00
O236   O     0.32992   0.44936   0.42820   0.00000  Uiso   1.00
O237   O     0.46179   0.56108   0.25001   0.00000  Uiso   1.00
O238   O     0.53823   0.56107   0.25001   0.00000  Uiso   1.00
C239   C     0.49991   0.58003   0.25024   0.00000  Uiso   1.00
O240   O     0.44280   0.50000   0.32681   0.00000  Uiso   1.00
O241   O     0.51924   0.49999   0.32681   0.00000  Uiso   1.00
C242   C     0.47324   0.49786   0.35215   0.00000  Uiso   1.00
Zn243  Zn    0.44896   0.50001   0.25000   0.00000  Uiso   1.00
Zn244  Zn    0.55104   0.49999   0.25000   0.00000  Uiso   1.00
O245   O     0.46177   0.43893   0.25000   0.00000  Uiso   1.00
O246   O     0.53821   0.43892   0.25000   0.00000  Uiso   1.00
O247   O     0.48076   0.50001   0.17319   0.00000  Uiso   1.00
O248   O     0.55720   0.50000   0.17319   0.00000  Uiso   1.00
C249   C     0.49998   0.41997   0.25008   0.00000  Uiso   1.00
C250   C     0.52680   0.49980   0.14775   0.00000  Uiso   1.00
C251   C     0.59438   0.45890   0.00771   0.00000  Uiso   1.00
H252   H     0.61166   0.46604   0.08076   0.00000  Uiso   1.00
H253   H     0.59126   0.42606   0.41287   0.00000  Uiso   1.00
C254   C     0.54322   0.49408   0.08925   0.00000  Uiso   1.00
C255   C     0.41067   0.51149   0.44153   0.00000  Uiso   1.00
C256   C     0.39773   0.51632   0.49735   0.00000  Uiso   1.00
C257   C     0.43107   0.50756   0.02255   0.00000  Uiso   1.00
C258   C     0.47742   0.49152   0.49223   0.00000  Uiso   1.00
C259   C     0.48677   0.47998   0.43784   0.00000  Uiso   1.00
C260   C     0.51477   0.48650   0.01396   0.00000  Uiso   1.00
C261   C     0.55768   0.46418   0.48473   0.00000  Uiso   1.00
C262   C     0.56159   0.44632   0.43464   0.00000  Uiso   1.00
C263   C     0.52693   0.45440   0.41134   0.00000  Uiso   1.00
C264   C     0.51059   0.50387   0.06391   0.00000  Uiso   1.00
C265   C     0.58578   0.47271   0.06102   0.00000  Uiso   1.00
C266   C     0.45577   0.49463   0.41126   0.00000  Uiso   1.00
H267   H     0.48070   0.52391   0.08540   0.00000  Uiso   1.00
H268   H     0.38594   0.52190   0.42193   0.00000  Uiso   1.00
H269   H     0.41918   0.51260   0.06587   0.00000  Uiso   1.00
H270   H     0.36253   0.52865   0.02084   0.00000  Uiso   1.00
H271   H     0.53153   0.43984   0.37259   0.00000  Uiso   1.00
C272   C     0.53617   0.64534   0.26252   0.00000  Uiso   1.00
H273   H     0.56434   0.62907   0.27211   0.00000  Uiso   1.00
C274   C     0.53622   0.35464   0.26242   0.00000  Uiso   1.00
H275   H     0.56440   0.37090   0.27198   0.00000  Uiso   1.00
C276   C     0.49986   0.37582   0.25041   0.00000  Uiso   1.00
C277   C     0.46329   0.35466   0.23880   0.00000  Uiso   1.00
H278   H     0.43512   0.37091   0.22918   0.00000  Uiso   1.00
C279   C     0.46321   0.64537   0.23894   0.00000  Uiso   1.00
H280   H     0.43498   0.62914   0.22945   0.00000  Uiso   1.00
C281   C     0.49974   0.62418   0.25062   0.00000  Uiso   1.00
C282   C     0.65312   0.47406   0.21623   0.00000  Uiso   1.00
H283   H     0.64331   0.45334   0.18917   0.00000  Uiso   1.00
C284   C     0.36771   0.47405   0.21626   0.00000  Uiso   1.00
H285   H     0.39416   0.45329   0.18925   0.00000  Uiso   1.00
N286   N     0.38093   0.50001   0.25002   0.00000  Uiso   1.00
C287   C     0.34669   0.52598   0.28387   0.00000  Uiso   1.00
C288   C     0.63211   0.52589   0.28378   0.00000  Uiso   1.00
H289   H     0.60535   0.54657   0.31062   0.00000  Uiso   1.00
N290   N     0.61906   0.49998   0.25001   0.00000  Uiso   1.00
C291   C     0.35912   0.55402   0.31973   0.00000  Uiso   1.00
N292   N     0.36891   0.57678   0.34858   0.00000  Uiso   1.00
N293   N     0.63972   0.43918   0.47835   0.00000  Uiso   1.00
O294   O     0.66142   0.41667   0.00413   0.00000  Uiso   1.00
O295   O     0.66325   0.44936   0.42820   0.00000  Uiso   1.00
O296   O     0.79512   0.56108   0.25001   0.00000  Uiso   1.00
O297   O     0.87157   0.56107   0.25001   0.00000  Uiso   1.00
C298   C     0.83325   0.58003   0.25024   0.00000  Uiso   1.00
O299   O     0.77613   0.50000   0.32681   0.00000  Uiso   1.00
O300   O     0.85258   0.49999   0.32681   0.00000  Uiso   1.00
C301   C     0.80657   0.49786   0.35215   0.00000  Uiso   1.00
Zn302  Zn    0.78229   0.50001   0.25000   0.00000  Uiso   1.00
Zn303  Zn    0.88438   0.49999   0.25000   0.00000  Uiso   1.00
O304   O     0.79510   0.43893   0.25000   0.00000  Uiso   1.00
O305   O     0.87154   0.43892   0.25000   0.00000  Uiso   1.00
O306   O     0.81409   0.50001   0.17319   0.00000  Uiso   1.00
O307   O     0.89053   0.50000   0.17319   0.00000  Uiso   1.00
C308   C     0.83332   0.41997   0.25008   0.00000  Uiso   1.00
C309   C     0.86014   0.49980   0.14775   0.00000  Uiso   1.00
C310   C     0.92772   0.45890   0.00771   0.00000  Uiso   1.00
H311   H     0.94499   0.46604   0.08076   0.00000  Uiso   1.00
H312   H     0.92459   0.42606   0.41287   0.00000  Uiso   1.00
C313   C     0.87656   0.49408   0.08925   0.00000  Uiso   1.00
C314   C     0.74400   0.51149   0.44153   0.00000  Uiso   1.00
C315   C     0.73106   0.51632   0.49735   0.00000  Uiso   1.00
C316   C     0.76440   0.50756   0.02255   0.00000  Uiso   1.00
C317   C     0.81075   0.49152   0.49223   0.00000  Uiso   1.00
C318   C     0.82010   0.47998   0.43784   0.00000  Uiso   1.00
C319   C     0.84810   0.48650   0.01396   0.00000  Uiso   1.00
C320   C     0.89101   0.46418   0.48473   0.00000  Uiso   1.00
C321   C     0.89492   0.44632   0.43464   0.00000  Uiso   1.00
C322   C     0.86026   0.45440   0.41134   0.00000  Uiso   1.00
C323   C     0.84392   0.50387   0.06391   0.00000  Uiso   1.00
C324   C     0.91911   0.47271   0.06102   0.00000  Uiso   1.00
C325   C     0.78911   0.49463   0.41126   0.00000  Uiso   1.00
H326   H     0.81403   0.52391   0.08540   0.00000  Uiso   1.00
H327   H     0.71927   0.52190   0.42193   0.00000  Uiso   1.00
H328   H     0.75251   0.51260   0.06587   0.00000  Uiso   1.00
H329   H     0.69587   0.52865   0.02084   0.00000  Uiso   1.00
H330   H     0.86486   0.43984   0.37259   0.00000  Uiso   1.00
C331   C     0.86950   0.64534   0.26252   0.00000  Uiso   1.00
H332   H     0.89767   0.62907   0.27211   0.00000  Uiso   1.00
C333   C     0.86956   0.35464   0.26242   0.00000  Uiso   1.00
H334   H     0.89774   0.37090   0.27198   0.00000  Uiso   1.00
C335   C     0.83320   0.37582   0.25041   0.00000  Uiso   1.00
C336   C     0.79663   0.35466   0.23880   0.00000  Uiso   1.00
H337   H     0.76846   0.37091   0.22918   0.00000  Uiso   1.00
C338   C     0.79654   0.64537   0.23894   0.00000  Uiso   1.00
H339   H     0.76831   0.62914   0.22945   0.00000  Uiso   1.00
C340   C     0.83307   0.62418   0.25062   0.00000  Uiso   1.00
C341   C     0.98645   0.47406   0.21623   0.00000  Uiso   1.00
H342   H     0.97665   0.45334   0.18917   0.00000  Uiso   1.00
C343   C     0.70104   0.47405   0.21626   0.00000  Uiso   1.00
H344   H     0.72749   0.45329   0.18925   0.00000  Uiso   1.00
N345   N     0.71426   0.50001   0.25002   0.00000  Uiso   1.00
C346   C     0.68003   0.52598   0.28387   0.00000  Uiso   1.00
C347   C     0.96545   0.52589   0.28378   0.00000  Uiso   1.00
H348   H     0.93868   0.54657   0.31062   0.00000  Uiso   1.00
N349   N     0.95239   0.49998   0.25001   0.00000  Uiso   1.00
C350   C     0.69246   0.55402   0.31973   0.00000  Uiso   1.00
N351   N     0.70225   0.57678   0.34858   0.00000  Uiso   1.00
N352   N     0.97306   0.43918   0.47835   0.00000  Uiso   1.00
O353   O     0.99476   0.41667   0.00413   0.00000  Uiso   1.00
O354   O     0.99658   0.44936   0.42820   0.00000  Uiso   1.00
O355   O     0.12846   0.89442   0.25001   0.00000  Uiso   1.00
O356   O     0.20490   0.89441   0.25001   0.00000  Uiso   1.00
C357   C     0.16658   0.91336   0.25024   0.00000  Uiso   1.00
O358   O     0.10947   0.83333   0.32681   0.00000  Uiso   1.00
O359   O     0.18591   0.83332   0.32681   0.00000  Uiso   1.00
C360   C     0.13991   0.83119   0.35215   0.00000  Uiso   1.00
Zn361  Zn    0.11562   0.83334   0.25000   0.00000  Uiso   1.00
Zn362  Zn    0.21771   0.83333   0.25000   0.00000  Uiso   1.00
O363   O     0.12843   0.77226   0.25000   0.00000  Uiso   1.00
O364   O     0.20488   0.77225   0.25000   0.00000  Uiso   1.00
O365   O     0.14742   0.83335   0.17319   0.00000  Uiso   1.00
O366   O     0.22387   0.83334   0.17319   0.00000  Uiso   1.00
C367   C     0.16665   0.75330   0.25008   0.00000  Uiso   1.00
C368   C     0.19347   0.83314   0.14775   0.00000  Uiso   1.00
C369   C     0.26105   0.79224   0.00771   0.00000  Uiso   1.00
H370   H     0.27832   0.79937   0.08076   0.00000  Uiso   1.00
H371   H     0.25792   0.75939   0.41287   0.00000  Uiso   1.00
C372   C     0.20989   0.82741   0.08925   0.00000  Uiso   1.00
C373   C     0.07734   0.84483   0.44153   0.00000  Uiso   1.00
C374   C     0.06440   0.84966   0.49735   0.00000  Uiso   1.00
C375   C     0.09774   0.84089   0.02255   0.00000  Uiso   1.00
C376   C     0.14409   0.82485   0.49223   0.00000  Uiso   1.00
C377   C     0.15343   0.81331   0.43784   0.00000  Uiso   1.00
C378   C     0.18144   0.81984   0.01396   0.00000  Uiso   1.00
C379   C     0.22434   0.79751   0.48473   0.00000  Uiso   1.00
C380   C     0.22825   0.77965   0.43464   0.00000  Uiso   1.00
C381   C     0.19360   0.78773   0.41134   0.00000  Uiso   1.00
C382   C     0.17725   0.83720   0.06391   0.00000  Uiso   1.00
C383   C     0.25244   0.80605   0.06102   0.00000  Uiso   1.00
C384   C     0.12244   0.82796   0.41126   0.00000  Uiso   1.00
H385   H     0.14737   0.85724   0.08540   0.00000  Uiso   1.00
H386   H     0.05261   0.85523   0.42193   0.00000  Uiso   1.00
H387   H     0.08585   0.84593   0.06587   0.00000  Uiso   1.00
H388   H     0.02920   0.86198   0.02084   0.00000  Uiso   1.00
H389   H     0.19820   0.77317   0.37259   0.00000  Uiso   1.00
C390   C     0.20283   0.97867   0.26252   0.00000  Uiso   1.00
H391   H     0.23100   0.96240   0.27211   0.00000  Uiso   1.00
C392   C     0.20289   0.68798   0.26242   0.00000  Uiso   1.00
H393   H     0.23107   0.70423   0.27198   0.00000  Uiso   1.00
C394   C     0.16653   0.70916   0.25041   0.00000  Uiso   1.00
C395   C     0.12996   0.68799   0.23880   0.00000  Uiso   1.00
H396   H     0.10179   0.70424   0.22918   0.00000  Uiso   1.00
C397   C     0.12988   0.97871   0.23894   0.00000  Uiso   1.00
H398   H     0.10165   0.96248   0.22945   0.00000  Uiso   1.00
C399   C     0.16640   0.95752   0.25062   0.00000  Uiso   1.00
C400   C     0.31978   0.80740   0.21623   0.00000  Uiso   1.00
H401   H     0.30998   0.78668   0.18917   0.00000  Uiso   1.00
C402   C     0.03437   0.80738   0.21626   0.00000  Uiso   1.00
H403   H     0.06083   0.78662   0.18925   0.00000  Uiso   1.00
N404   N     0.04760   0.83334   0.25002   0.00000  Uiso   1.00
C405   C     0.01336   0.85932   0.28387   0.00000  Uiso   1.00
C406   C     0.29878   0.85923   0.28378   0.00000  Uiso   1.00
H407   H     0.27201   0.87990   0.31062   0.00000  Uiso   1.00
N408   N     0.28573   0.83331   0.25001   0.00000  Uiso   1.00
C409   C     0.02579   0.88736   0.31973   0.00000  Uiso   1.00
N410   N     0.03558   0.91011   0.34858   0.00000  Uiso   1.00
N411   N     0.30639   0.77251   0.47835   0.00000  Uiso   1.00
O412   O     0.32809   0.75000   0.00413   0.00000  Uiso   1.00
O413   O     0.32992   0.78269   0.42820   0.00000  Uiso   1.00
O414   O     0.46179   0.89442   0.25001   0.00000  Uiso   1.00
O415   O     0.53823   0.89441   0.25001   0.00000  Uiso   1.00
C416   C     0.49991   0.91336   0.25024   0.00000  Uiso   1.00
O417   O     0.44280   0.83333   0.32681   0.00000  Uiso   1.00
O418   O     0.51924   0.83332   0.32681   0.00000  Uiso   1.00
C419   C     0.47324   0.83119   0.35215   0.00000  Uiso   1.00
Zn420  Zn    0.44896   0.83334   0.25000   0.00000  Uiso   1.00
Zn421  Zn    0.55104   0.83333   0.25000   0.00000  Uiso   1.00
O422   O     0.46177   0.77226   0.25000   0.00000  Uiso   1.00
O423   O     0.53821   0.77225   0.25000   0.00000  Uiso   1.00
O424   O     0.48076   0.83335   0.17319   0.00000  Uiso   1.00
O425   O     0.55720   0.83334   0.17319   0.00000  Uiso   1.00
C426   C     0.49998   0.75330   0.25008   0.00000  Uiso   1.00
C427   C     0.52680   0.83314   0.14775   0.00000  Uiso   1.00
C428   C     0.59438   0.79224   0.00771   0.00000  Uiso   1.00
H429   H     0.61166   0.79937   0.08076   0.00000  Uiso   1.00
H430   H     0.59126   0.75939   0.41287   0.00000  Uiso   1.00
C431   C     0.54322   0.82741   0.08925   0.00000  Uiso   1.00
C432   C     0.41067   0.84483   0.44153   0.00000  Uiso   1.00
C433   C     0.39773   0.84966   0.49735   0.00000  Uiso   1.00
C434   C     0.43107   0.84089   0.02255   0.00000  Uiso   1.00
C435   C     0.47742   0.82485   0.49223   0.00000  Uiso   1.00
C436   C     0.48677   0.81331   0.43784   0.00000  Uiso   1.00
C437   C     0.51477   0.81984   0.01396   0.00000  Uiso   1.00
C438   C     0.55768   0.79751   0.48473   0.00000  Uiso   1.00
C439   C     0.56159   0.77965   0.43464   0.00000  Uiso   1.00
C440   C     0.52693   0.78773   0.41134   0.00000  Uiso   1.00
C441   C     0.51059   0.83720   0.06391   0.00000  Uiso   1.00
C442   C     0.58578   0.80605   0.06102   0.00000  Uiso   1.00
C443   C     0.45577   0.82796   0.41126   0.00000  Uiso   1.00
H444   H     0.48070   0.85724   0.08540   0.00000  Uiso   1.00
H445   H     0.38594   0.85523   0.42193   0.00000  Uiso   1.00
H446   H     0.41918   0.84593   0.06587   0.00000  Uiso   1.00
H447   H     0.36253   0.86198   0.02084   0.00000  Uiso   1.00
H448   H     0.53153   0.77317   0.37259   0.00000  Uiso   1.00
C449   C     0.53617   0.97867   0.26252   0.00000  Uiso   1.00
H450   H     0.56434   0.96240   0.27211   0.00000  Uiso   1.00
C451   C     0.53622   0.68798   0.26242   0.00000  Uiso   1.00
H452   H     0.56440   0.70423   0.27198   0.00000  Uiso   1.00
C453   C     0.49986   0.70916   0.25041   0.00000  Uiso   1.00
C454   C     0.46329   0.68799   0.23880   0.00000  Uiso   1.00
H455   H     0.43512   0.70424   0.22918   0.00000  Uiso   1.00
C456   C     0.46321   0.97871   0.23894   0.00000  Uiso   1.00
H457   H     0.43498   0.96248   0.22945   0.00000  Uiso   1.00
C458   C     0.49974   0.95752   0.25062   0.00000  Uiso   1.00
C459   C     0.65312   0.80740   0.21623   0.00000  Uiso   1.00
H460   H     0.64331   0.78668   0.18917   0.00000  Uiso   1.00
C461   C     0.36771   0.80738   0.21626   0.00000  Uiso   1.00
H462   H     0.39416   0.78662   0.18925   0.00000  Uiso   1.00
N463   N     0.38093   0.83334   0.25002   0.00000  Uiso   1.00
C464   C     0.34669   0.85932   0.28387   0.00000  Uiso   1.00
C465   C     0.63211   0.85923   0.28378   0.00000  Uiso   1.00
H466   H     0.60535   0.87990   0.31062   0.00000  Uiso   1.00
N467   N     0.61906   0.83331   0.25001   0.00000  Uiso   1.00
C468   C     0.35912   0.88736   0.31973   0.00000  Uiso   1.00
N469   N     0.36891   0.91011   0.34858   0.00000  Uiso   1.00
N470   N     0.63972   0.77251   0.47835   0.00000  Uiso   1.00
O471   O     0.66142   0.75000   0.00413   0.00000  Uiso   1.00
O472   O     0.66325   0.78269   0.42820   0.00000  Uiso   1.00
O473   O     0.79512   0.89442   0.25001   0.00000  Uiso   1.00
O474   O     0.87157   0.89441   0.25001   0.00000  Uiso   1.00
C475   C     0.83325   0.91336   0.25024   0.00000  Uiso   1.00
O476   O     0.77613   0.83333   0.32681   0.00000  Uiso   1.00
O477   O     0.85258   0.83332   0.32681   0.00000  Uiso   1.00
C478   C     0.80657   0.83119   0.35215   0.00000  Uiso   1.00
Zn479  Zn    0.78229   0.83334   0.25000   0.00000  Uiso   1.00
Zn480  Zn    0.88438   0.83333   0.25000   0.00000  Uiso   1.00
O481   O     0.79510   0.77226   0.25000   0.00000  Uiso   1.00
O482   O     0.87154   0.77225   0.25000   0.00000  Uiso   1.00
O483   O     0.81409   0.83335   0.17319   0.00000  Uiso   1.00
O484   O     0.89053   0.83334   0.17319   0.00000  Uiso   1.00
C485   C     0.83332   0.75330   0.25008   0.00000  Uiso   1.00
C486   C     0.86014   0.83314   0.14775   0.00000  Uiso   1.00
C487   C     0.92772   0.79224   0.00771   0.00000  Uiso   1.00
H488   H     0.94499   0.79937   0.08076   0.00000  Uiso   1.00
H489   H     0.92459   0.75939   0.41287   0.00000  Uiso   1.00
C490   C     0.87656   0.82741   0.08925   0.00000  Uiso   1.00
C491   C     0.74400   0.84483   0.44153   0.00000  Uiso   1.00
C492   C     0.73106   0.84966   0.49735   0.00000  Uiso   1.00
C493   C     0.76440   0.84089   0.02255   0.00000  Uiso   1.00
C494   C     0.81075   0.82485   0.49223   0.00000  Uiso   1.00
C495   C     0.82010   0.81331   0.43784   0.00000  Uiso   1.00
C496   C     0.84810   0.81984   0.01396   0.00000  Uiso   1.00
C497   C     0.89101   0.79751   0.48473   0.00000  Uiso   1.00
C498   C     0.89492   0.77965   0.43464   0.00000  Uiso   1.00
C499   C     0.86026   0.78773   0.41134   0.00000  Uiso   1.00
C500   C     0.84392   0.83720   0.06391   0.00000  Uiso   1.00
C501   C     0.91911   0.80605   0.06102   0.00000  Uiso   1.00
C502   C     0.78911   0.82796   0.41126   0.00000  Uiso   1.00
H503   H     0.81403   0.85724   0.08540   0.00000  Uiso   1.00
H504   H     0.71927   0.85523   0.42193   0.00000  Uiso   1.00
H505   H     0.75251   0.84593   0.06587   0.00000  Uiso   1.00
H506   H     0.69587   0.86198   0.02084   0.00000  Uiso   1.00
H507   H     0.86486   0.77317   0.37259   0.00000  Uiso   1.00
C508   C     0.86950   0.97867   0.26252   0.00000  Uiso   1.00
H509   H     0.89767   0.96240   0.27211   0.00000  Uiso   1.00
C510   C     0.86956   0.68798   0.26242   0.00000  Uiso   1.00
H511   H     0.89774   0.70423   0.27198   0.00000  Uiso   1.00
C512   C     0.83320   0.70916   0.25041   0.00000  Uiso   1.00
C513   C     0.79663   0.68799   0.23880   0.00000  Uiso   1.00
H514   H     0.76846   0.70424   0.22918   0.00000  Uiso   1.00
C515   C     0.79654   0.97871   0.23894   0.00000  Uiso   1.00
H516   H     0.76831   0.96248   0.22945   0.00000  Uiso   1.00
C517   C     0.83307   0.95752   0.25062   0.00000  Uiso   1.00
C518   C     0.98645   0.80740   0.21623   0.00000  Uiso   1.00
H519   H     0.97665   0.78668   0.18917   0.00000  Uiso   1.00
C520   C     0.70104   0.80738   0.21626   0.00000  Uiso   1.00
H521   H     0.72749   0.78662   0.18925   0.00000  Uiso   1.00
N522   N     0.71426   0.83334   0.25002   0.00000  Uiso   1.00
C523   C     0.68003   0.85932   0.28387   0.00000  Uiso   1.00
C524   C     0.96545   0.85923   0.28378   0.00000  Uiso   1.00
H525   H     0.93868   0.87990   0.31062   0.00000  Uiso   1.00
N526   N     0.95239   0.83331   0.25001   0.00000  Uiso   1.00
C527   C     0.69246   0.88736   0.31973   0.00000  Uiso   1.00
N528   N     0.70225   0.91011   0.34858   0.00000  Uiso   1.00
N529   N     0.97306   0.77251   0.47835   0.00000  Uiso   1.00
O530   O     0.99476   0.75000   0.00413   0.00000  Uiso   1.00
O531   O     0.99658   0.78269   0.42820   0.00000  Uiso   1.00
O532   O     0.12846   0.22775   0.75001   0.00000  Uiso   1.00
O533   O     0.20490   0.22774   0.75001   0.00000  Uiso   1.00
C534   C     0.16658   0.24670   0.75024   0.00000  Uiso   1.00
O535   O     0.10947   0.16666   0.82681   0.00000  Uiso   1.00
O536   O     0.18591   0.16665   0.82681   0.00000  Uiso   1.00
C537   C     0.13991   0.16453   0.85215   0.00000  Uiso   1.00
Zn538  Zn    0.11562   0.16667   0.75000   0.00000  Uiso   1.00
Zn539  Zn    0.21771   0.16666   0.75000   0.00000  Uiso   1.00
O540   O     0.12843   0.10559   0.75000   0.00000  Uiso   1.00
O541   O     0.20488   0.10558   0.75000   0.00000  Uiso   1.00
O542   O     0.14742   0.16668   0.67319   0.00000  Uiso   1.00
O543   O     0.22387   0.16667   0.67319   0.00000  Uiso   1.00
C544   C     0.16665   0.08664   0.75008   0.00000  Uiso   1.00
C545   C     0.19347   0.16647   0.64775   0.00000  Uiso   1.00
C546   C     0.26105   0.12557   0.50771   0.00000  Uiso   1.00
H547   H     0.27832   0.13271   0.58076   0.00000  Uiso   1.00
H548   H     0.25792   0.09273   0.91287   0.00000  Uiso   1.00
C549   C     0.20989   0.16075   0.58925   0.00000  Uiso   1.00
C550   C     0.07734   0.17816   0.94153   0.00000  Uiso   1.00
C551   C     0.06440   0.18299   0.99735   0.00000  Uiso   1.00
C552   C     0.09774   0.17423   0.52255   0.00000  Uiso   1.00
C553   C     0.14409   0.15818   0.99223   0.00000  Uiso   1.00
C554   C     0.15343   0.14664   0.93784   0.00000  Uiso   1.00
C555   C     0.18144   0.15317   0.51396   0.00000  Uiso   1.00
C556   C     0.22434   0.13084   0.98473   0.00000  Uiso   1.00
C557   C     0.22825   0.11298   0.93464   0.00000  Uiso   1.00
C558   C     0.19360   0.12106   0.91134   0.00000  Uiso   1.00
C559   C     0.17725   0.17053   0.56391   0.00000  Uiso   1.00
C560   C     0.25244   0.13938   0.56102   0.00000  Uiso   1.00
C561   C     0.12244   0.16130   0.91126   0.00000  Uiso   1.00
H562   H     0.14737   0.19058   0.58540   0.00000  Uiso   1.00
H563   H     0.05261   0.18857   0.92193   0.00000  Uiso   1.00
H564   H     0.08585   0.17926   0.56587   0.00000  Uiso   1.00
H565   H     0.02920   0.19532   0.52084   0.00000  Uiso   1.00
H566   H     0.19820   0.10651   0.87259   0.00000  Uiso   1.00
C567   C     0.20283   0.31201   0.76252   0.00000  Uiso   1.00
H568   H     0.23100   0.29574   0.77211   0.00000  Uiso   1.00
C569   C     0.20289   0.02131   0.76242   0.00000  Uiso   1.00
H570   H     0.23107   0.03756   0.77198   0.00000  Uiso   1.00
C571   C     0.16653   0.04249   0.75041   0.00000  Uiso   1.00
C572   C     0.12996   0.02133   0.73880   0.00000  Uiso   1.00
H573   H     0.10179   0.03758   0.72918   0.00000  Uiso   1.00
C574   C     0.12988   0.31204   0.73894   0.00000  Uiso   1.00
H575   H     0.10165   0.29581   0.72945   0.00000  Uiso   1.00
C576   C     0.16640   0.29085   0.75062   0.00000  Uiso   1.00
C577   C     0.31978   0.14073   0.71623   0.00000  Uiso   1.00
H578   H     0.30998   0.12001   0.68917   0.00000  Uiso   1.00
C579   C     0.03437   0.14071   0.71626   0.00000  Uiso   1.00
H580   H     0.06083   0.11995   0.68925   0.00000  Uiso   1.00
N581   N     0.04760   0.16668   0.75002   0.00000  Uiso   1.00
C582   C     0.01336   0.19265   0.78387   0.00000  Uiso   1.00
C583   C     0.29878   0.19256   0.78378   0.00000  Uiso   1.00
H584   H     0.27201   0.21324   0.81062   0.00000  Uiso   1.00
N585   N     0.28573   0.16665   0.75001   0.00000  Uiso   1.00
C586   C     0.02579   0.22069   0.81973   0.00000  Uiso   1.00
N587   N     0.03558   0.24345   0.84858   0.00000  Uiso   1.00
N588   N     0.30639   0.10585   0.97835   0.00000  Uiso   1.00
O589   O     0.32809   0.08333   0.50413   0.00000  Uiso   1.00
O590   O     0.32992   0.11602   0.92820   0.00000  Uiso   1.00
O591   O     0.46179   0.22775   0.75001   0.00000  Uiso   1.00
O592   O     0.53823   0.22774   0.75001   0.00000  Uiso   1.00
C593   C     0.49991   0.24670   0.75024   0.00000  Uiso   1.00
O594   O     0.44280   0.16666   0.82681   0.00000  Uiso   1.00
O595   O     0.51924   0.16665   0.82681   0.00000  Uiso   1.00
C596   C     0.47324   0.16453   0.85215   0.00000  Uiso   1.00
Zn597  Zn    0.44896   0.16667   0.75000   0.00000  Uiso   1.00
Zn598  Zn    0.55104   0.16666   0.75000   0.00000  Uiso   1.00
O599   O     0.46177   0.10559   0.75000   0.00000  Uiso   1.00
O600   O     0.53821   0.10558   0.75000   0.00000  Uiso   1.00
O601   O     0.48076   0.16668   0.67319   0.00000  Uiso   1.00
O602   O     0.55720   0.16667   0.67319   0.00000  Uiso   1.00
C603   C     0.49998   0.08664   0.75008   0.00000  Uiso   1.00
C604   C     0.52680   0.16647   0.64775   0.00000  Uiso   1.00
C605   C     0.59438   0.12557   0.50771   0.00000  Uiso   1.00
H606   H     0.61166   0.13271   0.58076   0.00000  Uiso   1.00
H607   H     0.59126   0.09273   0.91287   0.00000  Uiso   1.00
C608   C     0.54322   0.16075   0.58925   0.00000  Uiso   1.00
C609   C     0.41067   0.17816   0.94153   0.00000  Uiso   1.00
C610   C     0.39773   0.18299   0.99735   0.00000  Uiso   1.00
C611   C     0.43107   0.17423   0.52255   0.00000  Uiso   1.00
C612   C     0.47742   0.15818   0.99223   0.00000  Uiso   1.00
C613   C     0.48677   0.14664   0.93784   0.00000  Uiso   1.00
C614   C     0.51477   0.15317   0.51396   0.00000  Uiso   1.00
C615   C     0.55768   0.13084   0.98473   0.00000  Uiso   1.00
C616   C     0.56159   0.11298   0.93464   0.00000  Uiso   1.00
C617   C     0.52693   0.12106   0.91134   0.00000  Uiso   1.00
C618   C     0.51059   0.17053   0.56391   0.00000  Uiso   1.00
C619   C     0.58578   0.13938   0.56102   0.00000  Uiso   1.00
C620   C     0.45577   0.16130   0.91126   0.00000  Uiso   1.00
H621   H     0.48070   0.19058   0.58540   0.00000  Uiso   1.00
H622   H     0.38594   0.18857   0.92193   0.00000  Uiso   1.00
H623   H     0.41918   0.17926   0.56587   0.00000  Uiso   1.00
H624   H     0.36253   0.19532   0.52084   0.00000  Uiso   1.00
H625   H     0.53153   0.10651   0.87259   0.00000  Uiso   1.00
C626   C     0.53617   0.31201   0.76252   0.00000  Uiso   1.00
H627   H     0.56434   0.29574   0.77211   0.00000  Uiso   1.00
C628   C     0.53622   0.02131   0.76242   0.00000  Uiso   1.00
H629   H     0.56440   0.03756   0.77198   0.00000  Uiso   1.00
C630   C     0.49986   0.04249   0.75041   0.00000  Uiso   1.00
C631   C     0.46329   0.02133   0.73880   0.00000  Uiso   1.00
H632   H     0.43512   0.03758   0.72918   0.00000  Uiso   1.00
C633   C     0.46321   0.31204   0.73894   0.00000  Uiso   1.00
H634   H     0.43498   0.29581   0.72945   0.00000  Uiso   1.00
C635   C     0.49974   0.29085   0.75062   0.00000  Uiso   1.00
C636   C     0.65312   0.14073   0.71623   0.00000  Uiso   1.00
H637   H     0.64331   0.12001   0.68917   0.00000  Uiso   1.00
C638   C     0.36771   0.14071   0.71626   0.00000  Uiso   1.00
H639   H     0.39416   0.11995   0.68925   0.00000  Uiso   1.00
N640   N     0.38093   0.16668   0.75002   0.00000  Uiso   1.00
C641   C     0.34669   0.19265   0.78387   0.00000  Uiso   1.00
C642   C     0.63211   0.19256   0.78378   0.00000  Uiso   1.00
H643   H     0.60535   0.21324   0.81062   0.00000  Uiso   1.00
N644   N     0.61906   0.16665   0.75001   0.00000  Uiso   1.00
C645   C     0.35912   0.22069   0.81973   0.00000  Uiso   1.00
N646   N     0.36891   0.24345   0.84858   0.00000  Uiso   1.00
N647   N     0.63972   0.10585   0.97835   0.00000  Uiso   1.00
O648   O     0.66142   0.08333   0.50413   0.00000  Uiso   1.00
O649   O     0.66325   0.11602   0.92820   0.00000  Uiso   1.00
O650   O     0.79512   0.22775   0.75001   0.00000  Uiso   1.00
O651   O     0.87157   0.22774   0.75001   0.00000  Uiso   1.00
C652   C     0.83325   0.24670   0.75024   0.00000  Uiso   1.00
O653   O     0.77613   0.16666   0.82681   0.00000  Uiso   1.00
O654   O     0.85258   0.16665   0.82681   0.00000  Uiso   1.00
C655   C     0.80657   0.16453   0.85215   0.00000  Uiso   1.00
Zn656  Zn    0.78229   0.16667   0.75000   0.00000  Uiso   1.00
Zn657  Zn    0.88438   0.16666   0.75000   0.00000  Uiso   1.00
O658   O     0.79510   0.10559   0.75000   0.00000  Uiso   1.00
O659   O     0.87154   0.10558   0.75000   0.00000  Uiso   1.00
O660   O     0.81409   0.16668   0.67319   0.00000  Uiso   1.00
O661   O     0.89053   0.16667   0.67319   0.00000  Uiso   1.00
C662   C     0.83332   0.08664   0.75008   0.00000  Uiso   1.00
C663   C     0.86014   0.16647   0.64775   0.00000  Uiso   1.00
C664   C     0.92772   0.12557   0.50771   0.00000  Uiso   1.00
H665   H     0.94499   0.13271   0.58076   0.00000  Uiso   1.00
H666   H     0.92459   0.09273   0.91287   0.00000  Uiso   1.00
C667   C     0.87656   0.16075   0.58925   0.00000  Uiso   1.00
C668   C     0.74400   0.17816   0.94153   0.00000  Uiso   1.00
C669   C     0.73106   0.18299   0.99735   0.00000  Uiso   1.00
C670   C     0.76440   0.17423   0.52255   0.00000  Uiso   1.00
C671   C     0.81075   0.15818   0.99223   0.00000  Uiso   1.00
C672   C     0.82010   0.14664   0.93784   0.00000  Uiso   1.00
C673   C     0.84810   0.15317   0.51396   0.00000  Uiso   1.00
C674   C     0.89101   0.13084   0.98473   0.00000  Uiso   1.00
C675   C     0.89492   0.11298   0.93464   0.00000  Uiso   1.00
C676   C     0.86026   0.12106   0.91134   0.00000  Uiso   1.00
C677   C     0.84392   0.17053   0.56391   0.00000  Uiso   1.00
C678   C     0.91911   0.13938   0.56102   0.00000  Uiso   1.00
C679   C     0.78911   0.16130   0.91126   0.00000  Uiso   1.00
H680   H     0.81403   0.19058   0.58540   0.00000  Uiso   1.00
H681   H     0.71927   0.18857   0.92193   0.00000  Uiso   1.00
H682   H     0.75251   0.17926   0.56587   0.00000  Uiso   1.00
H683   H     0.69587   0.19532   0.52084   0.00000  Uiso   1.00
H684   H     0.86486   0.10651   0.87259   0.00000  Uiso   1.00
C685   C     0.86950   0.31201   0.76252   0.00000  Uiso   1.00
H686   H     0.89767   0.29574   0.77211   0.00000  Uiso   1.00
C687   C     0.86956   0.02131   0.76242   0.00000  Uiso   1.00
H688   H     0.89774   0.03756   0.77198   0.00000  Uiso   1.00
C689   C     0.83320   0.04249   0.75041   0.00000  Uiso   1.00
C690   C     0.79663   0.02133   0.73880   0.00000  Uiso   1.00
H691   H     0.76846   0.03758   0.72918   0.00000  Uiso   1.00
C692   C     0.79654   0.31204   0.73894   0.00000  Uiso   1.00
H693   H     0.76831   0.29581   0.72945   0.00000  Uiso   1.00
C694   C     0.83307   0.29085   0.75062   0.00000  Uiso   1.00
C695   C     0.98645   0.14073   0.71623   0.00000  Uiso   1.00
H696   H     0.97665   0.12001   0.68917   0.00000  Uiso   1.00
C697   C     0.70104   0.14071   0.71626   0.00000  Uiso   1.00
H698   H     0.72749   0.11995   0.68925   0.00000  Uiso   1.00
N699   N     0.71426   0.16668   0.75002   0.00000  Uiso   1.00
C700   C     0.68003   0.19265   0.78387   0.00000  Uiso   1.00
C701   C     0.96545   0.19256   0.78378   0.00000  Uiso   1.00
H702   H     0.93868   0.21324   0.81062   0.00000  Uiso   1.00
N703   N     0.95239   0.16665   0.75001   0.00000  Uiso   1.00
C704   C     0.69246   0.22069   0.81973   0.00000  Uiso   1.00
N705   N     0.70225   0.24345   0.84858   0.00000  Uiso   1.00
N706   N     0.97306   0.10585   0.97835   0.00000  Uiso   1.00
O707   O     0.99476   0.08333   0.50413   0.00000  Uiso   1.00
O708   O     0.99658   0.11602   0.92820   0.00000  Uiso   1.00
O709   O     0.12846   0.56108   0.75001   0.00000  Uiso   1.00
O710   O     0.20490   0.56107   0.75001   0.00000  Uiso   1.00
C711   C     0.16658   0.58003   0.75024   0.00000  Uiso   1.00
O712   O     0.10947   0.50000   0.82681   0.00000  Uiso   1.00
O713   O     0.18591   0.49999   0.82681   0.00000  Uiso   1.00
C714   C     0.13991   0.49786   0.85215   0.00000  Uiso   1.00
Zn715  Zn    0.11562   0.50001   0.75000   0.00000  Uiso   1.00
Zn716  Zn    0.21771   0.49999   0.75000   0.00000  Uiso   1.00
O717   O     0.12843   0.43893   0.75000   0.00000  Uiso   1.00
O718   O     0.20488   0.43892   0.75000   0.00000  Uiso   1.00
O719   O     0.14742   0.50001   0.67319   0.00000  Uiso   1.00
O720   O     0.22387   0.50000   0.67319   0.00000  Uiso   1.00
C721   C     0.16665   0.41997   0.75008   0.00000  Uiso   1.00
C722   C     0.19347   0.49980   0.64775   0.00000  Uiso   1.00
C723   C     0.26105   0.45890   0.50771   0.00000  Uiso   1.00
H724   H     0.27832   0.46604   0.58076   0.00000  Uiso   1.00
H725   H     0.25792   0.42606   0.91287   0.00000  Uiso   1.00
C726   C     0.20989   0.49408   0.58925   0.00000  Uiso   1.00
C727   C     0.07734   0.51149   0.94153   0.00000  Uiso   1.00
C728   C     0.06440   0.51632   0.99735   0.00000  Uiso   1.00
C729   C     0.09774   0.50756   0.52255   0.00000  Uiso   1.00
C730   C     0.14409   0.49152   0.99223   0.00000  Uiso   1.00
C731   C     0.15343   0.47998   0.93784   0.00000  Uiso   1.00
C732   C     0.18144   0.48650   0.51396   0.00000  Uiso   1.00
C733   C     0.22434   0.46418   0.98473   0.00000  Uiso   1.00
C734   C     0.22825   0.44632   0.93464   0.00000  Uiso   1.00
C735   C     0.19360   0.45440   0.91134   0.00000  Uiso   1.00
C736   C     0.17725   0.50387   0.56391   0.00000  Uiso   1.00
C737   C     0.25244   0.47271   0.56102   0.00000  Uiso   1.00
C738   C     0.12244   0.49463   0.91126   0.00000  Uiso   1.00
H739   H     0.14737   0.52391   0.58540   0.00000  Uiso   1.00
H740   H     0.05261   0.52190   0.92193   0.00000  Uiso   1.00
H741   H     0.08585   0.51260   0.56587   0.00000  Uiso   1.00
H742   H     0.02920   0.52865   0.52084   0.00000  Uiso   1.00
H743   H     0.19820   0.43984   0.87259   0.00000  Uiso   1.00
C744   C     0.20283   0.64534   0.76252   0.00000  Uiso   1.00
H745   H     0.23100   0.62907   0.77211   0.00000  Uiso   1.00
C746   C     0.20289   0.35464   0.76242   0.00000  Uiso   1.00
H747   H     0.23107   0.37090   0.77198   0.00000  Uiso   1.00
C748   C     0.16653   0.37582   0.75041   0.00000  Uiso   1.00
C749   C     0.12996   0.35466   0.73880   0.00000  Uiso   1.00
H750   H     0.10179   0.37091   0.72918   0.00000  Uiso   1.00
C751   C     0.12988   0.64537   0.73894   0.00000  Uiso   1.00
H752   H     0.10165   0.62914   0.72945   0.00000  Uiso   1.00
C753   C     0.16640   0.62418   0.75062   0.00000  Uiso   1.00
C754   C     0.31978   0.47406   0.71623   0.00000  Uiso   1.00
H755   H     0.30998   0.45334   0.68917   0.00000  Uiso   1.00
C756   C     0.03437   0.47405   0.71626   0.00000  Uiso   1.00
H757   H     0.06083   0.45329   0.68925   0.00000  Uiso   1.00
N758   N     0.04760   0.50001   0.75002   0.00000  Uiso   1.00
C759   C     0.01336   0.52598   0.78387   0.00000  Uiso   1.00
C760   C     0.29878   0.52589   0.78378   0.00000  Uiso   1.00
H761   H     0.27201   0.54657   0.81062   0.00000  Uiso   1.00
N762   N     0.28573   0.49998   0.75001   0.00000  Uiso   1.00
C763   C     0.02579   0.55402   0.81973   0.00000  Uiso   1.00
N764   N     0.03558   0.57678   0.84858   0.00000  Uiso   1.00
N765   N     0.30639   0.43918   0.97835   0.00000  Uiso   1.00
O766   O     0.32809   0.41667   0.50413   0.00000  Uiso   1.00
O767   O     0.32992   0.44936   0.92820   0.00000  Uiso   1.00
O768   O     0.46179   0.56108   0.75001   0.00000  Uiso   1.00
O769   O     0.53823   0.56107   0.75001   0.00000  Uiso   1.00
C770   C     0.49991   0.58003   0.75024   0.00000  Uiso   1.00
O771   O     0.44280   0.50000   0.82681   0.00000  Uiso   1.00
O772   O     0.51924   0.49999   0.82681   0.00000  Uiso   1.00
C773   C     0.47324   0.49786   0.85215   0.00000  Uiso   1.00
Zn774  Zn    0.44896   0.50001   0.75000   0.00000  Uiso   1.00
Zn775  Zn    0.55104   0.49999   0.75000   0.00000  Uiso   1.00
O776   O     0.46177   0.43893   0.75000   0.00000  Uiso   1.00
O777   O     0.53821   0.43892   0.75000   0.00000  Uiso   1.00
O778   O     0.48076   0.50001   0.67319   0.00000  Uiso   1.00
O779   O     0.55720   0.50000   0.67319   0.00000  Uiso   1.00
C780   C     0.49998   0.41997   0.75008   0.00000  Uiso   1.00
C781   C     0.52680   0.49980   0.64775   0.00000  Uiso   1.00
C782   C     0.59438   0.45890   0.50771   0.00000  Uiso   1.00
H783   H     0.61166   0.46604   0.58076   0.00000  Uiso   1.00
H784   H     0.59126   0.42606   0.91287   0.00000  Uiso   1.00
C785   C     0.54322   0.49408   0.58925   0.00000  Uiso   1.00
C786   C     0.41067   0.51149   0.94153   0.00000  Uiso   1.00
C787   C     0.39773   0.51632   0.99735   0.00000  Uiso   1.00
C788   C     0.43107   0.50756   0.52255   0.00000  Uiso   1.00
C789   C     0.47742   0.49152   0.99223   0.00000  Uiso   1.00
C790   C     0.48677   0.47998   0.93784   0.00000  Uiso   1.00
C791   C     0.51477   0.48650   0.51396   0.00000  Uiso   1.00
C792   C     0.55768   0.46418   0.98473   0.00000  Uiso   1.00
C793   C     0.56159   0.44632   0.93464   0.00000  Uiso   1.00
C794   C     0.52693   0.45440   0.91134   0.00000  Uiso   1.00
C795   C     0.51059   0.50387   0.56391   0.00000  Uiso   1.00
C796   C     0.58578   0.47271   0.56102   0.00000  Uiso   1.00
C797   C     0.45577   0.49463   0.91126   0.00000  Uiso   1.00
H798   H     0.48070   0.52391   0.58540   0.00000  Uiso   1.00
H799   H     0.38594   0.52190   0.92193   0.00000  Uiso   1.00
H800   H     0.41918   0.51260   0.56587   0.00000  Uiso   1.00
H801   H     0.36253   0.52865   0.52084   0.00000  Uiso   1.00
H802   H     0.53153   0.43984   0.87259   0.00000  Uiso   1.00
C803   C     0.53617   0.64534   0.76252   0.00000  Uiso   1.00
H804   H     0.56434   0.62907   0.77211   0.00000  Uiso   1.00
C805   C     0.53622   0.35464   0.76242   0.00000  Uiso   1.00
H806   H     0.56440   0.37090   0.77198   0.00000  Uiso   1.00
C807   C     0.49986   0.37582   0.75041   0.00000  Uiso   1.00
C808   C     0.46329   0.35466   0.73880   0.00000  Uiso   1.00
H809   H     0.43512   0.37091   0.72918   0.00000  Uiso   1.00
C810   C     0.46321   0.64537   0.73894   0.00000  Uiso   1.00
H811   H     0.43498   0.62914   0.72945   0.00000  Uiso   1.00
C812   C     0.49974   0.62418   0.75062   0.00000  Uiso   1.00
C813   C     0.65312   0.47406   0.71623   0.00000  Uiso   1.00
H814   H     0.64331   0.45334   0.68917   0.00000  Uiso   1.00
C815   C     0.36771   0.47405   0.71626   0.00000  Uiso   1.00
H816   H     0.39416   0.45329   0.68925   0.00000  Uiso   1.00
N817   N     0.38093   0.50001   0.75002   0.00000  Uiso   1.00
C818   C     0.34669   0.52598   0.78387   0.00000  Uiso   1.00
C819   C     0.63211   0.52589   0.78378   0.00000  Uiso   1.00
H820   H     0.60535   0.54657   0.81062   0.00000  Uiso   1.00
N821   N     0.61906   0.49998   0.75001   0.00000  Uiso   1.00
C822   C     0.35912   0.55402   0.81973   0.00000  Uiso   1.00
N823   N     0.36891   0.57678   0.84858   0.00000  Uiso   1.00
N824   N     0.63972   0.43918   0.97835   0.00000  Uiso   1.00
O825   O     0.66142   0.41667   0.50413   0.00000  Uiso   1.00
O826   O     0.66325   0.44936   0.92820   0.00000  Uiso   1.00
O827   O     0.79512   0.56108   0.75001   0.00000  Uiso   1.00
O828   O     0.87157   0.56107   0.75001   0.00000  Uiso   1.00
C829   C     0.83325   0.58003   0.75024   0.00000  Uiso   1.00
O830   O     0.77613   0.50000   0.82681   0.00000  Uiso   1.00
O831   O     0.85258   0.49999   0.82681   0.00000  Uiso   1.00
C832   C     0.80657   0.49786   0.85215   0.00000  Uiso   1.00
Zn833  Zn    0.78229   0.50001   0.75000   0.00000  Uiso   1.00
Zn834  Zn    0.88438   0.49999   0.75000   0.00000  Uiso   1.00
O835   O     0.79510   0.43893   0.75000   0.00000  Uiso   1.00
O836   O     0.87154   0.43892   0.75000   0.00000  Uiso   1.00
O837   O     0.81409   0.50001   0.67319   0.00000  Uiso   1.00
O838   O     0.89053   0.50000   0.67319   0.00000  Uiso   1.00
C839   C     0.83332   0.41997   0.75008   0.00000  Uiso   1.00
C840   C     0.86014   0.49980   0.64775   0.00000  Uiso   1.00
C841   C     0.92772   0.45890   0.50771   0.00000  Uiso   1.00
H842   H     0.94499   0.46604   0.58076   0.00000  Uiso   1.00
H843   H     0.92459   0.42606   0.91287   0.00000  Uiso   1.00
C844   C     0.87656   0.49408   0.58925   0.00000  Uiso   1.00
C845   C     0.74400   0.51149   0.94153   0.00000  Uiso   1.00
C846   C     0.73106   0.51632   0.99735   0.00000  Uiso   1.00
C847   C     0.76440   0.50756   0.52255   0.00000  Uiso   1.00
C848   C     0.81075   0.49152   0.99223   0.00000  Uiso   1.00
C849   C     0.82010   0.47998   0.93784   0.00000  Uiso   1.00
C850   C     0.84810   0.48650   0.51396   0.00000  Uiso   1.00
C851   C     0.89101   0.46418   0.98473   0.00000  Uiso   1.00
C852   C     0.89492   0.44632   0.93464   0.00000  Uiso   1.00
C853   C     0.86026   0.45440   0.91134   0.00000  Uiso   1.00
C854   C     0.84392   0.50387   0.56391   0.00000  Uiso   1.00
C855   C     0.91911   0.47271   0.56102   0.00000  Uiso   1.00
C856   C     0.78911   0.49463   0.91126   0.00000  Uiso   1.00
H857   H     0.81403   0.52391   0.58540   0.00000  Uiso   1.00
H858   H     0.71927   0.52190   0.92193   0.00000  Uiso   1.00
H859   H     0.75251   0.51260   0.56587   0.00000  Uiso   1.00
H860   H     0.69587   0.52865   0.52084   0.00000  Uiso   1.00
H861   H     0.86486   0.43984   0.87259   0.00000  Uiso   1.00
C862   C     0.86950   0.64534   0.76252   0.00000  Uiso   1.00
H863   H     0.89767   0.62907   0.77211   0.00000  Uiso   1.00
C864   C     0.86956   0.35464   0.76242   0.00000  Uiso   1.00
H865   H     0.89774   0.37090   0.77198   0.00000  Uiso   1.00
C866   C     0.83320   0.37582   0.75041   0.00000  Uiso   1.00
C867   C     0.79663   0.35466   0.73880   0.00000  Uiso   1.00
H868   H     0.76846   0.37091   0.72918   0.00000  Uiso   1.00
C869   C     0.79654   0.64537   0.73894   0.00000  Uiso   1.00
H870   H     0.76831   0.62914   0.72945   0.00000  Uiso   1.00
C871   C     0.83307   0.62418   0.75062   0.00000  Uiso   1.00
C872   C     0.98645   0.47406   0.71623   0.00000  Uiso   1.00
H873   H     0.97665   0.45334   0.68917   0.00000  Uiso   1.00
C874   C     0.70104   0.47405   0.71626   0.00000  Uiso   1.00
H875   H     0.72749   0.45329   0.68925   0.00000  Uiso   1.00
N876   N     0.71426   0.50001   0.75002   0.00000  Uiso   1.00
C877   C     0.68003   0.52598   0.78387   0.00000  Uiso   1.00
C878   C     0.96545   0.52589   0.78378   0.00000  Uiso   1.00
H879   H     0.93868   0.54657   0.81062   0.00000  Uiso   1.00
N880   N     0.95239   0.49998   0.75001   0.00000  Uiso   1.00
C881   C     0.69246   0.55402   0.81973   0.00000  Uiso   1.00
N882   N     0.70225   0.57678   0.84858   0.00000  Uiso   1.00
N883   N     0.97306   0.43918   0.97835   0.00000  Uiso   1.00
O884   O     0.99476   0.41667   0.50413   0.00000  Uiso   1.00
O885   O     0.99658   0.44936   0.92820   0.00000  Uiso   1.00
O886   O     0.12846   0.89442   0.75001   0.00000  Uiso   1.00
O887   O     0.20490   0.89441   0.75001   0.00000  Uiso   1.00
C888   C     0.16658   0.91336   0.75024   0.00000  Uiso   1.00
O889   O     0.10947   0.83333   0.82681   0.00000  Uiso   1.00
O890   O     0.18591   0.83332   0.82681   0.00000  Uiso   1.00
C891   C     0.13991   0.83119   0.85215   0.00000  Uiso   1.00
Zn892  Zn    0.11562   0.83334   0.75000   0.00000  Uiso   1.00
Zn893  Zn    0.21771   0.83333   0.75000   0.00000  Uiso   1.00
O894   O     0.12843   0.77226   0.75000   0.00000  Uiso   1.00
O895   O     0.20488   0.77225   0.75000   0.00000  Uiso   1.00
O896   O     0.14742   0.83335   0.67319   0.00000  Uiso   1.00
O897   O     0.22387   0.83334   0.67319   0.00000  Uiso   1.00
C898   C     0.16665   0.75330   0.75008   0.00000  Uiso   1.00
C899   C     0.19347   0.83314   0.64775   0.00000  Uiso   1.00
C900   C     0.26105   0.79224   0.50771   0.00000  Uiso   1.00
H901   H     0.27832   0.79937   0.58076   0.00000  Uiso   1.00
H902   H     0.25792   0.75939   0.91287   0.00000  Uiso   1.00
C903   C     0.20989   0.82741   0.58925   0.00000  Uiso   1.00
C904   C     0.07734   0.84483   0.94153   0.00000  Uiso   1.00
C905   C     0.06440   0.84966   0.99735   0.00000  Uiso   1.00
C906   C     0.09774   0.84089   0.52255   0.00000  Uiso   1.00
C907   C     0.14409   0.82485   0.99223   0.00000  Uiso   1.00
C908   C     0.15343   0.81331   0.93784   0.00000  Uiso   1.00
C909   C     0.18144   0.81984   0.51396   0.00000  Uiso   1.00
C910   C     0.22434   0.79751   0.98473   0.00000  Uiso   1.00
C911   C     0.22825   0.77965   0.93464   0.00000  Uiso   1.00
C912   C     0.19360   0.78773   0.91134   0.00000  Uiso   1.00
C913   C     0.17725   0.83720   0.56391   0.00000  Uiso   1.00
C914   C     0.25244   0.80605   0.56102   0.00000  Uiso   1.00
C915   C     0.12244   0.82796   0.91126   0.00000  Uiso   1.00
H916   H     0.14737   0.85724   0.58540   0.00000  Uiso   1.00
H917   H     0.05261   0.85523   0.92193   0.00000  Uiso   1.00
H918   H     0.08585   0.84593   0.56587   0.00000  Uiso   1.00
H919   H     0.02920   0.86198   0.52084   0.00000  Uiso   1.00
H920   H     0.19820   0.77317   0.87259   0.00000  Uiso   1.00
C921   C     0.20283   0.97867   0.76252   0.00000  Uiso   1.00
H922   H     0.23100   0.96240   0.77211   0.00000  Uiso   1.00
C923   C     0.20289   0.68798   0.76242   0.00000  Uiso   1.00
H924   H     0.23107   0.70423   0.77198   0.00000  Uiso   1.00
C925   C     0.16653   0.70916   0.75041   0.00000  Uiso   1.00
C926   C     0.12996   0.68799   0.73880   0.00000  Uiso   1.00
H927   H     0.10179   0.70424   0.72918   0.00000  Uiso   1.00
C928   C     0.12988   0.97871   0.73894   0.00000  Uiso   1.00
H929   H     0.10165   0.96248   0.72945   0.00000  Uiso   1.00
C930   C     0.16640   0.95752   0.75062   0.00000  Uiso   1.00
C931   C     0.31978   0.80740   0.71623   0.00000  Uiso   1.00
H932   H     0.30998   0.78668   0.68917   0.00000  Uiso   1.00
C933   C     0.03437   0.80738   0.71626   0.00000  Uiso   1.00
H934   H     0.06083   0.78662   0.68925   0.00000  Uiso   1.00
N935   N     0.04760   0.83334   0.75002   0.00000  Uiso   1.00
C936   C     0.01336   0.85932   0.78387   0.00000  Uiso   1.00
C937   C     0.29878   0.85923   0.78378   0.00000  Uiso   1.00
H938   H     0.27201   0.87990   0.81062   0.00000  Uiso   1.00
N939   N     0.28573   0.83331   0.75001   0.00000  Uiso   1.00
C940   C     0.02579   0.88736   0.81973   0.00000  Uiso   1.00
N941   N     0.03558   0.91011   0.84858   0.00000  Uiso   1.00
N942   N     0.30639   0.77251   0.97835   0.00000  Uiso   1.00
O943   O     0.32809   0.75000   0.50413   0.00000  Uiso   1.00
O944   O     0.32992   0.78269   0.92820   0.00000  Uiso   1.00
O945   O     0.46179   0.89442   0.75001   0.00000  Uiso   1.00
O946   O     0.53823   0.89441   0.75001   0.00000  Uiso   1.00
C947   C     0.49991   0.91336   0.75024   0.00000  Uiso   1.00
O948   O     0.44280   0.83333   0.82681   0.00000  Uiso   1.00
O949   O     0.51924   0.83332   0.82681   0.00000  Uiso   1.00
C950   C     0.47324   0.83119   0.85215   0.00000  Uiso   1.00
Zn951  Zn    0.44896   0.83334   0.75000   0.00000  Uiso   1.00
Zn952  Zn    0.55104   0.83333   0.75000   0.00000  Uiso   1.00
O953   O     0.46177   0.77226   0.75000   0.00000  Uiso   1.00
O954   O     0.53821   0.77225   0.75000   0.00000  Uiso   1.00
O955   O     0.48076   0.83335   0.67319   0.00000  Uiso   1.00
O956   O     0.55720   0.83334   0.67319   0.00000  Uiso   1.00
C957   C     0.49998   0.75330   0.75008   0.00000  Uiso   1.00
C958   C     0.52680   0.83314   0.64775   0.00000  Uiso   1.00
C959   C     0.59438   0.79224   0.50771   0.00000  Uiso   1.00
H960   H     0.61166   0.79937   0.58076   0.00000  Uiso   1.00
H961   H     0.59126   0.75939   0.91287   0.00000  Uiso   1.00
C962   C     0.54322   0.82741   0.58925   0.00000  Uiso   1.00
C963   C     0.41067   0.84483   0.94153   0.00000  Uiso   1.00
C964   C     0.39773   0.84966   0.99735   0.00000  Uiso   1.00
C965   C     0.43107   0.84089   0.52255   0.00000  Uiso   1.00
C966   C     0.47742   0.82485   0.99223   0.00000  Uiso   1.00
C967   C     0.48677   0.81331   0.93784   0.00000  Uiso   1.00
C968   C     0.51477   0.81984   0.51396   0.00000  Uiso   1.00
C969   C     0.55768   0.79751   0.98473   0.00000  Uiso   1.00
C970   C     0.56159   0.77965   0.93464   0.00000  Uiso   1.00
C971   C     0.52693   0.78773   0.91134   0.00000  Uiso   1.00
C972   C     0.51059   0.83720   0.56391   0.00000  Uiso   1.00
C973   C     0.58578   0.80605   0.56102   0.00000  Uiso   1.00
C974   C     0.45577   0.82796   0.91126   0.00000  Uiso   1.00
H975   H     0.48070   0.85724   0.58540   0.00000  Uiso   1.00
H976   H     0.38594   0.85523   0.92193   0.00000  Uiso   1.00
H977   H     0.41918   0.84593   0.56587   0.00000  Uiso   1.00
H978   H     0.36253   0.86198   0.52084   0.00000  Uiso   1.00
H979   H     0.53153   0.77317   0.87259   0.00000  Uiso   1.00
C980   C     0.53617   0.97867   0.76252   0.00000  Uiso   1.00
H981   H     0.56434   0.96240   0.77211   0.00000  Uiso   1.00
C982   C     0.53622   0.68798   0.76242   0.00000  Uiso   1.00
H983   H     0.56440   0.70423   0.77198   0.00000  Uiso   1.00
C984   C     0.49986   0.70916   0.75041   0.00000  Uiso   1.00
C985   C     0.46329   0.68799   0.73880   0.00000  Uiso   1.00
H986   H     0.43512   0.70424   0.72918   0.00000  Uiso   1.00
C987   C     0.46321   0.97871   0.73894   0.00000  Uiso   1.00
H988   H     0.43498   0.96248   0.72945   0.00000  Uiso   1.00
C989   C     0.49974   0.95752   0.75062   0.00000  Uiso   1.00
C990   C     0.65312   0.80740   0.71623   0.00000  Uiso   1.00
H991   H     0.64331   0.78668   0.68917   0.00000  Uiso   1.00
C992   C     0.36771   0.80738   0.71626   0.00000  Uiso   1.00
H993   H     0.39416   0.78662   0.68925   0.00000  Uiso   1.00
N994   N     0.38093   0.83334   0.75002   0.00000  Uiso   1.00
C995   C     0.34669   0.85932   0.78387   0.00000  Uiso   1.00
C996   C     0.63211   0.85923   0.78378   0.00000  Uiso   1.00
H997   H     0.60535   0.87990   0.81062   0.00000  Uiso   1.00
N998   N     0.61906   0.83331   0.75001   0.00000  Uiso   1.00
C999   C     0.35912   0.88736   0.81973   0.00000  Uiso   1.00
N1000  N     0.36891   0.91011   0.84858   0.00000  Uiso   1.00
N1001  N     0.63972   0.77251   0.97835   0.00000  Uiso   1.00
O1002  O     0.66142   0.75000   0.50413   0.00000  Uiso   1.00
O1003  O     0.66325   0.78269   0.92820   0.00000  Uiso   1.00
O1004  O     0.79512   0.89442   0.75001   0.00000  Uiso   1.00
O1005  O     0.87157   0.89441   0.75001   0.00000  Uiso   1.00
C1006  C     0.83325   0.91336   0.75024   0.00000  Uiso   1.00
O1007  O     0.77613   0.83333   0.82681   0.00000  Uiso   1.00
O1008  O     0.85258   0.83332   0.82681   0.00000  Uiso   1.00
C1009  C     0.80657   0.83119   0.85215   0.00000  Uiso   1.00
Zn1010 Zn    0.78229   0.83334   0.75000   0.00000  Uiso   1.00
Zn1011 Zn    0.88438   0.83333   0.75000   0.00000  Uiso   1.00
O1012  O     0.79510   0.77226   0.75000   0.00000  Uiso   1.00
O1013  O     0.87154   0.77225   0.75000   0.00000  Uiso   1.00
O1014  O     0.81409   0.83335   0.67319   0.00000  Uiso   1.00
O1015  O     0.89053   0.83334   0.67319   0.00000  Uiso   1.00
C1016  C     0.83332   0.75330   0.75008   0.00000  Uiso   1.00
C1017  C     0.86014   0.83314   0.64775   0.00000  Uiso   1.00
C1018  C     0.92772   0.79224   0.50771   0.00000  Uiso   1.00
H1019  H     0.94499   0.79937   0.58076   0.00000  Uiso   1.00
H1020  H     0.92459   0.75939   0.91287   0.00000  Uiso   1.00
C1021  C     0.87656   0.82741   0.58925   0.00000  Uiso   1.00
C1022  C     0.74400   0.84483   0.94153   0.00000  Uiso   1.00
C1023  C     0.73106   0.84966   0.99735   0.00000  Uiso   1.00
C1024  C     0.76440   0.84089   0.52255   0.00000  Uiso   1.00
C1025  C     0.81075   0.82485   0.99223   0.00000  Uiso   1.00
C1026  C     0.82010   0.81331   0.93784   0.00000  Uiso   1.00
C1027  C     0.84810   0.81984   0.51396   0.00000  Uiso   1.00
C1028  C     0.89101   0.79751   0.98473   0.00000  Uiso   1.00
C1029  C     0.89492   0.77965   0.93464   0.00000  Uiso   1.00
C1030  C     0.86026   0.78773   0.91134   0.00000  Uiso   1.00
C1031  C     0.84392   0.83720   0.56391   0.00000  Uiso   1.00
C1032  C     0.91911   0.80605   0.56102   0.00000  Uiso   1.00
C1033  C     0.78911   0.82796   0.91126   0.00000  Uiso   1.00
H1034  H     0.81403   0.85724   0.58540   0.00000  Uiso   1.00
H1035  H     0.71927   0.85523   0.92193   0.00000  Uiso   1.00
H1036  H     0.75251   0.84593   0.56587   0.00000  Uiso   1.00
H1037  H     0.69587   0.86198   0.52084   0.00000  Uiso   1.00
H1038  H     0.86486   0.77317   0.87259   0.00000  Uiso   1.00
C1039  C     0.86950   0.97867   0.76252   0.00000  Uiso   1.00
H1040  H     0.89767   0.96240   0.77211   0.00000  Uiso   1.00
C1041  C     0.86956   0.68798   0.76242   0.00000  Uiso   1.00
H1042  H     0.89774   0.70423   0.77198   0.00000  Uiso   1.00
C1043  C     0.83320   0.70916   0.75041   0.00000  Uiso   1.00
C1044  C     0.79663   0.68799   0.73880   0.00000  Uiso   1.00
H1045  H     0.76846   0.70424   0.72918   0.00000  Uiso   1.00
C1046  C     0.79654   0.97871   0.73894   0.00000  Uiso   1.00
H1047  H     0.76831   0.96248   0.72945   0.00000  Uiso   1.00
C1048  C     0.83307   0.95752   0.75062   0.00000  Uiso   1.00
C1049  C     0.98645   0.80740   0.71623   0.00000  Uiso   1.00
H1050  H     0.97665   0.78668   0.68917   0.00000  Uiso   1.00
C1051  C     0.70104   0.80738   0.71626   0.00000  Uiso   1.00
H1052  H     0.72749   0.78662   0.68925   0.00000  Uiso   1.00
N1053  N     0.71426   0.83334   0.75002   0.00000  Uiso   1.00
C1054  C     0.68003   0.85932   0.78387   0.00000  Uiso   1.00
C1055  C     0.96545   0.85923   0.78378   0.00000  Uiso   1.00
H1056  H     0.93868   0.87990   0.81062   0.00000  Uiso   1.00
N1057  N     0.95239   0.83331   0.75001   0.00000  Uiso   1.00
C1058  C     0.69246   0.88736   0.81973   0.00000  Uiso   1.00
N1059  N     0.70225   0.91011   0.84858   0.00000  Uiso   1.00
N1060  N     0.97306   0.77251   0.97835   0.00000  Uiso   1.00
O1061  O     0.99476   0.75000   0.50413   0.00000  Uiso   1.00
O1062  O     0.99658   0.78269   0.92820   0.00000  Uiso   1.00
loop_
_geom_bond_atom_site_label_1
_geom_bond_atom_site_label_2
_geom_bond_distance
_geom_bond_site_symmetry_2
_ccdc_geom_bond_type
O1     Zn7     2.000   .     S
O1     C3      1.284   .     A
O2     C3      1.283   .     A
O2     Zn8     1.999   .     S
C3     C45     1.419   .     S
O4     Zn7     1.960   .     S
O4     C6      1.292   .     A
O5     Zn8     1.907   .     S
O5     C6      1.293   .     A
C6     C30     1.460   .     S
Zn7    O11     1.907   .     S
Zn7    O9      1.999   .     S
Zn7    N50     2.011   .     S
Zn8    O12     1.960   .     S
Zn8    N54     2.010   .     S
Zn8    O10     2.000   .     S
O9     C13     1.283   .     A
O10    C13     1.284   .     A
O11    C14     1.292   .     A
O12    C14     1.291   .     A
C13    C40     1.419   .     S
C14    C18     1.452   .     S
C15    C29     1.402   .     A
C15    C556    1.422   1_554 S
C15    N588    1.439   1_554 S
H16    C29     1.083   .     S
H17    C26     1.081   .     S
C18    C29     1.397   .     A
C18    C28     1.384   .     A
C19    C20     1.388   .     A
C19    H32     1.082   .     S
C19    C30     1.401   .     A
C20    C552    1.392   .     S
C20    H565    1.083   .     S
C21    H33     1.079   .     S
C21    C551    1.392   1_554 S
C21    C553    1.420   1_554 S
C22    C23     1.405   .     A
C22    C552    1.420   .     S
C22    C555    1.416   .     S
C23    C27     1.411   .     A
C23    C30     1.411   .     A
C24    C28     1.388   .     A
C24    C553    1.416   1_554 S
C24    C556    1.425   1_554 S
C25    C26     1.400   .     A
C25    C546    1.422   .     S
C25    C555    1.425   .     S
C26    C27     1.387   .     A
C27    H35     1.082   .     S
C28    H31     1.079   .     S
H34    C551    1.083   1_554 S
C36    C45     1.397   .     A
C36    H37     1.084   .     S
C36    C215    1.370   .     S
C38    C40     1.397   .     A
C38    H39     1.084   .     S
C38    C390    1.370   1_545 S
C40    C41     1.397   .     A
C41    H42     1.084   .     S
C41    C397    1.370   1_545 S
C43    C45     1.397   .     A
C43    H44     1.084   .     S
C43    C218    1.370   .     S
C46    N54     1.366   .     A
C46    H47     1.082   .     S
C46    C107    1.417   .     S
C48    H49     1.082   .     S
C48    N50     1.367   .     A
C48    C164    1.417   1_455 S
N50    C51     1.371   .     A
C51    C55     1.437   .     S
C51    C170    1.417   1_455 S
C52    N54     1.364   .     A
C52    H53     1.083   .     S
C52    C110    1.417   .     S
C55    N56     1.157   .     T
N57    O59     1.301   .     A
N57    C546    1.439   .     S
N57    O589    1.302   .     S
O58    N588    1.302   1_554 S
O60    Zn66    2.000   .     S
O60    C62     1.284   .     A
O61    C62     1.283   .     A
O61    Zn67    1.999   .     S
C62    C104    1.419   .     S
O63    Zn66    1.960   .     S
O63    C65     1.292   .     A
O64    Zn67    1.907   .     S
O64    C65     1.293   .     A
C65    C89     1.460   .     S
Zn66   O70     1.907   .     S
Zn66   O68     1.999   .     S
Zn66   N109    2.011   .     S
Zn67   O71     1.960   .     S
Zn67   N113    2.010   .     S
Zn67   O69     2.000   .     S
O68    C72     1.283   .     A
O69    C72     1.284   .     A
O70    C73     1.292   .     A
O71    C73     1.291   .     A
C72    C99     1.419   .     S
C73    C77     1.452   .     S
C74    C88     1.402   .     A
C74    C615    1.422   1_554 S
C74    N647    1.439   1_554 S
H75    C88     1.083   .     S
H76    C85     1.081   .     S
C77    C88     1.397   .     A
C77    C87     1.384   .     A
C78    C79     1.388   .     A
C78    H91     1.082   .     S
C78    C89     1.401   .     A
C79    C611    1.392   .     S
C79    H624    1.083   .     S
C80    H92     1.079   .     S
C80    C610    1.392   1_554 S
C80    C612    1.420   1_554 S
C81    C82     1.405   .     A
C81    C611    1.420   .     S
C81    C614    1.416   .     S
C82    C86     1.411   .     A
C82    C89     1.411   .     A
C83    C87     1.388   .     A
C83    C612    1.416   1_554 S
C83    C615    1.425   1_554 S
C84    C85     1.400   .     A
C84    C605    1.422   .     S
C84    C614    1.425   .     S
C85    C86     1.387   .     A
C86    H94     1.082   .     S
C87    H90     1.079   .     S
H93    C610    1.083   1_554 S
C95    C104    1.397   .     A
C95    H96     1.084   .     S
C95    C274    1.370   .     S
C97    C99     1.397   .     A
C97    H98     1.084   .     S
C97    C449    1.370   1_545 S
C99    C100    1.397   .     A
C100   H101    1.084   .     S
C100   C456    1.370   1_545 S
C102   C104    1.397   .     A
C102   H103    1.084   .     S
C102   C277    1.370   .     S
C105   N113    1.366   .     A
C105   H106    1.082   .     S
C105   C166    1.417   .     S
C107   H108    1.082   .     S
C107   N109    1.367   .     A
N109   C110    1.371   .     A
C110   C114    1.437   .     S
C111   N113    1.364   .     A
C111   H112    1.083   .     S
C111   C169    1.417   .     S
C114   N115    1.157   .     T
N116   O118    1.301   .     A
N116   C605    1.439   .     S
N116   O648    1.302   .     S
O117   N647    1.302   1_554 S
O119   Zn125   2.000   .     S
O119   C121    1.284   .     A
O120   C121    1.283   .     A
O120   Zn126   1.999   .     S
C121   C163    1.419   .     S
O122   Zn125   1.960   .     S
O122   C124    1.292   .     A
O123   Zn126   1.907   .     S
O123   C124    1.293   .     A
C124   C148    1.460   .     S
Zn125  O129    1.907   .     S
Zn125  O127    1.999   .     S
Zn125  N168    2.011   .     S
Zn126  O130    1.960   .     S
Zn126  N172    2.010   .     S
Zn126  O128    2.000   .     S
O127   C131    1.283   .     A
O128   C131    1.284   .     A
O129   C132    1.292   .     A
O130   C132    1.291   .     A
C131   C158    1.419   .     S
C132   C136    1.452   .     S
C133   C147    1.402   .     A
C133   C674    1.422   1_554 S
C133   N706    1.439   1_554 S
H134   C147    1.083   .     S
H135   C144    1.081   .     S
C136   C147    1.397   .     A
C136   C146    1.384   .     A
C137   C138    1.388   .     A
C137   H150    1.082   .     S
C137   C148    1.401   .     A
C138   C670    1.392   .     S
C138   H683    1.083   .     S
C139   H151    1.079   .     S
C139   C669    1.392   1_554 S
C139   C671    1.420   1_554 S
C140   C141    1.405   .     A
C140   C670    1.420   .     S
C140   C673    1.416   .     S
C141   C145    1.411   .     A
C141   C148    1.411   .     A
C142   C146    1.388   .     A
C142   C671    1.416   1_554 S
C142   C674    1.425   1_554 S
C143   C144    1.400   .     A
C143   C664    1.422   .     S
C143   C673    1.425   .     S
C144   C145    1.387   .     A
C145   H153    1.082   .     S
C146   H149    1.079   .     S
H152   C669    1.083   1_554 S
C154   C163    1.397   .     A
C154   H155    1.084   .     S
C154   C333    1.370   .     S
C156   C158    1.397   .     A
C156   H157    1.084   .     S
C156   C508    1.370   1_545 S
C158   C159    1.397   .     A
C159   H160    1.084   .     S
C159   C515    1.370   1_545 S
C161   C163    1.397   .     A
C161   H162    1.084   .     S
C161   C336    1.370   .     S
C164   N172    1.366   .     A
C164   H165    1.082   .     S
C164   C48     1.417   1_655 S
C166   H167    1.082   .     S
C166   N168    1.367   .     A
N168   C169    1.371   .     A
C169   C173    1.437   .     S
C170   N172    1.364   .     A
C170   H171    1.083   .     S
C170   C51     1.417   1_655 S
C173   N174    1.157   .     T
N175   O177    1.301   .     A
N175   C664    1.439   .     S
N175   O707    1.302   .     S
O176   N706    1.302   1_554 S
O178   Zn184   2.000   .     S
O178   C180    1.284   .     A
O179   C180    1.283   .     A
O179   Zn185   1.999   .     S
C180   C222    1.419   .     S
O181   Zn184   1.960   .     S
O181   C183    1.292   .     A
O182   Zn185   1.907   .     S
O182   C183    1.293   .     A
C183   C207    1.460   .     S
Zn184  O188    1.907   .     S
Zn184  O186    1.999   .     S
Zn184  N227    2.011   .     S
Zn185  O189    1.960   .     S
Zn185  N231    2.010   .     S
Zn185  O187    2.000   .     S
O186   C190    1.283   .     A
O187   C190    1.284   .     A
O188   C191    1.292   .     A
O189   C191    1.291   .     A
C190   C217    1.419   .     S
C191   C195    1.452   .     S
C192   C206    1.402   .     A
C192   C733    1.422   1_554 S
C192   N765    1.439   1_554 S
H193   C206    1.083   .     S
H194   C203    1.081   .     S
C195   C206    1.397   .     A
C195   C205    1.384   .     A
C196   C197    1.388   .     A
C196   H209    1.082   .     S
C196   C207    1.401   .     A
C197   C729    1.392   .     S
C197   H742    1.083   .     S
C198   H210    1.079   .     S
C198   C728    1.392   1_554 S
C198   C730    1.420   1_554 S
C199   C200    1.405   .     A
C199   C729    1.420   .     S
C199   C732    1.416   .     S
C200   C204    1.411   .     A
C200   C207    1.411   .     A
C201   C205    1.388   .     A
C201   C730    1.416   1_554 S
C201   C733    1.425   1_554 S
C202   C203    1.400   .     A
C202   C723    1.422   .     S
C202   C732    1.425   .     S
C203   C204    1.387   .     A
C204   H212    1.082   .     S
C205   H208    1.079   .     S
H211   C728    1.083   1_554 S
C213   C222    1.397   .     A
C213   H214    1.084   .     S
C213   C392    1.370   .     S
C215   C217    1.397   .     A
C215   H216    1.084   .     S
C217   C218    1.397   .     A
C218   H219    1.084   .     S
C220   C222    1.397   .     A
C220   H221    1.084   .     S
C220   C395    1.370   .     S
C223   N231    1.366   .     A
C223   H224    1.082   .     S
C223   C284    1.417   .     S
C225   H226    1.082   .     S
C225   N227    1.367   .     A
C225   C341    1.417   1_455 S
N227   C228    1.371   .     A
C228   C232    1.437   .     S
C228   C347    1.417   1_455 S
C229   N231    1.364   .     A
C229   H230    1.083   .     S
C229   C287    1.417   .     S
C232   N233    1.157   .     T
N234   O236    1.301   .     A
N234   C723    1.439   .     S
N234   O766    1.302   .     S
O235   N765    1.302   1_554 S
O237   Zn243   2.000   .     S
O237   C239    1.284   .     A
O238   C239    1.283   .     A
O238   Zn244   1.999   .     S
C239   C281    1.419   .     S
O240   Zn243   1.960   .     S
O240   C242    1.292   .     A
O241   Zn244   1.907   .     S
O241   C242    1.293   .     A
C242   C266    1.460   .     S
Zn243  O247    1.907   .     S
Zn243  O245    1.999   .     S
Zn243  N286    2.011   .     S
Zn244  O248    1.960   .     S
Zn244  N290    2.010   .     S
Zn244  O246    2.000   .     S
O245   C249    1.283   .     A
O246   C249    1.284   .     A
O247   C250    1.292   .     A
O248   C250    1.291   .     A
C249   C276    1.419   .     S
C250   C254    1.452   .     S
C251   C265    1.402   .     A
C251   C792    1.422   1_554 S
C251   N824    1.439   1_554 S
H252   C265    1.083   .     S
H253   C262    1.081   .     S
C254   C265    1.397   .     A
C254   C264    1.384   .     A
C255   C256    1.388   .     A
C255   H268    1.082   .     S
C255   C266    1.401   .     A
C256   C788    1.392   .     S
C256   H801    1.083   .     S
C257   H269    1.079   .     S
C257   C787    1.392   1_554 S
C257   C789    1.420   1_554 S
C258   C259    1.405   .     A
C258   C788    1.420   .     S
C258   C791    1.416   .     S
C259   C263    1.411   .     A
C259   C266    1.411   .     A
C260   C264    1.388   .     A
C260   C789    1.416   1_554 S
C260   C792    1.425   1_554 S
C261   C262    1.400   .     A
C261   C782    1.422   .     S
C261   C791    1.425   .     S
C262   C263    1.387   .     A
C263   H271    1.082   .     S
C264   H267    1.079   .     S
H270   C787    1.083   1_554 S
C272   C281    1.397   .     A
C272   H273    1.084   .     S
C272   C451    1.370   .     S
C274   C276    1.397   .     A
C274   H275    1.084   .     S
C276   C277    1.397   .     A
C277   H278    1.084   .     S
C279   C281    1.397   .     A
C279   H280    1.084   .     S
C279   C454    1.370   .     S
C282   N290    1.366   .     A
C282   H283    1.082   .     S
C282   C343    1.417   .     S
C284   H285    1.082   .     S
C284   N286    1.367   .     A
N286   C287    1.371   .     A
C287   C291    1.437   .     S
C288   N290    1.364   .     A
C288   H289    1.083   .     S
C288   C346    1.417   .     S
C291   N292    1.157   .     T
N293   O295    1.301   .     A
N293   C782    1.439   .     S
N293   O825    1.302   .     S
O294   N824    1.302   1_554 S
O296   Zn302   2.000   .     S
O296   C298    1.284   .     A
O297   C298    1.283   .     A
O297   Zn303   1.999   .     S
C298   C340    1.419   .     S
O299   Zn302   1.960   .     S
O299   C301    1.292   .     A
O300   Zn303   1.907   .     S
O300   C301    1.293   .     A
C301   C325    1.460   .     S
Zn302  O306    1.907   .     S
Zn302  O304    1.999   .     S
Zn302  N345    2.011   .     S
Zn303  O307    1.960   .     S
Zn303  N349    2.010   .     S
Zn303  O305    2.000   .     S
O304   C308    1.283   .     A
O305   C308    1.284   .     A
O306   C309    1.292   .     A
O307   C309    1.291   .     A
C308   C335    1.419   .     S
C309   C313    1.452   .     S
C310   C324    1.402   .     A
C310   C851    1.422   1_554 S
C310   N883    1.439   1_554 S
H311   C324    1.083   .     S
H312   C321    1.081   .     S
C313   C324    1.397   .     A
C313   C323    1.384   .     A
C314   C315    1.388   .     A
C314   H327    1.082   .     S
C314   C325    1.401   .     A
C315   C847    1.392   .     S
C315   H860    1.083   .     S
C316   H328    1.079   .     S
C316   C846    1.392   1_554 S
C316   C848    1.420   1_554 S
C317   C318    1.405   .     A
C317   C847    1.420   .     S
C317   C850    1.416   .     S
C318   C322    1.411   .     A
C318   C325    1.411   .     A
C319   C323    1.388   .     A
C319   C848    1.416   1_554 S
C319   C851    1.425   1_554 S
C320   C321    1.400   .     A
C320   C841    1.422   .     S
C320   C850    1.425   .     S
C321   C322    1.387   .     A
C322   H330    1.082   .     S
C323   H326    1.079   .     S
H329   C846    1.083   1_554 S
C331   C340    1.397   .     A
C331   H332    1.084   .     S
C331   C510    1.370   .     S
C333   C335    1.397   .     A
C333   H334    1.084   .     S
C335   C336    1.397   .     A
C336   H337    1.084   .     S
C338   C340    1.397   .     A
C338   H339    1.084   .     S
C338   C513    1.370   .     S
C341   N349    1.366   .     A
C341   H342    1.082   .     S
C341   C225    1.417   1_655 S
C343   H344    1.082   .     S
C343   N345    1.367   .     A
N345   C346    1.371   .     A
C346   C350    1.437   .     S
C347   N349    1.364   .     A
C347   H348    1.083   .     S
C347   C228    1.417   1_655 S
C350   N351    1.157   .     T
N352   O354    1.301   .     A
N352   C841    1.439   .     S
N352   O884    1.302   .     S
O353   N883    1.302   1_554 S
O355   Zn361   2.000   .     S
O355   C357    1.284   .     A
O356   C357    1.283   .     A
O356   Zn362   1.999   .     S
C357   C399    1.419   .     S
O358   Zn361   1.960   .     S
O358   C360    1.292   .     A
O359   Zn362   1.907   .     S
O359   C360    1.293   .     A
C360   C384    1.460   .     S
Zn361  O365    1.907   .     S
Zn361  O363    1.999   .     S
Zn361  N404    2.011   .     S
Zn362  O366    1.960   .     S
Zn362  N408    2.010   .     S
Zn362  O364    2.000   .     S
O363   C367    1.283   .     A
O364   C367    1.284   .     A
O365   C368    1.292   .     A
O366   C368    1.291   .     A
C367   C394    1.419   .     S
C368   C372    1.452   .     S
C369   C383    1.402   .     A
C369   C910    1.422   1_554 S
C369   N942    1.439   1_554 S
H370   C383    1.083   .     S
H371   C380    1.081   .     S
C372   C383    1.397   .     A
C372   C382    1.384   .     A
C373   C374    1.388   .     A
C373   H386    1.082   .     S
C373   C384    1.401   .     A
C374   C906    1.392   .     S
C374   H919    1.083   .     S
C375   H387    1.079   .     S
C375   C905    1.392   1_554 S
C375   C907    1.420   1_554 S
C376   C377    1.405   .     A
C376   C906    1.420   .     S
C376   C909    1.416   .     S
C377   C381    1.411   .     A
C377   C384    1.411   .     A
C378   C382    1.388   .     A
C378   C907    1.416   1_554 S
C378   C910    1.425   1_554 S
C379   C380    1.400   .     A
C379   C900    1.422   .     S
C379   C909    1.425   .     S
C380   C381    1.387   .     A
C381   H389    1.082   .     S
C382   H385    1.079   .     S
H388   C905    1.083   1_554 S
C390   C399    1.397   .     A
C390   H391    1.084   .     S
C390   C38     1.370   1_565 S
C392   C394    1.397   .     A
C392   H393    1.084   .     S
C394   C395    1.397   .     A
C395   H396    1.084   .     S
C397   C399    1.397   .     A
C397   H398    1.084   .     S
C397   C41     1.370   1_565 S
C400   N408    1.366   .     A
C400   H401    1.082   .     S
C400   C461    1.417   .     S
C402   H403    1.082   .     S
C402   N404    1.367   .     A
C402   C518    1.417   1_455 S
N404   C405    1.371   .     A
C405   C409    1.437   .     S
C405   C524    1.417   1_455 S
C406   N408    1.364   .     A
C406   H407    1.083   .     S
C406   C464    1.417   .     S
C409   N410    1.157   .     T
N411   O413    1.301   .     A
N411   C900    1.439   .     S
N411   O943    1.302   .     S
O412   N942    1.302   1_554 S
O414   Zn420   2.000   .     S
O414   C416    1.284   .     A
O415   C416    1.283   .     A
O415   Zn421   1.999   .     S
C416   C458    1.419   .     S
O417   Zn420   1.960   .     S
O417   C419    1.292   .     A
O418   Zn421   1.907   .     S
O418   C419    1.293   .     A
C419   C443    1.460   .     S
Zn420  O424    1.907   .     S
Zn420  O422    1.999   .     S
Zn420  N463    2.011   .     S
Zn421  O425    1.960   .     S
Zn421  N467    2.010   .     S
Zn421  O423    2.000   .     S
O422   C426    1.283   .     A
O423   C426    1.284   .     A
O424   C427    1.292   .     A
O425   C427    1.291   .     A
C426   C453    1.419   .     S
C427   C431    1.452   .     S
C428   C442    1.402   .     A
C428   C969    1.422   1_554 S
C428   N1001   1.439   1_554 S
H429   C442    1.083   .     S
H430   C439    1.081   .     S
C431   C442    1.397   .     A
C431   C441    1.384   .     A
C432   C433    1.388   .     A
C432   H445    1.082   .     S
C432   C443    1.401   .     A
C433   C965    1.392   .     S
C433   H978    1.083   .     S
C434   H446    1.079   .     S
C434   C964    1.392   1_554 S
C434   C966    1.420   1_554 S
C435   C436    1.405   .     A
C435   C965    1.420   .     S
C435   C968    1.416   .     S
C436   C440    1.411   .     A
C436   C443    1.411   .     A
C437   C441    1.388   .     A
C437   C966    1.416   1_554 S
C437   C969    1.425   1_554 S
C438   C439    1.400   .     A
C438   C959    1.422   .     S
C438   C968    1.425   .     S
C439   C440    1.387   .     A
C440   H448    1.082   .     S
C441   H444    1.079   .     S
H447   C964    1.083   1_554 S
C449   C458    1.397   .     A
C449   H450    1.084   .     S
C449   C97     1.370   1_565 S
C451   C453    1.397   .     A
C451   H452    1.084   .     S
C453   C454    1.397   .     A
C454   H455    1.084   .     S
C456   C458    1.397   .     A
C456   H457    1.084   .     S
C456   C100    1.370   1_565 S
C459   N467    1.366   .     A
C459   H460    1.082   .     S
C459   C520    1.417   .     S
C461   H462    1.082   .     S
C461   N463    1.367   .     A
N463   C464    1.371   .     A
C464   C468    1.437   .     S
C465   N467    1.364   .     A
C465   H466    1.083   .     S
C465   C523    1.417   .     S
C468   N469    1.157   .     T
N470   O472    1.301   .     A
N470   C959    1.439   .     S
N470   O1002   1.302   .     S
O471   N1001   1.302   1_554 S
O473   Zn479   2.000   .     S
O473   C475    1.284   .     A
O474   C475    1.283   .     A
O474   Zn480   1.999   .     S
C475   C517    1.419   .     S
O476   Zn479   1.960   .     S
O476   C478    1.292   .     A
O477   Zn480   1.907   .     S
O477   C478    1.293   .     A
C478   C502    1.460   .     S
Zn479  O483    1.907   .     S
Zn479  O481    1.999   .     S
Zn479  N522    2.011   .     S
Zn480  O484    1.960   .     S
Zn480  N526    2.010   .     S
Zn480  O482    2.000   .     S
O481   C485    1.283   .     A
O482   C485    1.284   .     A
O483   C486    1.292   .     A
O484   C486    1.291   .     A
C485   C512    1.419   .     S
C486   C490    1.452   .     S
C487   C501    1.402   .     A
C487   C1028   1.422   1_554 S
C487   N1060   1.439   1_554 S
H488   C501    1.083   .     S
H489   C498    1.081   .     S
C490   C501    1.397   .     A
C490   C500    1.384   .     A
C491   C492    1.388   .     A
C491   H504    1.082   .     S
C491   C502    1.401   .     A
C492   C1024   1.392   .     S
C492   H1037   1.083   .     S
C493   H505    1.079   .     S
C493   C1023   1.392   1_554 S
C493   C1025   1.420   1_554 S
C494   C495    1.405   .     A
C494   C1024   1.420   .     S
C494   C1027   1.416   .     S
C495   C499    1.411   .     A
C495   C502    1.411   .     A
C496   C500    1.388   .     A
C496   C1025   1.416   1_554 S
C496   C1028   1.425   1_554 S
C497   C498    1.400   .     A
C497   C1018   1.422   .     S
C497   C1027   1.425   .     S
C498   C499    1.387   .     A
C499   H507    1.082   .     S
C500   H503    1.079   .     S
H506   C1023   1.083   1_554 S
C508   C517    1.397   .     A
C508   H509    1.084   .     S
C508   C156    1.370   1_565 S
C510   C512    1.397   .     A
C510   H511    1.084   .     S
C512   C513    1.397   .     A
C513   H514    1.084   .     S
C515   C517    1.397   .     A
C515   H516    1.084   .     S
C515   C159    1.370   1_565 S
C518   N526    1.366   .     A
C518   H519    1.082   .     S
C518   C402    1.417   1_655 S
C520   H521    1.082   .     S
C520   N522    1.367   .     A
N522   C523    1.371   .     A
C523   C527    1.437   .     S
C524   N526    1.364   .     A
C524   H525    1.083   .     S
C524   C405    1.417   1_655 S
C527   N528    1.157   .     T
N529   O531    1.301   .     A
N529   C1018   1.439   .     S
N529   O1061   1.302   .     S
O530   N1060   1.302   1_554 S
O532   Zn538   2.000   .     S
O532   C534    1.284   .     A
O533   C534    1.283   .     A
O533   Zn539   1.999   .     S
C534   C576    1.419   .     S
O535   Zn538   1.960   .     S
O535   C537    1.292   .     A
O536   Zn539   1.907   .     S
O536   C537    1.293   .     A
C537   C561    1.460   .     S
Zn538  O542    1.907   .     S
Zn538  O540    1.999   .     S
Zn538  N581    2.011   .     S
Zn539  O543    1.960   .     S
Zn539  N585    2.010   .     S
Zn539  O541    2.000   .     S
O540   C544    1.283   .     A
O541   C544    1.284   .     A
O542   C545    1.292   .     A
O543   C545    1.291   .     A
C544   C571    1.419   .     S
C545   C549    1.452   .     S
C546   C560    1.402   .     A
H547   C560    1.083   .     S
H548   C557    1.081   .     S
C549   C560    1.397   .     A
C549   C559    1.384   .     A
C550   C551    1.388   .     A
C550   H563    1.082   .     S
C550   C561    1.401   .     A
C551   C21     1.392   1_556 S
C551   H34     1.083   1_556 S
C552   H564    1.079   .     S
C553   C554    1.405   .     A
C553   C21     1.420   1_556 S
C553   C24     1.416   1_556 S
C554   C558    1.411   .     A
C554   C561    1.411   .     A
C555   C559    1.388   .     A
C556   C557    1.400   .     A
C556   C15     1.422   1_556 S
C556   C24     1.425   1_556 S
C557   C558    1.387   .     A
C558   H566    1.082   .     S
C559   H562    1.079   .     S
C567   C576    1.397   .     A
C567   H568    1.084   .     S
C567   C746    1.370   .     S
C569   C571    1.397   .     A
C569   H570    1.084   .     S
C569   C921    1.370   1_545 S
C571   C572    1.397   .     A
C572   H573    1.084   .     S
C572   C928    1.370   1_545 S
C574   C576    1.397   .     A
C574   H575    1.084   .     S
C574   C749    1.370   .     S
C577   N585    1.366   .     A
C577   H578    1.082   .     S
C577   C638    1.417   .     S
C579   H580    1.082   .     S
C579   N581    1.367   .     A
C579   C695    1.417   1_455 S
N581   C582    1.371   .     A
C582   C586    1.437   .     S
C582   C701    1.417   1_455 S
C583   N585    1.364   .     A
C583   H584    1.083   .     S
C583   C641    1.417   .     S
C586   N587    1.157   .     T
N588   O590    1.301   .     A
N588   C15     1.439   1_556 S
N588   O58     1.302   1_556 S
O591   Zn597   2.000   .     S
O591   C593    1.284   .     A
O592   C593    1.283   .     A
O592   Zn598   1.999   .     S
C593   C635    1.419   .     S
O594   Zn597   1.960   .     S
O594   C596    1.292   .     A
O595   Zn598   1.907   .     S
O595   C596    1.293   .     A
C596   C620    1.460   .     S
Zn597  O601    1.907   .     S
Zn597  O599    1.999   .     S
Zn597  N640    2.011   .     S
Zn598  O602    1.960   .     S
Zn598  N644    2.010   .     S
Zn598  O600    2.000   .     S
O599   C603    1.283   .     A
O600   C603    1.284   .     A
O601   C604    1.292   .     A
O602   C604    1.291   .     A
C603   C630    1.419   .     S
C604   C608    1.452   .     S
C605   C619    1.402   .     A
H606   C619    1.083   .     S
H607   C616    1.081   .     S
C608   C619    1.397   .     A
C608   C618    1.384   .     A
C609   C610    1.388   .     A
C609   H622    1.082   .     S
C609   C620    1.401   .     A
C610   C80     1.392   1_556 S
C610   H93     1.083   1_556 S
C611   H623    1.079   .     S
C612   C613    1.405   .     A
C612   C80     1.420   1_556 S
C612   C83     1.416   1_556 S
C613   C617    1.411   .     A
C613   C620    1.411   .     A
C614   C618    1.388   .     A
C615   C616    1.400   .     A
C615   C74     1.422   1_556 S
C615   C83     1.425   1_556 S
C616   C617    1.387   .     A
C617   H625    1.082   .     S
C618   H621    1.079   .     S
C626   C635    1.397   .     A
C626   H627    1.084   .     S
C626   C805    1.370   .     S
C628   C630    1.397   .     A
C628   H629    1.084   .     S
C628   C980    1.370   1_545 S
C630   C631    1.397   .     A
C631   H632    1.084   .     S
C631   C987    1.370   1_545 S
C633   C635    1.397   .     A
C633   H634    1.084   .     S
C633   C808    1.370   .     S
C636   N644    1.366   .     A
C636   H637    1.082   .     S
C636   C697    1.417   .     S
C638   H639    1.082   .     S
C638   N640    1.367   .     A
N640   C641    1.371   .     A
C641   C645    1.437   .     S
C642   N644    1.364   .     A
C642   H643    1.083   .     S
C642   C700    1.417   .     S
C645   N646    1.157   .     T
N647   O649    1.301   .     A
N647   C74     1.439   1_556 S
N647   O117    1.302   1_556 S
O650   Zn656   2.000   .     S
O650   C652    1.284   .     A
O651   C652    1.283   .     A
O651   Zn657   1.999   .     S
C652   C694    1.419   .     S
O653   Zn656   1.960   .     S
O653   C655    1.292   .     A
O654   Zn657   1.907   .     S
O654   C655    1.293   .     A
C655   C679    1.460   .     S
Zn656  O660    1.907   .     S
Zn656  O658    1.999   .     S
Zn656  N699    2.011   .     S
Zn657  O661    1.960   .     S
Zn657  N703    2.010   .     S
Zn657  O659    2.000   .     S
O658   C662    1.283   .     A
O659   C662    1.284   .     A
O660   C663    1.292   .     A
O661   C663    1.291   .     A
C662   C689    1.419   .     S
C663   C667    1.452   .     S
C664   C678    1.402   .     A
H665   C678    1.083   .     S
H666   C675    1.081   .     S
C667   C678    1.397   .     A
C667   C677    1.384   .     A
C668   C669    1.388   .     A
C668   H681    1.082   .     S
C668   C679    1.401   .     A
C669   C139    1.392   1_556 S
C669   H152    1.083   1_556 S
C670   H682    1.079   .     S
C671   C672    1.405   .     A
C671   C139    1.420   1_556 S
C671   C142    1.416   1_556 S
C672   C676    1.411   .     A
C672   C679    1.411   .     A
C673   C677    1.388   .     A
C674   C675    1.400   .     A
C674   C133    1.422   1_556 S
C674   C142    1.425   1_556 S
C675   C676    1.387   .     A
C676   H684    1.082   .     S
C677   H680    1.079   .     S
C685   C694    1.397   .     A
C685   H686    1.084   .     S
C685   C864    1.370   .     S
C687   C689    1.397   .     A
C687   H688    1.084   .     S
C687   C1039   1.370   1_545 S
C689   C690    1.397   .     A
C690   H691    1.084   .     S
C690   C1046   1.370   1_545 S
C692   C694    1.397   .     A
C692   H693    1.084   .     S
C692   C867    1.370   .     S
C695   N703    1.366   .     A
C695   H696    1.082   .     S
C695   C579    1.417   1_655 S
C697   H698    1.082   .     S
C697   N699    1.367   .     A
N699   C700    1.371   .     A
C700   C704    1.437   .     S
C701   N703    1.364   .     A
C701   H702    1.083   .     S
C701   C582    1.417   1_655 S
C704   N705    1.157   .     T
N706   O708    1.301   .     A
N706   C133    1.439   1_556 S
N706   O176    1.302   1_556 S
O709   Zn715   2.000   .     S
O709   C711    1.284   .     A
O710   C711    1.283   .     A
O710   Zn716   1.999   .     S
C711   C753    1.419   .     S
O712   Zn715   1.960   .     S
O712   C714    1.292   .     A
O713   Zn716   1.907   .     S
O713   C714    1.293   .     A
C714   C738    1.460   .     S
Zn715  O719    1.907   .     S
Zn715  O717    1.999   .     S
Zn715  N758    2.011   .     S
Zn716  O720    1.960   .     S
Zn716  N762    2.010   .     S
Zn716  O718    2.000   .     S
O717   C721    1.283   .     A
O718   C721    1.284   .     A
O719   C722    1.292   .     A
O720   C722    1.291   .     A
C721   C748    1.419   .     S
C722   C726    1.452   .     S
C723   C737    1.402   .     A
H724   C737    1.083   .     S
H725   C734    1.081   .     S
C726   C737    1.397   .     A
C726   C736    1.384   .     A
C727   C728    1.388   .     A
C727   H740    1.082   .     S
C727   C738    1.401   .     A
C728   C198    1.392   1_556 S
C728   H211    1.083   1_556 S
C729   H741    1.079   .     S
C730   C731    1.405   .     A
C730   C198    1.420   1_556 S
C730   C201    1.416   1_556 S
C731   C735    1.411   .     A
C731   C738    1.411   .     A
C732   C736    1.388   .     A
C733   C734    1.400   .     A
C733   C192    1.422   1_556 S
C733   C201    1.425   1_556 S
C734   C735    1.387   .     A
C735   H743    1.082   .     S
C736   H739    1.079   .     S
C744   C753    1.397   .     A
C744   H745    1.084   .     S
C744   C923    1.370   .     S
C746   C748    1.397   .     A
C746   H747    1.084   .     S
C748   C749    1.397   .     A
C749   H750    1.084   .     S
C751   C753    1.397   .     A
C751   H752    1.084   .     S
C751   C926    1.370   .     S
C754   N762    1.366   .     A
C754   H755    1.082   .     S
C754   C815    1.417   .     S
C756   H757    1.082   .     S
C756   N758    1.367   .     A
C756   C872    1.417   1_455 S
N758   C759    1.371   .     A
C759   C763    1.437   .     S
C759   C878    1.417   1_455 S
C760   N762    1.364   .     A
C760   H761    1.083   .     S
C760   C818    1.417   .     S
C763   N764    1.157   .     T
N765   O767    1.301   .     A
N765   C192    1.439   1_556 S
N765   O235    1.302   1_556 S
O768   Zn774   2.000   .     S
O768   C770    1.284   .     A
O769   C770    1.283   .     A
O769   Zn775   1.999   .     S
C770   C812    1.419   .     S
O771   Zn774   1.960   .     S
O771   C773    1.292   .     A
O772   Zn775   1.907   .     S
O772   C773    1.293   .     A
C773   C797    1.460   .     S
Zn774  O778    1.907   .     S
Zn774  O776    1.999   .     S
Zn774  N817    2.011   .     S
Zn775  O779    1.960   .     S
Zn775  N821    2.010   .     S
Zn775  O777    2.000   .     S
O776   C780    1.283   .     A
O777   C780    1.284   .     A
O778   C781    1.292   .     A
O779   C781    1.291   .     A
C780   C807    1.419   .     S
C781   C785    1.452   .     S
C782   C796    1.402   .     A
H783   C796    1.083   .     S
H784   C793    1.081   .     S
C785   C796    1.397   .     A
C785   C795    1.384   .     A
C786   C787    1.388   .     A
C786   H799    1.082   .     S
C786   C797    1.401   .     A
C787   C257    1.392   1_556 S
C787   H270    1.083   1_556 S
C788   H800    1.079   .     S
C789   C790    1.405   .     A
C789   C257    1.420   1_556 S
C789   C260    1.416   1_556 S
C790   C794    1.411   .     A
C790   C797    1.411   .     A
C791   C795    1.388   .     A
C792   C793    1.400   .     A
C792   C251    1.422   1_556 S
C792   C260    1.425   1_556 S
C793   C794    1.387   .     A
C794   H802    1.082   .     S
C795   H798    1.079   .     S
C803   C812    1.397   .     A
C803   H804    1.084   .     S
C803   C982    1.370   .     S
C805   C807    1.397   .     A
C805   H806    1.084   .     S
C807   C808    1.397   .     A
C808   H809    1.084   .     S
C810   C812    1.397   .     A
C810   H811    1.084   .     S
C810   C985    1.370   .     S
C813   N821    1.366   .     A
C813   H814    1.082   .     S
C813   C874    1.417   .     S
C815   H816    1.082   .     S
C815   N817    1.367   .     A
N817   C818    1.371   .     A
C818   C822    1.437   .     S
C819   N821    1.364   .     A
C819   H820    1.083   .     S
C819   C877    1.417   .     S
C822   N823    1.157   .     T
N824   O826    1.301   .     A
N824   C251    1.439   1_556 S
N824   O294    1.302   1_556 S
O827   Zn833   2.000   .     S
O827   C829    1.284   .     A
O828   C829    1.283   .     A
O828   Zn834   1.999   .     S
C829   C871    1.419   .     S
O830   Zn833   1.960   .     S
O830   C832    1.292   .     A
O831   Zn834   1.907   .     S
O831   C832    1.293   .     A
C832   C856    1.460   .     S
Zn833  O837    1.907   .     S
Zn833  O835    1.999   .     S
Zn833  N876    2.011   .     S
Zn834  O838    1.960   .     S
Zn834  N880    2.010   .     S
Zn834  O836    2.000   .     S
O835   C839    1.283   .     A
O836   C839    1.284   .     A
O837   C840    1.292   .     A
O838   C840    1.291   .     A
C839   C866    1.419   .     S
C840   C844    1.452   .     S
C841   C855    1.402   .     A
H842   C855    1.083   .     S
H843   C852    1.081   .     S
C844   C855    1.397   .     A
C844   C854    1.384   .     A
C845   C846    1.388   .     A
C845   H858    1.082   .     S
C845   C856    1.401   .     A
C846   C316    1.392   1_556 S
C846   H329    1.083   1_556 S
C847   H859    1.079   .     S
C848   C849    1.405   .     A
C848   C316    1.420   1_556 S
C848   C319    1.416   1_556 S
C849   C853    1.411   .     A
C849   C856    1.411   .     A
C850   C854    1.388   .     A
C851   C852    1.400   .     A
C851   C310    1.422   1_556 S
C851   C319    1.425   1_556 S
C852   C853    1.387   .     A
C853   H861    1.082   .     S
C854   H857    1.079   .     S
C862   C871    1.397   .     A
C862   H863    1.084   .     S
C862   C1041   1.370   .     S
C864   C866    1.397   .     A
C864   H865    1.084   .     S
C866   C867    1.397   .     A
C867   H868    1.084   .     S
C869   C871    1.397   .     A
C869   H870    1.084   .     S
C869   C1044   1.370   .     S
C872   N880    1.366   .     A
C872   H873    1.082   .     S
C872   C756    1.417   1_655 S
C874   H875    1.082   .     S
C874   N876    1.367   .     A
N876   C877    1.371   .     A
C877   C881    1.437   .     S
C878   N880    1.364   .     A
C878   H879    1.083   .     S
C878   C759    1.417   1_655 S
C881   N882    1.157   .     T
N883   O885    1.301   .     A
N883   C310    1.439   1_556 S
N883   O353    1.302   1_556 S
O886   Zn892   2.000   .     S
O886   C888    1.284   .     A
O887   C888    1.283   .     A
O887   Zn893   1.999   .     S
C888   C930    1.419   .     S
O889   Zn892   1.960   .     S
O889   C891    1.292   .     A
O890   Zn893   1.907   .     S
O890   C891    1.293   .     A
C891   C915    1.460   .     S
Zn892  O896    1.907   .     S
Zn892  O894    1.999   .     S
Zn892  N935    2.011   .     S
Zn893  O897    1.960   .     S
Zn893  N939    2.010   .     S
Zn893  O895    2.000   .     S
O894   C898    1.283   .     A
O895   C898    1.284   .     A
O896   C899    1.292   .     A
O897   C899    1.291   .     A
C898   C925    1.419   .     S
C899   C903    1.452   .     S
C900   C914    1.402   .     A
H901   C914    1.083   .     S
H902   C911    1.081   .     S
C903   C914    1.397   .     A
C903   C913    1.384   .     A
C904   C905    1.388   .     A
C904   H917    1.082   .     S
C904   C915    1.401   .     A
C905   C375    1.392   1_556 S
C905   H388    1.083   1_556 S
C906   H918    1.079   .     S
C907   C908    1.405   .     A
C907   C375    1.420   1_556 S
C907   C378    1.416   1_556 S
C908   C912    1.411   .     A
C908   C915    1.411   .     A
C909   C913    1.388   .     A
C910   C911    1.400   .     A
C910   C369    1.422   1_556 S
C910   C378    1.425   1_556 S
C911   C912    1.387   .     A
C912   H920    1.082   .     S
C913   H916    1.079   .     S
C921   C930    1.397   .     A
C921   H922    1.084   .     S
C921   C569    1.370   1_565 S
C923   C925    1.397   .     A
C923   H924    1.084   .     S
C925   C926    1.397   .     A
C926   H927    1.084   .     S
C928   C930    1.397   .     A
C928   H929    1.084   .     S
C928   C572    1.370   1_565 S
C931   N939    1.366   .     A
C931   H932    1.082   .     S
C931   C992    1.417   .     S
C933   H934    1.082   .     S
C933   N935    1.367   .     A
C933   C1049   1.417   1_455 S
N935   C936    1.371   .     A
C936   C940    1.437   .     S
C936   C1055   1.417   1_455 S
C937   N939    1.364   .     A
C937   H938    1.083   .     S
C937   C995    1.417   .     S
C940   N941    1.157   .     T
N942   O944    1.301   .     A
N942   C369    1.439   1_556 S
N942   O412    1.302   1_556 S
O945   Zn951   2.000   .     S
O945   C947    1.284   .     A
O946   C947    1.283   .     A
O946   Zn952   1.999   .     S
C947   C989    1.419   .     S
O948   Zn951   1.960   .     S
O948   C950    1.292   .     A
O949   Zn952   1.907   .     S
O949   C950    1.293   .     A
C950   C974    1.460   .     S
Zn951  O955    1.907   .     S
Zn951  O953    1.999   .     S
Zn951  N994    2.011   .     S
Zn952  O956    1.960   .     S
Zn952  N998    2.010   .     S
Zn952  O954    2.000   .     S
O953   C957    1.283   .     A
O954   C957    1.284   .     A
O955   C958    1.292   .     A
O956   C958    1.291   .     A
C957   C984    1.419   .     S
C958   C962    1.452   .     S
C959   C973    1.402   .     A
H960   C973    1.083   .     S
H961   C970    1.081   .     S
C962   C973    1.397   .     A
C962   C972    1.384   .     A
C963   C964    1.388   .     A
C963   H976    1.082   .     S
C963   C974    1.401   .     A
C964   C434    1.392   1_556 S
C964   H447    1.083   1_556 S
C965   H977    1.079   .     S
C966   C967    1.405   .     A
C966   C434    1.420   1_556 S
C966   C437    1.416   1_556 S
C967   C971    1.411   .     A
C967   C974    1.411   .     A
C968   C972    1.388   .     A
C969   C970    1.400   .     A
C969   C428    1.422   1_556 S
C969   C437    1.425   1_556 S
C970   C971    1.387   .     A
C971   H979    1.082   .     S
C972   H975    1.079   .     S
C980   C989    1.397   .     A
C980   H981    1.084   .     S
C980   C628    1.370   1_565 S
C982   C984    1.397   .     A
C982   H983    1.084   .     S
C984   C985    1.397   .     A
C985   H986    1.084   .     S
C987   C989    1.397   .     A
C987   H988    1.084   .     S
C987   C631    1.370   1_565 S
C990   N998    1.366   .     A
C990   H991    1.082   .     S
C990   C1051   1.417   .     S
C992   H993    1.082   .     S
C992   N994    1.367   .     A
N994   C995    1.371   .     A
C995   C999    1.437   .     S
C996   N998    1.364   .     A
C996   H997    1.083   .     S
C996   C1054   1.417   .     S
C999   N1000   1.157   .     T
N1001  O1003   1.301   .     A
N1001  C428    1.439   1_556 S
N1001  O471    1.302   1_556 S
O1004  Zn1010  2.000   .     S
O1004  C1006   1.284   .     A
O1005  C1006   1.283   .     A
O1005  Zn1011  1.999   .     S
C1006  C1048   1.419   .     S
O1007  Zn1010  1.960   .     S
O1007  C1009   1.292   .     A
O1008  Zn1011  1.907   .     S
O1008  C1009   1.293   .     A
C1009  C1033   1.460   .     S
Zn1010 O1014   1.907   .     S
Zn1010 O1012   1.999   .     S
Zn1010 N1053   2.011   .     S
Zn1011 O1015   1.960   .     S
Zn1011 N1057   2.010   .     S
Zn1011 O1013   2.000   .     S
O1012  C1016   1.283   .     A
O1013  C1016   1.284   .     A
O1014  C1017   1.292   .     A
O1015  C1017   1.291   .     A
C1016  C1043   1.419   .     S
C1017  C1021   1.452   .     S
C1018  C1032   1.402   .     A
H1019  C1032   1.083   .     S
H1020  C1029   1.081   .     S
C1021  C1032   1.397   .     A
C1021  C1031   1.384   .     A
C1022  C1023   1.388   .     A
C1022  H1035   1.082   .     S
C1022  C1033   1.401   .     A
C1023  C493    1.392   1_556 S
C1023  H506    1.083   1_556 S
C1024  H1036   1.079   .     S
C1025  C1026   1.405   .     A
C1025  C493    1.420   1_556 S
C1025  C496    1.416   1_556 S
C1026  C1030   1.411   .     A
C1026  C1033   1.411   .     A
C1027  C1031   1.388   .     A
C1028  C1029   1.400   .     A
C1028  C487    1.422   1_556 S
C1028  C496    1.425   1_556 S
C1029  C1030   1.387   .     A
C1030  H1038   1.082   .     S
C1031  H1034   1.079   .     S
C1039  C1048   1.397   .     A
C1039  H1040   1.084   .     S
C1039  C687    1.370   1_565 S
C1041  C1043   1.397   .     A
C1041  H1042   1.084   .     S
C1043  C1044   1.397   .     A
C1044  H1045   1.084   .     S
C1046  C1048   1.397   .     A
C1046  H1047   1.084   .     S
C1046  C690    1.370   1_565 S
C1049  N1057   1.366   .     A
C1049  H1050   1.082   .     S
C1049  C933    1.417   1_655 S
C1051  H1052   1.082   .     S
C1051  N1053   1.367   .     A
N1053  C1054   1.371   .     A
C1054  C1058   1.437   .     S
C1055  N1057   1.364   .     A
C1055  H1056   1.083   .     S
C1055  C936    1.417   1_655 S
C1058  N1059   1.157   .     T
N1060  O1062   1.301   .     A
N1060  C487    1.439   1_556 S
N1060  O530    1.302   1_556 S
