data_str_m3_o10_o16_pcu_sym.73
_audit_creation_date              2020-01-03
_audit_creation_method            'Materials Studio'
_symmetry_space_group_name_H-M    'P1'
_symmetry_Int_Tables_number       1
_symmetry_cell_setting            triclinic
loop_
_symmetry_equiv_pos_as_xyz
  x,y,z
_cell_length_a                    23.4747
_cell_length_b                    25.7242
_cell_length_c                    25.1253
_cell_angle_alpha                 92.4516
_cell_angle_beta                  103.1488
_cell_angle_gamma                 93.8800
loop_
_atom_site_label
_atom_site_type_symbol
_atom_site_fract_x
_atom_site_fract_y
_atom_site_fract_z
_atom_site_U_iso_or_equiv
_atom_site_adp_type
_atom_site_occupancy
C1     C     0.01479   0.26484   0.24871   0.00000  Uiso   1.00
C2     C     0.06147   0.19838   0.41056   0.00000  Uiso   1.00
C3     C     0.02261   0.31939   0.24826   0.00000  Uiso   1.00
C4     C     0.03802   0.17819   0.35340   0.00000  Uiso   1.00
C5     C     0.31104   0.01399   0.25262   0.00000  Uiso   1.00
C6     C     0.31864   0.06851   0.25158   0.00000  Uiso   1.00
C7     C     0.29609   0.16178   0.14581   0.00000  Uiso   1.00
C8     C     0.27954   0.13355   0.49549   0.00000  Uiso   1.00
C9     C     0.27320   0.15770   0.08739   0.00000  Uiso   1.00
C10    C     0.02457   0.21740   0.44224   0.00000  Uiso   1.00
C11    C     0.04469   0.22509   0.49882   0.00000  Uiso   1.00
C12    C     0.13908   0.19513   0.49173   0.00000  Uiso   1.00
C13    C     0.10008   0.21042   0.02403   0.00000  Uiso   1.00
C14    C     0.14376   0.28730   0.37347   0.00000  Uiso   1.00
C15    C     0.12140   0.19791   0.43494   0.00000  Uiso   1.00
C16    C     0.19468   0.17653   0.01248   0.00000  Uiso   1.00
C17    C     0.22766   0.15755   0.47582   0.00000  Uiso   1.00
C18    C     0.21211   0.16926   0.42121   0.00000  Uiso   1.00
C19    C     0.16500   0.19936   0.40465   0.00000  Uiso   1.00
C20    C     0.21897   0.17722   0.06790   0.00000  Uiso   1.00
C21    C     0.30270   0.13398   0.05160   0.00000  Uiso   1.00
H22    H     0.01077   0.11744   0.06683   0.00000  Uiso   1.00
H23    H     0.01579   0.23888   0.02340   0.00000  Uiso   1.00
H24    H     0.06503   0.00303   0.24425   0.00000  Uiso   1.00
H25    H     0.21039   0.24434   0.35979   0.00000  Uiso   1.00
H26    H     0.09533   0.28192   0.36592   0.00000  Uiso   1.00
H27    H     0.15424   0.31460   0.34332   0.00000  Uiso   1.00
H28    H     0.16256   0.30521   0.41537   0.00000  Uiso   1.00
H29    H     0.26866   0.33034   0.25675   0.00000  Uiso   1.00
H30    H     0.15701   0.11951   0.21710   0.00000  Uiso   1.00
H31    H     0.17609   0.21680   0.27502   0.00000  Uiso   1.00
H32    H     0.24064   0.16156   0.39406   0.00000  Uiso   1.00
H33    H     0.30401   0.11775   0.46765   0.00000  Uiso   1.00
H34    H     0.19753   0.19538   0.09657   0.00000  Uiso   1.00
H35    H     0.31376   0.22598   0.42348   0.00000  Uiso   1.00
H36    H     0.11068   0.21151   0.06813   0.00000  Uiso   1.00
N37    N     0.14493   0.15223   0.23543   0.00000  Uiso   1.00
N38    N     0.18840   0.18110   0.26458   0.00000  Uiso   1.00
N39    N     0.16860   0.23810   0.36617   0.00000  Uiso   1.00
O40    O     0.29769   0.24629   0.25358   0.00000  Uiso   1.00
O41    O     0.05742   0.23704   0.24423   0.00000  Uiso   1.00
O42    O     0.31490   0.17358   0.33380   0.00000  Uiso   1.00
O43    O     0.07463   0.16433   0.32446   0.00000  Uiso   1.00
O44    O     0.27592   0.09629   0.25577   0.00000  Uiso   1.00
O45    O     0.03565   0.08704   0.24643   0.00000  Uiso   1.00
O46    O     0.25870   0.16901   0.17554   0.00000  Uiso   1.00
O47    O     0.01843   0.15976   0.16620   0.00000  Uiso   1.00
Zn48   Zn    0.27119   0.17284   0.25624   0.00000  Uiso   1.00
Zn49   Zn    0.06214   0.16049   0.24377   0.00000  Uiso   1.00
C50    C     0.34813   0.26484   0.24871   0.00000  Uiso   1.00
C51    C     0.39480   0.19838   0.41056   0.00000  Uiso   1.00
C52    C     0.35594   0.31939   0.24826   0.00000  Uiso   1.00
C53    C     0.37136   0.17819   0.35340   0.00000  Uiso   1.00
C54    C     0.64437   0.01399   0.25262   0.00000  Uiso   1.00
C55    C     0.65198   0.06851   0.25158   0.00000  Uiso   1.00
C56    C     0.62943   0.16178   0.14581   0.00000  Uiso   1.00
C57    C     0.61287   0.13355   0.49549   0.00000  Uiso   1.00
C58    C     0.60653   0.15770   0.08739   0.00000  Uiso   1.00
C59    C     0.35791   0.21740   0.44224   0.00000  Uiso   1.00
C60    C     0.37802   0.22509   0.49882   0.00000  Uiso   1.00
C61    C     0.47241   0.19513   0.49173   0.00000  Uiso   1.00
C62    C     0.43341   0.21042   0.02403   0.00000  Uiso   1.00
C63    C     0.47710   0.28730   0.37347   0.00000  Uiso   1.00
C64    C     0.45474   0.19791   0.43494   0.00000  Uiso   1.00
C65    C     0.52801   0.17653   0.01248   0.00000  Uiso   1.00
C66    C     0.56099   0.15755   0.47582   0.00000  Uiso   1.00
C67    C     0.54545   0.16926   0.42121   0.00000  Uiso   1.00
C68    C     0.49833   0.19936   0.40465   0.00000  Uiso   1.00
C69    C     0.55231   0.17722   0.06790   0.00000  Uiso   1.00
C70    C     0.63603   0.13398   0.05160   0.00000  Uiso   1.00
H71    H     0.34411   0.11744   0.06683   0.00000  Uiso   1.00
H72    H     0.34912   0.23888   0.02340   0.00000  Uiso   1.00
H73    H     0.39837   0.00303   0.24425   0.00000  Uiso   1.00
H74    H     0.54372   0.24434   0.35979   0.00000  Uiso   1.00
H75    H     0.42866   0.28192   0.36592   0.00000  Uiso   1.00
H76    H     0.48758   0.31460   0.34332   0.00000  Uiso   1.00
H77    H     0.49589   0.30521   0.41537   0.00000  Uiso   1.00
H78    H     0.60200   0.33034   0.25675   0.00000  Uiso   1.00
H79    H     0.49034   0.11951   0.21710   0.00000  Uiso   1.00
H80    H     0.50943   0.21680   0.27502   0.00000  Uiso   1.00
H81    H     0.57398   0.16156   0.39406   0.00000  Uiso   1.00
H82    H     0.63735   0.11775   0.46765   0.00000  Uiso   1.00
H83    H     0.53086   0.19538   0.09657   0.00000  Uiso   1.00
H84    H     0.64709   0.22598   0.42348   0.00000  Uiso   1.00
H85    H     0.44401   0.21151   0.06813   0.00000  Uiso   1.00
N86    N     0.47827   0.15223   0.23543   0.00000  Uiso   1.00
N87    N     0.52173   0.18110   0.26458   0.00000  Uiso   1.00
N88    N     0.50193   0.23810   0.36617   0.00000  Uiso   1.00
O89    O     0.63102   0.24629   0.25358   0.00000  Uiso   1.00
O90    O     0.39075   0.23704   0.24423   0.00000  Uiso   1.00
O91    O     0.64823   0.17358   0.33380   0.00000  Uiso   1.00
O92    O     0.40796   0.16433   0.32446   0.00000  Uiso   1.00
O93    O     0.60925   0.09629   0.25577   0.00000  Uiso   1.00
O94    O     0.36898   0.08704   0.24643   0.00000  Uiso   1.00
O95    O     0.59204   0.16901   0.17554   0.00000  Uiso   1.00
O96    O     0.35177   0.15976   0.16620   0.00000  Uiso   1.00
Zn97   Zn    0.60453   0.17284   0.25624   0.00000  Uiso   1.00
Zn98   Zn    0.39547   0.16049   0.24377   0.00000  Uiso   1.00
C99    C     0.68146   0.26484   0.24871   0.00000  Uiso   1.00
C100   C     0.72814   0.19838   0.41056   0.00000  Uiso   1.00
C101   C     0.68928   0.31939   0.24826   0.00000  Uiso   1.00
C102   C     0.70469   0.17819   0.35340   0.00000  Uiso   1.00
C103   C     0.97771   0.01399   0.25262   0.00000  Uiso   1.00
C104   C     0.98531   0.06851   0.25158   0.00000  Uiso   1.00
C105   C     0.96276   0.16178   0.14581   0.00000  Uiso   1.00
C106   C     0.94620   0.13355   0.49549   0.00000  Uiso   1.00
C107   C     0.93986   0.15770   0.08739   0.00000  Uiso   1.00
C108   C     0.69124   0.21740   0.44224   0.00000  Uiso   1.00
C109   C     0.71135   0.22509   0.49882   0.00000  Uiso   1.00
C110   C     0.80575   0.19513   0.49173   0.00000  Uiso   1.00
C111   C     0.76674   0.21042   0.02403   0.00000  Uiso   1.00
C112   C     0.81043   0.28730   0.37347   0.00000  Uiso   1.00
C113   C     0.78807   0.19791   0.43494   0.00000  Uiso   1.00
C114   C     0.86135   0.17653   0.01248   0.00000  Uiso   1.00
C115   C     0.89432   0.15755   0.47582   0.00000  Uiso   1.00
C116   C     0.87878   0.16926   0.42121   0.00000  Uiso   1.00
C117   C     0.83166   0.19936   0.40465   0.00000  Uiso   1.00
C118   C     0.88564   0.17722   0.06790   0.00000  Uiso   1.00
C119   C     0.96936   0.13398   0.05160   0.00000  Uiso   1.00
H120   H     0.67744   0.11744   0.06683   0.00000  Uiso   1.00
H121   H     0.68245   0.23888   0.02340   0.00000  Uiso   1.00
H122   H     0.73170   0.00303   0.24425   0.00000  Uiso   1.00
H123   H     0.87705   0.24434   0.35979   0.00000  Uiso   1.00
H124   H     0.76199   0.28192   0.36592   0.00000  Uiso   1.00
H125   H     0.82091   0.31460   0.34332   0.00000  Uiso   1.00
H126   H     0.82922   0.30521   0.41537   0.00000  Uiso   1.00
H127   H     0.93533   0.33034   0.25675   0.00000  Uiso   1.00
H128   H     0.82368   0.11951   0.21710   0.00000  Uiso   1.00
H129   H     0.84276   0.21680   0.27502   0.00000  Uiso   1.00
H130   H     0.90731   0.16156   0.39406   0.00000  Uiso   1.00
H131   H     0.97068   0.11775   0.46765   0.00000  Uiso   1.00
H132   H     0.86420   0.19538   0.09657   0.00000  Uiso   1.00
H133   H     0.98043   0.22598   0.42348   0.00000  Uiso   1.00
H134   H     0.77735   0.21151   0.06813   0.00000  Uiso   1.00
N135   N     0.81160   0.15223   0.23543   0.00000  Uiso   1.00
N136   N     0.85507   0.18110   0.26458   0.00000  Uiso   1.00
N137   N     0.83527   0.23810   0.36617   0.00000  Uiso   1.00
O138   O     0.96435   0.24629   0.25358   0.00000  Uiso   1.00
O139   O     0.72408   0.23704   0.24423   0.00000  Uiso   1.00
O140   O     0.98157   0.17358   0.33380   0.00000  Uiso   1.00
O141   O     0.74130   0.16433   0.32446   0.00000  Uiso   1.00
O142   O     0.94258   0.09629   0.25577   0.00000  Uiso   1.00
O143   O     0.70231   0.08704   0.24643   0.00000  Uiso   1.00
O144   O     0.92537   0.16901   0.17554   0.00000  Uiso   1.00
O145   O     0.68510   0.15976   0.16620   0.00000  Uiso   1.00
Zn146  Zn    0.93786   0.17284   0.25624   0.00000  Uiso   1.00
Zn147  Zn    0.72881   0.16049   0.24377   0.00000  Uiso   1.00
C148   C     0.01479   0.59817   0.24871   0.00000  Uiso   1.00
C149   C     0.06147   0.53172   0.41056   0.00000  Uiso   1.00
C150   C     0.02261   0.65272   0.24826   0.00000  Uiso   1.00
C151   C     0.03802   0.51152   0.35340   0.00000  Uiso   1.00
C152   C     0.31104   0.34732   0.25262   0.00000  Uiso   1.00
C153   C     0.31864   0.40184   0.25158   0.00000  Uiso   1.00
C154   C     0.29609   0.49511   0.14581   0.00000  Uiso   1.00
C155   C     0.27954   0.46688   0.49549   0.00000  Uiso   1.00
C156   C     0.27320   0.49104   0.08739   0.00000  Uiso   1.00
C157   C     0.02457   0.55073   0.44224   0.00000  Uiso   1.00
C158   C     0.04469   0.55842   0.49882   0.00000  Uiso   1.00
C159   C     0.13908   0.52847   0.49173   0.00000  Uiso   1.00
C160   C     0.10008   0.54375   0.02403   0.00000  Uiso   1.00
C161   C     0.14376   0.62064   0.37347   0.00000  Uiso   1.00
C162   C     0.12140   0.53124   0.43494   0.00000  Uiso   1.00
C163   C     0.19468   0.50986   0.01248   0.00000  Uiso   1.00
C164   C     0.22766   0.49088   0.47582   0.00000  Uiso   1.00
C165   C     0.21211   0.50259   0.42121   0.00000  Uiso   1.00
C166   C     0.16500   0.53270   0.40465   0.00000  Uiso   1.00
C167   C     0.21897   0.51056   0.06790   0.00000  Uiso   1.00
C168   C     0.30270   0.46731   0.05160   0.00000  Uiso   1.00
H169   H     0.01077   0.45077   0.06683   0.00000  Uiso   1.00
H170   H     0.01579   0.57222   0.02340   0.00000  Uiso   1.00
H171   H     0.06503   0.33636   0.24425   0.00000  Uiso   1.00
H172   H     0.21039   0.57768   0.35979   0.00000  Uiso   1.00
H173   H     0.09533   0.61525   0.36592   0.00000  Uiso   1.00
H174   H     0.15424   0.64793   0.34332   0.00000  Uiso   1.00
H175   H     0.16256   0.63855   0.41537   0.00000  Uiso   1.00
H176   H     0.26866   0.66368   0.25675   0.00000  Uiso   1.00
H177   H     0.15701   0.45284   0.21710   0.00000  Uiso   1.00
H178   H     0.17609   0.55013   0.27502   0.00000  Uiso   1.00
H179   H     0.24064   0.49489   0.39406   0.00000  Uiso   1.00
H180   H     0.30401   0.45108   0.46765   0.00000  Uiso   1.00
H181   H     0.19753   0.52872   0.09657   0.00000  Uiso   1.00
H182   H     0.31376   0.55931   0.42348   0.00000  Uiso   1.00
H183   H     0.11068   0.54484   0.06813   0.00000  Uiso   1.00
N184   N     0.14493   0.48556   0.23543   0.00000  Uiso   1.00
N185   N     0.18840   0.51444   0.26458   0.00000  Uiso   1.00
N186   N     0.16860   0.57144   0.36617   0.00000  Uiso   1.00
O187   O     0.29769   0.57963   0.25358   0.00000  Uiso   1.00
O188   O     0.05742   0.57038   0.24423   0.00000  Uiso   1.00
O189   O     0.31490   0.50691   0.33380   0.00000  Uiso   1.00
O190   O     0.07463   0.49766   0.32446   0.00000  Uiso   1.00
O191   O     0.27592   0.42962   0.25577   0.00000  Uiso   1.00
O192   O     0.03565   0.42037   0.24643   0.00000  Uiso   1.00
O193   O     0.25870   0.50234   0.17554   0.00000  Uiso   1.00
O194   O     0.01843   0.49309   0.16620   0.00000  Uiso   1.00
Zn195  Zn    0.27119   0.50618   0.25624   0.00000  Uiso   1.00
Zn196  Zn    0.06214   0.49382   0.24377   0.00000  Uiso   1.00
C197   C     0.34813   0.59817   0.24871   0.00000  Uiso   1.00
C198   C     0.39480   0.53172   0.41056   0.00000  Uiso   1.00
C199   C     0.35594   0.65272   0.24826   0.00000  Uiso   1.00
C200   C     0.37136   0.51152   0.35340   0.00000  Uiso   1.00
C201   C     0.64437   0.34732   0.25262   0.00000  Uiso   1.00
C202   C     0.65198   0.40184   0.25158   0.00000  Uiso   1.00
C203   C     0.62943   0.49511   0.14581   0.00000  Uiso   1.00
C204   C     0.61287   0.46688   0.49549   0.00000  Uiso   1.00
C205   C     0.60653   0.49104   0.08739   0.00000  Uiso   1.00
C206   C     0.35791   0.55073   0.44224   0.00000  Uiso   1.00
C207   C     0.37802   0.55842   0.49882   0.00000  Uiso   1.00
C208   C     0.47241   0.52847   0.49173   0.00000  Uiso   1.00
C209   C     0.43341   0.54375   0.02403   0.00000  Uiso   1.00
C210   C     0.47710   0.62064   0.37347   0.00000  Uiso   1.00
C211   C     0.45474   0.53124   0.43494   0.00000  Uiso   1.00
C212   C     0.52801   0.50986   0.01248   0.00000  Uiso   1.00
C213   C     0.56099   0.49088   0.47582   0.00000  Uiso   1.00
C214   C     0.54545   0.50259   0.42121   0.00000  Uiso   1.00
C215   C     0.49833   0.53270   0.40465   0.00000  Uiso   1.00
C216   C     0.55231   0.51056   0.06790   0.00000  Uiso   1.00
C217   C     0.63603   0.46731   0.05160   0.00000  Uiso   1.00
H218   H     0.34411   0.45077   0.06683   0.00000  Uiso   1.00
H219   H     0.34912   0.57222   0.02340   0.00000  Uiso   1.00
H220   H     0.39837   0.33636   0.24425   0.00000  Uiso   1.00
H221   H     0.54372   0.57768   0.35979   0.00000  Uiso   1.00
H222   H     0.42866   0.61525   0.36592   0.00000  Uiso   1.00
H223   H     0.48758   0.64793   0.34332   0.00000  Uiso   1.00
H224   H     0.49589   0.63855   0.41537   0.00000  Uiso   1.00
H225   H     0.60200   0.66368   0.25675   0.00000  Uiso   1.00
H226   H     0.49034   0.45284   0.21710   0.00000  Uiso   1.00
H227   H     0.50943   0.55013   0.27502   0.00000  Uiso   1.00
H228   H     0.57398   0.49489   0.39406   0.00000  Uiso   1.00
H229   H     0.63735   0.45108   0.46765   0.00000  Uiso   1.00
H230   H     0.53086   0.52872   0.09657   0.00000  Uiso   1.00
H231   H     0.64709   0.55931   0.42348   0.00000  Uiso   1.00
H232   H     0.44401   0.54484   0.06813   0.00000  Uiso   1.00
N233   N     0.47827   0.48556   0.23543   0.00000  Uiso   1.00
N234   N     0.52173   0.51444   0.26458   0.00000  Uiso   1.00
N235   N     0.50193   0.57144   0.36617   0.00000  Uiso   1.00
O236   O     0.63102   0.57963   0.25358   0.00000  Uiso   1.00
O237   O     0.39075   0.57038   0.24423   0.00000  Uiso   1.00
O238   O     0.64823   0.50691   0.33380   0.00000  Uiso   1.00
O239   O     0.40796   0.49766   0.32446   0.00000  Uiso   1.00
O240   O     0.60925   0.42962   0.25577   0.00000  Uiso   1.00
O241   O     0.36898   0.42037   0.24643   0.00000  Uiso   1.00
O242   O     0.59204   0.50234   0.17554   0.00000  Uiso   1.00
O243   O     0.35177   0.49309   0.16620   0.00000  Uiso   1.00
Zn244  Zn    0.60453   0.50618   0.25624   0.00000  Uiso   1.00
Zn245  Zn    0.39547   0.49382   0.24377   0.00000  Uiso   1.00
C246   C     0.68146   0.59817   0.24871   0.00000  Uiso   1.00
C247   C     0.72814   0.53172   0.41056   0.00000  Uiso   1.00
C248   C     0.68928   0.65272   0.24826   0.00000  Uiso   1.00
C249   C     0.70469   0.51152   0.35340   0.00000  Uiso   1.00
C250   C     0.97771   0.34732   0.25262   0.00000  Uiso   1.00
C251   C     0.98531   0.40184   0.25158   0.00000  Uiso   1.00
C252   C     0.96276   0.49511   0.14581   0.00000  Uiso   1.00
C253   C     0.94620   0.46688   0.49549   0.00000  Uiso   1.00
C254   C     0.93986   0.49104   0.08739   0.00000  Uiso   1.00
C255   C     0.69124   0.55073   0.44224   0.00000  Uiso   1.00
C256   C     0.71135   0.55842   0.49882   0.00000  Uiso   1.00
C257   C     0.80575   0.52847   0.49173   0.00000  Uiso   1.00
C258   C     0.76674   0.54375   0.02403   0.00000  Uiso   1.00
C259   C     0.81043   0.62064   0.37347   0.00000  Uiso   1.00
C260   C     0.78807   0.53124   0.43494   0.00000  Uiso   1.00
C261   C     0.86135   0.50986   0.01248   0.00000  Uiso   1.00
C262   C     0.89432   0.49088   0.47582   0.00000  Uiso   1.00
C263   C     0.87878   0.50259   0.42121   0.00000  Uiso   1.00
C264   C     0.83166   0.53270   0.40465   0.00000  Uiso   1.00
C265   C     0.88564   0.51056   0.06790   0.00000  Uiso   1.00
C266   C     0.96936   0.46731   0.05160   0.00000  Uiso   1.00
H267   H     0.67744   0.45077   0.06683   0.00000  Uiso   1.00
H268   H     0.68245   0.57222   0.02340   0.00000  Uiso   1.00
H269   H     0.73170   0.33636   0.24425   0.00000  Uiso   1.00
H270   H     0.87705   0.57768   0.35979   0.00000  Uiso   1.00
H271   H     0.76199   0.61525   0.36592   0.00000  Uiso   1.00
H272   H     0.82091   0.64793   0.34332   0.00000  Uiso   1.00
H273   H     0.82922   0.63855   0.41537   0.00000  Uiso   1.00
H274   H     0.93533   0.66368   0.25675   0.00000  Uiso   1.00
H275   H     0.82368   0.45284   0.21710   0.00000  Uiso   1.00
H276   H     0.84276   0.55013   0.27502   0.00000  Uiso   1.00
H277   H     0.90731   0.49489   0.39406   0.00000  Uiso   1.00
H278   H     0.97068   0.45108   0.46765   0.00000  Uiso   1.00
H279   H     0.86420   0.52872   0.09657   0.00000  Uiso   1.00
H280   H     0.98043   0.55931   0.42348   0.00000  Uiso   1.00
H281   H     0.77735   0.54484   0.06813   0.00000  Uiso   1.00
N282   N     0.81160   0.48556   0.23543   0.00000  Uiso   1.00
N283   N     0.85507   0.51444   0.26458   0.00000  Uiso   1.00
N284   N     0.83527   0.57144   0.36617   0.00000  Uiso   1.00
O285   O     0.96435   0.57963   0.25358   0.00000  Uiso   1.00
O286   O     0.72408   0.57038   0.24423   0.00000  Uiso   1.00
O287   O     0.98157   0.50691   0.33380   0.00000  Uiso   1.00
O288   O     0.74130   0.49766   0.32446   0.00000  Uiso   1.00
O289   O     0.94258   0.42962   0.25577   0.00000  Uiso   1.00
O290   O     0.70231   0.42037   0.24643   0.00000  Uiso   1.00
O291   O     0.92537   0.50234   0.17554   0.00000  Uiso   1.00
O292   O     0.68510   0.49309   0.16620   0.00000  Uiso   1.00
Zn293  Zn    0.93786   0.50618   0.25624   0.00000  Uiso   1.00
Zn294  Zn    0.72881   0.49382   0.24377   0.00000  Uiso   1.00
C295   C     0.01479   0.93151   0.24871   0.00000  Uiso   1.00
C296   C     0.06147   0.86505   0.41056   0.00000  Uiso   1.00
C297   C     0.02261   0.98605   0.24826   0.00000  Uiso   1.00
C298   C     0.03802   0.84485   0.35340   0.00000  Uiso   1.00
C299   C     0.31104   0.68066   0.25262   0.00000  Uiso   1.00
C300   C     0.31864   0.73518   0.25158   0.00000  Uiso   1.00
C301   C     0.29609   0.82845   0.14581   0.00000  Uiso   1.00
C302   C     0.27954   0.80022   0.49549   0.00000  Uiso   1.00
C303   C     0.27320   0.82437   0.08739   0.00000  Uiso   1.00
C304   C     0.02457   0.88407   0.44224   0.00000  Uiso   1.00
C305   C     0.04469   0.89176   0.49882   0.00000  Uiso   1.00
C306   C     0.13908   0.86180   0.49173   0.00000  Uiso   1.00
C307   C     0.10008   0.87709   0.02403   0.00000  Uiso   1.00
C308   C     0.14376   0.95397   0.37347   0.00000  Uiso   1.00
C309   C     0.12140   0.86457   0.43494   0.00000  Uiso   1.00
C310   C     0.19468   0.84319   0.01248   0.00000  Uiso   1.00
C311   C     0.22766   0.82422   0.47582   0.00000  Uiso   1.00
C312   C     0.21211   0.83593   0.42121   0.00000  Uiso   1.00
C313   C     0.16500   0.86603   0.40465   0.00000  Uiso   1.00
C314   C     0.21897   0.84389   0.06790   0.00000  Uiso   1.00
C315   C     0.30270   0.80065   0.05160   0.00000  Uiso   1.00
H316   H     0.01077   0.78411   0.06683   0.00000  Uiso   1.00
H317   H     0.01579   0.90555   0.02340   0.00000  Uiso   1.00
H318   H     0.06503   0.66970   0.24425   0.00000  Uiso   1.00
H319   H     0.21039   0.91101   0.35979   0.00000  Uiso   1.00
H320   H     0.09533   0.94859   0.36592   0.00000  Uiso   1.00
H321   H     0.15424   0.98127   0.34332   0.00000  Uiso   1.00
H322   H     0.16256   0.97188   0.41537   0.00000  Uiso   1.00
H323   H     0.26866   0.99701   0.25675   0.00000  Uiso   1.00
H324   H     0.15701   0.78617   0.21710   0.00000  Uiso   1.00
H325   H     0.17609   0.88346   0.27502   0.00000  Uiso   1.00
H326   H     0.24064   0.82822   0.39406   0.00000  Uiso   1.00
H327   H     0.30401   0.78442   0.46765   0.00000  Uiso   1.00
H328   H     0.19753   0.86205   0.09657   0.00000  Uiso   1.00
H329   H     0.31376   0.89264   0.42348   0.00000  Uiso   1.00
H330   H     0.11068   0.87818   0.06813   0.00000  Uiso   1.00
N331   N     0.14493   0.81890   0.23543   0.00000  Uiso   1.00
N332   N     0.18840   0.84777   0.26458   0.00000  Uiso   1.00
N333   N     0.16860   0.90477   0.36617   0.00000  Uiso   1.00
O334   O     0.29769   0.91296   0.25358   0.00000  Uiso   1.00
O335   O     0.05742   0.90371   0.24423   0.00000  Uiso   1.00
O336   O     0.31490   0.84024   0.33380   0.00000  Uiso   1.00
O337   O     0.07463   0.83099   0.32446   0.00000  Uiso   1.00
O338   O     0.27592   0.76296   0.25577   0.00000  Uiso   1.00
O339   O     0.03565   0.75371   0.24643   0.00000  Uiso   1.00
O340   O     0.25870   0.83567   0.17554   0.00000  Uiso   1.00
O341   O     0.01843   0.82642   0.16620   0.00000  Uiso   1.00
Zn342  Zn    0.27119   0.83951   0.25624   0.00000  Uiso   1.00
Zn343  Zn    0.06214   0.82716   0.24377   0.00000  Uiso   1.00
C344   C     0.34813   0.93151   0.24871   0.00000  Uiso   1.00
C345   C     0.39480   0.86505   0.41056   0.00000  Uiso   1.00
C346   C     0.35594   0.98605   0.24826   0.00000  Uiso   1.00
C347   C     0.37136   0.84485   0.35340   0.00000  Uiso   1.00
C348   C     0.64437   0.68066   0.25262   0.00000  Uiso   1.00
C349   C     0.65198   0.73518   0.25158   0.00000  Uiso   1.00
C350   C     0.62943   0.82845   0.14581   0.00000  Uiso   1.00
C351   C     0.61287   0.80022   0.49549   0.00000  Uiso   1.00
C352   C     0.60653   0.82437   0.08739   0.00000  Uiso   1.00
C353   C     0.35791   0.88407   0.44224   0.00000  Uiso   1.00
C354   C     0.37802   0.89176   0.49882   0.00000  Uiso   1.00
C355   C     0.47241   0.86180   0.49173   0.00000  Uiso   1.00
C356   C     0.43341   0.87709   0.02403   0.00000  Uiso   1.00
C357   C     0.47710   0.95397   0.37347   0.00000  Uiso   1.00
C358   C     0.45474   0.86457   0.43494   0.00000  Uiso   1.00
C359   C     0.52801   0.84319   0.01248   0.00000  Uiso   1.00
C360   C     0.56099   0.82422   0.47582   0.00000  Uiso   1.00
C361   C     0.54545   0.83593   0.42121   0.00000  Uiso   1.00
C362   C     0.49833   0.86603   0.40465   0.00000  Uiso   1.00
C363   C     0.55231   0.84389   0.06790   0.00000  Uiso   1.00
C364   C     0.63603   0.80065   0.05160   0.00000  Uiso   1.00
H365   H     0.34411   0.78411   0.06683   0.00000  Uiso   1.00
H366   H     0.34912   0.90555   0.02340   0.00000  Uiso   1.00
H367   H     0.39837   0.66970   0.24425   0.00000  Uiso   1.00
H368   H     0.54372   0.91101   0.35979   0.00000  Uiso   1.00
H369   H     0.42866   0.94859   0.36592   0.00000  Uiso   1.00
H370   H     0.48758   0.98127   0.34332   0.00000  Uiso   1.00
H371   H     0.49589   0.97188   0.41537   0.00000  Uiso   1.00
H372   H     0.60200   0.99701   0.25675   0.00000  Uiso   1.00
H373   H     0.49034   0.78617   0.21710   0.00000  Uiso   1.00
H374   H     0.50943   0.88346   0.27502   0.00000  Uiso   1.00
H375   H     0.57398   0.82822   0.39406   0.00000  Uiso   1.00
H376   H     0.63735   0.78442   0.46765   0.00000  Uiso   1.00
H377   H     0.53086   0.86205   0.09657   0.00000  Uiso   1.00
H378   H     0.64709   0.89264   0.42348   0.00000  Uiso   1.00
H379   H     0.44401   0.87818   0.06813   0.00000  Uiso   1.00
N380   N     0.47827   0.81890   0.23543   0.00000  Uiso   1.00
N381   N     0.52173   0.84777   0.26458   0.00000  Uiso   1.00
N382   N     0.50193   0.90477   0.36617   0.00000  Uiso   1.00
O383   O     0.63102   0.91296   0.25358   0.00000  Uiso   1.00
O384   O     0.39075   0.90371   0.24423   0.00000  Uiso   1.00
O385   O     0.64823   0.84024   0.33380   0.00000  Uiso   1.00
O386   O     0.40796   0.83099   0.32446   0.00000  Uiso   1.00
O387   O     0.60925   0.76296   0.25577   0.00000  Uiso   1.00
O388   O     0.36898   0.75371   0.24643   0.00000  Uiso   1.00
O389   O     0.59204   0.83567   0.17554   0.00000  Uiso   1.00
O390   O     0.35177   0.82642   0.16620   0.00000  Uiso   1.00
Zn391  Zn    0.60453   0.83951   0.25624   0.00000  Uiso   1.00
Zn392  Zn    0.39547   0.82716   0.24377   0.00000  Uiso   1.00
C393   C     0.68146   0.93151   0.24871   0.00000  Uiso   1.00
C394   C     0.72814   0.86505   0.41056   0.00000  Uiso   1.00
C395   C     0.68928   0.98605   0.24826   0.00000  Uiso   1.00
C396   C     0.70469   0.84485   0.35340   0.00000  Uiso   1.00
C397   C     0.97771   0.68066   0.25262   0.00000  Uiso   1.00
C398   C     0.98531   0.73518   0.25158   0.00000  Uiso   1.00
C399   C     0.96276   0.82845   0.14581   0.00000  Uiso   1.00
C400   C     0.94620   0.80022   0.49549   0.00000  Uiso   1.00
C401   C     0.93986   0.82437   0.08739   0.00000  Uiso   1.00
C402   C     0.69124   0.88407   0.44224   0.00000  Uiso   1.00
C403   C     0.71135   0.89176   0.49882   0.00000  Uiso   1.00
C404   C     0.80575   0.86180   0.49173   0.00000  Uiso   1.00
C405   C     0.76674   0.87709   0.02403   0.00000  Uiso   1.00
C406   C     0.81043   0.95397   0.37347   0.00000  Uiso   1.00
C407   C     0.78807   0.86457   0.43494   0.00000  Uiso   1.00
C408   C     0.86135   0.84319   0.01248   0.00000  Uiso   1.00
C409   C     0.89432   0.82422   0.47582   0.00000  Uiso   1.00
C410   C     0.87878   0.83593   0.42121   0.00000  Uiso   1.00
C411   C     0.83166   0.86603   0.40465   0.00000  Uiso   1.00
C412   C     0.88564   0.84389   0.06790   0.00000  Uiso   1.00
C413   C     0.96936   0.80065   0.05160   0.00000  Uiso   1.00
H414   H     0.67744   0.78411   0.06683   0.00000  Uiso   1.00
H415   H     0.68245   0.90555   0.02340   0.00000  Uiso   1.00
H416   H     0.73170   0.66970   0.24425   0.00000  Uiso   1.00
H417   H     0.87705   0.91101   0.35979   0.00000  Uiso   1.00
H418   H     0.76199   0.94859   0.36592   0.00000  Uiso   1.00
H419   H     0.82091   0.98127   0.34332   0.00000  Uiso   1.00
H420   H     0.82922   0.97188   0.41537   0.00000  Uiso   1.00
H421   H     0.93533   0.99701   0.25675   0.00000  Uiso   1.00
H422   H     0.82368   0.78617   0.21710   0.00000  Uiso   1.00
H423   H     0.84276   0.88346   0.27502   0.00000  Uiso   1.00
H424   H     0.90731   0.82822   0.39406   0.00000  Uiso   1.00
H425   H     0.97068   0.78442   0.46765   0.00000  Uiso   1.00
H426   H     0.86420   0.86205   0.09657   0.00000  Uiso   1.00
H427   H     0.98043   0.89264   0.42348   0.00000  Uiso   1.00
H428   H     0.77735   0.87818   0.06813   0.00000  Uiso   1.00
N429   N     0.81160   0.81890   0.23543   0.00000  Uiso   1.00
N430   N     0.85507   0.84777   0.26458   0.00000  Uiso   1.00
N431   N     0.83527   0.90477   0.36617   0.00000  Uiso   1.00
O432   O     0.96435   0.91296   0.25358   0.00000  Uiso   1.00
O433   O     0.72408   0.90371   0.24423   0.00000  Uiso   1.00
O434   O     0.98157   0.84024   0.33380   0.00000  Uiso   1.00
O435   O     0.74130   0.83099   0.32446   0.00000  Uiso   1.00
O436   O     0.94258   0.76296   0.25577   0.00000  Uiso   1.00
O437   O     0.70231   0.75371   0.24643   0.00000  Uiso   1.00
O438   O     0.92537   0.83567   0.17554   0.00000  Uiso   1.00
O439   O     0.68510   0.82642   0.16620   0.00000  Uiso   1.00
Zn440  Zn    0.93786   0.83951   0.25624   0.00000  Uiso   1.00
Zn441  Zn    0.72881   0.82716   0.24377   0.00000  Uiso   1.00
C442   C     0.01479   0.26484   0.74871   0.00000  Uiso   1.00
C443   C     0.06147   0.19838   0.91056   0.00000  Uiso   1.00
C444   C     0.02261   0.31939   0.74826   0.00000  Uiso   1.00
C445   C     0.03802   0.17819   0.85340   0.00000  Uiso   1.00
C446   C     0.31104   0.01399   0.75262   0.00000  Uiso   1.00
C447   C     0.31864   0.06851   0.75158   0.00000  Uiso   1.00
C448   C     0.29609   0.16178   0.64581   0.00000  Uiso   1.00
C449   C     0.27954   0.13355   0.99549   0.00000  Uiso   1.00
C450   C     0.27320   0.15770   0.58739   0.00000  Uiso   1.00
C451   C     0.02457   0.21740   0.94224   0.00000  Uiso   1.00
C452   C     0.04469   0.22509   0.99882   0.00000  Uiso   1.00
C453   C     0.13908   0.19513   0.99173   0.00000  Uiso   1.00
C454   C     0.10008   0.21042   0.52403   0.00000  Uiso   1.00
C455   C     0.14376   0.28730   0.87347   0.00000  Uiso   1.00
C456   C     0.12140   0.19791   0.93494   0.00000  Uiso   1.00
C457   C     0.19468   0.17653   0.51248   0.00000  Uiso   1.00
C458   C     0.22766   0.15755   0.97582   0.00000  Uiso   1.00
C459   C     0.21211   0.16926   0.92121   0.00000  Uiso   1.00
C460   C     0.16500   0.19936   0.90465   0.00000  Uiso   1.00
C461   C     0.21897   0.17722   0.56790   0.00000  Uiso   1.00
C462   C     0.30270   0.13398   0.55160   0.00000  Uiso   1.00
H463   H     0.01077   0.11744   0.56683   0.00000  Uiso   1.00
H464   H     0.01579   0.23888   0.52340   0.00000  Uiso   1.00
H465   H     0.06503   0.00303   0.74425   0.00000  Uiso   1.00
H466   H     0.21039   0.24434   0.85979   0.00000  Uiso   1.00
H467   H     0.09533   0.28192   0.86592   0.00000  Uiso   1.00
H468   H     0.15424   0.31460   0.84332   0.00000  Uiso   1.00
H469   H     0.16256   0.30521   0.91537   0.00000  Uiso   1.00
H470   H     0.26866   0.33034   0.75675   0.00000  Uiso   1.00
H471   H     0.15701   0.11951   0.71710   0.00000  Uiso   1.00
H472   H     0.17609   0.21680   0.77502   0.00000  Uiso   1.00
H473   H     0.24064   0.16156   0.89406   0.00000  Uiso   1.00
H474   H     0.30401   0.11775   0.96765   0.00000  Uiso   1.00
H475   H     0.19753   0.19538   0.59657   0.00000  Uiso   1.00
H476   H     0.31376   0.22598   0.92348   0.00000  Uiso   1.00
H477   H     0.11068   0.21151   0.56813   0.00000  Uiso   1.00
N478   N     0.14493   0.15223   0.73543   0.00000  Uiso   1.00
N479   N     0.18840   0.18110   0.76458   0.00000  Uiso   1.00
N480   N     0.16860   0.23810   0.86617   0.00000  Uiso   1.00
O481   O     0.29769   0.24629   0.75358   0.00000  Uiso   1.00
O482   O     0.05742   0.23704   0.74423   0.00000  Uiso   1.00
O483   O     0.31490   0.17358   0.83380   0.00000  Uiso   1.00
O484   O     0.07463   0.16433   0.82446   0.00000  Uiso   1.00
O485   O     0.27592   0.09629   0.75577   0.00000  Uiso   1.00
O486   O     0.03565   0.08704   0.74643   0.00000  Uiso   1.00
O487   O     0.25870   0.16901   0.67554   0.00000  Uiso   1.00
O488   O     0.01843   0.15976   0.66620   0.00000  Uiso   1.00
Zn489  Zn    0.27119   0.17284   0.75624   0.00000  Uiso   1.00
Zn490  Zn    0.06214   0.16049   0.74377   0.00000  Uiso   1.00
C491   C     0.34813   0.26484   0.74871   0.00000  Uiso   1.00
C492   C     0.39480   0.19838   0.91056   0.00000  Uiso   1.00
C493   C     0.35594   0.31939   0.74826   0.00000  Uiso   1.00
C494   C     0.37136   0.17819   0.85340   0.00000  Uiso   1.00
C495   C     0.64437   0.01399   0.75262   0.00000  Uiso   1.00
C496   C     0.65198   0.06851   0.75158   0.00000  Uiso   1.00
C497   C     0.62943   0.16178   0.64581   0.00000  Uiso   1.00
C498   C     0.61287   0.13355   0.99549   0.00000  Uiso   1.00
C499   C     0.60653   0.15770   0.58739   0.00000  Uiso   1.00
C500   C     0.35791   0.21740   0.94224   0.00000  Uiso   1.00
C501   C     0.37802   0.22509   0.99882   0.00000  Uiso   1.00
C502   C     0.47241   0.19513   0.99173   0.00000  Uiso   1.00
C503   C     0.43341   0.21042   0.52403   0.00000  Uiso   1.00
C504   C     0.47710   0.28730   0.87347   0.00000  Uiso   1.00
C505   C     0.45474   0.19791   0.93494   0.00000  Uiso   1.00
C506   C     0.52801   0.17653   0.51248   0.00000  Uiso   1.00
C507   C     0.56099   0.15755   0.97582   0.00000  Uiso   1.00
C508   C     0.54545   0.16926   0.92121   0.00000  Uiso   1.00
C509   C     0.49833   0.19936   0.90465   0.00000  Uiso   1.00
C510   C     0.55231   0.17722   0.56790   0.00000  Uiso   1.00
C511   C     0.63603   0.13398   0.55160   0.00000  Uiso   1.00
H512   H     0.34411   0.11744   0.56683   0.00000  Uiso   1.00
H513   H     0.34912   0.23888   0.52340   0.00000  Uiso   1.00
H514   H     0.39837   0.00303   0.74425   0.00000  Uiso   1.00
H515   H     0.54372   0.24434   0.85979   0.00000  Uiso   1.00
H516   H     0.42866   0.28192   0.86592   0.00000  Uiso   1.00
H517   H     0.48758   0.31460   0.84332   0.00000  Uiso   1.00
H518   H     0.49589   0.30521   0.91537   0.00000  Uiso   1.00
H519   H     0.60200   0.33034   0.75675   0.00000  Uiso   1.00
H520   H     0.49034   0.11951   0.71710   0.00000  Uiso   1.00
H521   H     0.50943   0.21680   0.77502   0.00000  Uiso   1.00
H522   H     0.57398   0.16156   0.89406   0.00000  Uiso   1.00
H523   H     0.63735   0.11775   0.96765   0.00000  Uiso   1.00
H524   H     0.53086   0.19538   0.59657   0.00000  Uiso   1.00
H525   H     0.64709   0.22598   0.92348   0.00000  Uiso   1.00
H526   H     0.44401   0.21151   0.56813   0.00000  Uiso   1.00
N527   N     0.47827   0.15223   0.73543   0.00000  Uiso   1.00
N528   N     0.52173   0.18110   0.76458   0.00000  Uiso   1.00
N529   N     0.50193   0.23810   0.86617   0.00000  Uiso   1.00
O530   O     0.63102   0.24629   0.75358   0.00000  Uiso   1.00
O531   O     0.39075   0.23704   0.74423   0.00000  Uiso   1.00
O532   O     0.64823   0.17358   0.83380   0.00000  Uiso   1.00
O533   O     0.40796   0.16433   0.82446   0.00000  Uiso   1.00
O534   O     0.60925   0.09629   0.75577   0.00000  Uiso   1.00
O535   O     0.36898   0.08704   0.74643   0.00000  Uiso   1.00
O536   O     0.59204   0.16901   0.67554   0.00000  Uiso   1.00
O537   O     0.35177   0.15976   0.66620   0.00000  Uiso   1.00
Zn538  Zn    0.60453   0.17284   0.75624   0.00000  Uiso   1.00
Zn539  Zn    0.39547   0.16049   0.74377   0.00000  Uiso   1.00
C540   C     0.68146   0.26484   0.74871   0.00000  Uiso   1.00
C541   C     0.72814   0.19838   0.91056   0.00000  Uiso   1.00
C542   C     0.68928   0.31939   0.74826   0.00000  Uiso   1.00
C543   C     0.70469   0.17819   0.85340   0.00000  Uiso   1.00
C544   C     0.97771   0.01399   0.75262   0.00000  Uiso   1.00
C545   C     0.98531   0.06851   0.75158   0.00000  Uiso   1.00
C546   C     0.96276   0.16178   0.64581   0.00000  Uiso   1.00
C547   C     0.94620   0.13355   0.99549   0.00000  Uiso   1.00
C548   C     0.93986   0.15770   0.58739   0.00000  Uiso   1.00
C549   C     0.69124   0.21740   0.94224   0.00000  Uiso   1.00
C550   C     0.71135   0.22509   0.99882   0.00000  Uiso   1.00
C551   C     0.80575   0.19513   0.99173   0.00000  Uiso   1.00
C552   C     0.76674   0.21042   0.52403   0.00000  Uiso   1.00
C553   C     0.81043   0.28730   0.87347   0.00000  Uiso   1.00
C554   C     0.78807   0.19791   0.93494   0.00000  Uiso   1.00
C555   C     0.86135   0.17653   0.51248   0.00000  Uiso   1.00
C556   C     0.89432   0.15755   0.97582   0.00000  Uiso   1.00
C557   C     0.87878   0.16926   0.92121   0.00000  Uiso   1.00
C558   C     0.83166   0.19936   0.90465   0.00000  Uiso   1.00
C559   C     0.88564   0.17722   0.56790   0.00000  Uiso   1.00
C560   C     0.96936   0.13398   0.55160   0.00000  Uiso   1.00
H561   H     0.67744   0.11744   0.56683   0.00000  Uiso   1.00
H562   H     0.68245   0.23888   0.52340   0.00000  Uiso   1.00
H563   H     0.73170   0.00303   0.74425   0.00000  Uiso   1.00
H564   H     0.87705   0.24434   0.85979   0.00000  Uiso   1.00
H565   H     0.76199   0.28192   0.86592   0.00000  Uiso   1.00
H566   H     0.82091   0.31460   0.84332   0.00000  Uiso   1.00
H567   H     0.82922   0.30521   0.91537   0.00000  Uiso   1.00
H568   H     0.93533   0.33034   0.75675   0.00000  Uiso   1.00
H569   H     0.82368   0.11951   0.71710   0.00000  Uiso   1.00
H570   H     0.84276   0.21680   0.77502   0.00000  Uiso   1.00
H571   H     0.90731   0.16156   0.89406   0.00000  Uiso   1.00
H572   H     0.97068   0.11775   0.96765   0.00000  Uiso   1.00
H573   H     0.86420   0.19538   0.59657   0.00000  Uiso   1.00
H574   H     0.98043   0.22598   0.92348   0.00000  Uiso   1.00
H575   H     0.77735   0.21151   0.56813   0.00000  Uiso   1.00
N576   N     0.81160   0.15223   0.73543   0.00000  Uiso   1.00
N577   N     0.85507   0.18110   0.76458   0.00000  Uiso   1.00
N578   N     0.83527   0.23810   0.86617   0.00000  Uiso   1.00
O579   O     0.96435   0.24629   0.75358   0.00000  Uiso   1.00
O580   O     0.72408   0.23704   0.74423   0.00000  Uiso   1.00
O581   O     0.98157   0.17358   0.83380   0.00000  Uiso   1.00
O582   O     0.74130   0.16433   0.82446   0.00000  Uiso   1.00
O583   O     0.94258   0.09629   0.75577   0.00000  Uiso   1.00
O584   O     0.70231   0.08704   0.74643   0.00000  Uiso   1.00
O585   O     0.92537   0.16901   0.67554   0.00000  Uiso   1.00
O586   O     0.68510   0.15976   0.66620   0.00000  Uiso   1.00
Zn587  Zn    0.93786   0.17284   0.75624   0.00000  Uiso   1.00
Zn588  Zn    0.72881   0.16049   0.74377   0.00000  Uiso   1.00
C589   C     0.01479   0.59817   0.74871   0.00000  Uiso   1.00
C590   C     0.06147   0.53172   0.91056   0.00000  Uiso   1.00
C591   C     0.02261   0.65272   0.74826   0.00000  Uiso   1.00
C592   C     0.03802   0.51152   0.85340   0.00000  Uiso   1.00
C593   C     0.31104   0.34732   0.75262   0.00000  Uiso   1.00
C594   C     0.31864   0.40184   0.75158   0.00000  Uiso   1.00
C595   C     0.29609   0.49511   0.64581   0.00000  Uiso   1.00
C596   C     0.27954   0.46688   0.99549   0.00000  Uiso   1.00
C597   C     0.27320   0.49104   0.58739   0.00000  Uiso   1.00
C598   C     0.02457   0.55073   0.94224   0.00000  Uiso   1.00
C599   C     0.04469   0.55842   0.99882   0.00000  Uiso   1.00
C600   C     0.13908   0.52847   0.99173   0.00000  Uiso   1.00
C601   C     0.10008   0.54375   0.52403   0.00000  Uiso   1.00
C602   C     0.14376   0.62064   0.87347   0.00000  Uiso   1.00
C603   C     0.12140   0.53124   0.93494   0.00000  Uiso   1.00
C604   C     0.19468   0.50986   0.51248   0.00000  Uiso   1.00
C605   C     0.22766   0.49088   0.97582   0.00000  Uiso   1.00
C606   C     0.21211   0.50259   0.92121   0.00000  Uiso   1.00
C607   C     0.16500   0.53270   0.90465   0.00000  Uiso   1.00
C608   C     0.21897   0.51056   0.56790   0.00000  Uiso   1.00
C609   C     0.30270   0.46731   0.55160   0.00000  Uiso   1.00
H610   H     0.01077   0.45077   0.56683   0.00000  Uiso   1.00
H611   H     0.01579   0.57222   0.52340   0.00000  Uiso   1.00
H612   H     0.06503   0.33636   0.74425   0.00000  Uiso   1.00
H613   H     0.21039   0.57768   0.85979   0.00000  Uiso   1.00
H614   H     0.09533   0.61525   0.86592   0.00000  Uiso   1.00
H615   H     0.15424   0.64793   0.84332   0.00000  Uiso   1.00
H616   H     0.16256   0.63855   0.91537   0.00000  Uiso   1.00
H617   H     0.26866   0.66368   0.75675   0.00000  Uiso   1.00
H618   H     0.15701   0.45284   0.71710   0.00000  Uiso   1.00
H619   H     0.17609   0.55013   0.77502   0.00000  Uiso   1.00
H620   H     0.24064   0.49489   0.89406   0.00000  Uiso   1.00
H621   H     0.30401   0.45108   0.96765   0.00000  Uiso   1.00
H622   H     0.19753   0.52872   0.59657   0.00000  Uiso   1.00
H623   H     0.31376   0.55931   0.92348   0.00000  Uiso   1.00
H624   H     0.11068   0.54484   0.56813   0.00000  Uiso   1.00
N625   N     0.14493   0.48556   0.73543   0.00000  Uiso   1.00
N626   N     0.18840   0.51444   0.76458   0.00000  Uiso   1.00
N627   N     0.16860   0.57144   0.86617   0.00000  Uiso   1.00
O628   O     0.29769   0.57963   0.75358   0.00000  Uiso   1.00
O629   O     0.05742   0.57038   0.74423   0.00000  Uiso   1.00
O630   O     0.31490   0.50691   0.83380   0.00000  Uiso   1.00
O631   O     0.07463   0.49766   0.82446   0.00000  Uiso   1.00
O632   O     0.27592   0.42962   0.75577   0.00000  Uiso   1.00
O633   O     0.03565   0.42037   0.74643   0.00000  Uiso   1.00
O634   O     0.25870   0.50234   0.67554   0.00000  Uiso   1.00
O635   O     0.01843   0.49309   0.66620   0.00000  Uiso   1.00
Zn636  Zn    0.27119   0.50618   0.75624   0.00000  Uiso   1.00
Zn637  Zn    0.06214   0.49382   0.74377   0.00000  Uiso   1.00
C638   C     0.34813   0.59817   0.74871   0.00000  Uiso   1.00
C639   C     0.39480   0.53172   0.91056   0.00000  Uiso   1.00
C640   C     0.35594   0.65272   0.74826   0.00000  Uiso   1.00
C641   C     0.37136   0.51152   0.85340   0.00000  Uiso   1.00
C642   C     0.64437   0.34732   0.75262   0.00000  Uiso   1.00
C643   C     0.65198   0.40184   0.75158   0.00000  Uiso   1.00
C644   C     0.62943   0.49511   0.64581   0.00000  Uiso   1.00
C645   C     0.61287   0.46688   0.99549   0.00000  Uiso   1.00
C646   C     0.60653   0.49104   0.58739   0.00000  Uiso   1.00
C647   C     0.35791   0.55073   0.94224   0.00000  Uiso   1.00
C648   C     0.37802   0.55842   0.99882   0.00000  Uiso   1.00
C649   C     0.47241   0.52847   0.99173   0.00000  Uiso   1.00
C650   C     0.43341   0.54375   0.52403   0.00000  Uiso   1.00
C651   C     0.47710   0.62064   0.87347   0.00000  Uiso   1.00
C652   C     0.45474   0.53124   0.93494   0.00000  Uiso   1.00
C653   C     0.52801   0.50986   0.51248   0.00000  Uiso   1.00
C654   C     0.56099   0.49088   0.97582   0.00000  Uiso   1.00
C655   C     0.54545   0.50259   0.92121   0.00000  Uiso   1.00
C656   C     0.49833   0.53270   0.90465   0.00000  Uiso   1.00
C657   C     0.55231   0.51056   0.56790   0.00000  Uiso   1.00
C658   C     0.63603   0.46731   0.55160   0.00000  Uiso   1.00
H659   H     0.34411   0.45077   0.56683   0.00000  Uiso   1.00
H660   H     0.34912   0.57222   0.52340   0.00000  Uiso   1.00
H661   H     0.39837   0.33636   0.74425   0.00000  Uiso   1.00
H662   H     0.54372   0.57768   0.85979   0.00000  Uiso   1.00
H663   H     0.42866   0.61525   0.86592   0.00000  Uiso   1.00
H664   H     0.48758   0.64793   0.84332   0.00000  Uiso   1.00
H665   H     0.49589   0.63855   0.91537   0.00000  Uiso   1.00
H666   H     0.60200   0.66368   0.75675   0.00000  Uiso   1.00
H667   H     0.49034   0.45284   0.71710   0.00000  Uiso   1.00
H668   H     0.50943   0.55013   0.77502   0.00000  Uiso   1.00
H669   H     0.57398   0.49489   0.89406   0.00000  Uiso   1.00
H670   H     0.63735   0.45108   0.96765   0.00000  Uiso   1.00
H671   H     0.53086   0.52872   0.59657   0.00000  Uiso   1.00
H672   H     0.64709   0.55931   0.92348   0.00000  Uiso   1.00
H673   H     0.44401   0.54484   0.56813   0.00000  Uiso   1.00
N674   N     0.47827   0.48556   0.73543   0.00000  Uiso   1.00
N675   N     0.52173   0.51444   0.76458   0.00000  Uiso   1.00
N676   N     0.50193   0.57144   0.86617   0.00000  Uiso   1.00
O677   O     0.63102   0.57963   0.75358   0.00000  Uiso   1.00
O678   O     0.39075   0.57038   0.74423   0.00000  Uiso   1.00
O679   O     0.64823   0.50691   0.83380   0.00000  Uiso   1.00
O680   O     0.40796   0.49766   0.82446   0.00000  Uiso   1.00
O681   O     0.60925   0.42962   0.75577   0.00000  Uiso   1.00
O682   O     0.36898   0.42037   0.74643   0.00000  Uiso   1.00
O683   O     0.59204   0.50234   0.67554   0.00000  Uiso   1.00
O684   O     0.35177   0.49309   0.66620   0.00000  Uiso   1.00
Zn685  Zn    0.60453   0.50618   0.75624   0.00000  Uiso   1.00
Zn686  Zn    0.39547   0.49382   0.74377   0.00000  Uiso   1.00
C687   C     0.68146   0.59817   0.74871   0.00000  Uiso   1.00
C688   C     0.72814   0.53172   0.91056   0.00000  Uiso   1.00
C689   C     0.68928   0.65272   0.74826   0.00000  Uiso   1.00
C690   C     0.70469   0.51152   0.85340   0.00000  Uiso   1.00
C691   C     0.97771   0.34732   0.75262   0.00000  Uiso   1.00
C692   C     0.98531   0.40184   0.75158   0.00000  Uiso   1.00
C693   C     0.96276   0.49511   0.64581   0.00000  Uiso   1.00
C694   C     0.94620   0.46688   0.99549   0.00000  Uiso   1.00
C695   C     0.93986   0.49104   0.58739   0.00000  Uiso   1.00
C696   C     0.69124   0.55073   0.94224   0.00000  Uiso   1.00
C697   C     0.71135   0.55842   0.99882   0.00000  Uiso   1.00
C698   C     0.80575   0.52847   0.99173   0.00000  Uiso   1.00
C699   C     0.76674   0.54375   0.52403   0.00000  Uiso   1.00
C700   C     0.81043   0.62064   0.87347   0.00000  Uiso   1.00
C701   C     0.78807   0.53124   0.93494   0.00000  Uiso   1.00
C702   C     0.86135   0.50986   0.51248   0.00000  Uiso   1.00
C703   C     0.89432   0.49088   0.97582   0.00000  Uiso   1.00
C704   C     0.87878   0.50259   0.92121   0.00000  Uiso   1.00
C705   C     0.83166   0.53270   0.90465   0.00000  Uiso   1.00
C706   C     0.88564   0.51056   0.56790   0.00000  Uiso   1.00
C707   C     0.96936   0.46731   0.55160   0.00000  Uiso   1.00
H708   H     0.67744   0.45077   0.56683   0.00000  Uiso   1.00
H709   H     0.68245   0.57222   0.52340   0.00000  Uiso   1.00
H710   H     0.73170   0.33636   0.74425   0.00000  Uiso   1.00
H711   H     0.87705   0.57768   0.85979   0.00000  Uiso   1.00
H712   H     0.76199   0.61525   0.86592   0.00000  Uiso   1.00
H713   H     0.82091   0.64793   0.84332   0.00000  Uiso   1.00
H714   H     0.82922   0.63855   0.91537   0.00000  Uiso   1.00
H715   H     0.93533   0.66368   0.75675   0.00000  Uiso   1.00
H716   H     0.82368   0.45284   0.71710   0.00000  Uiso   1.00
H717   H     0.84276   0.55013   0.77502   0.00000  Uiso   1.00
H718   H     0.90731   0.49489   0.89406   0.00000  Uiso   1.00
H719   H     0.97068   0.45108   0.96765   0.00000  Uiso   1.00
H720   H     0.86420   0.52872   0.59657   0.00000  Uiso   1.00
H721   H     0.98043   0.55931   0.92348   0.00000  Uiso   1.00
H722   H     0.77735   0.54484   0.56813   0.00000  Uiso   1.00
N723   N     0.81160   0.48556   0.73543   0.00000  Uiso   1.00
N724   N     0.85507   0.51444   0.76458   0.00000  Uiso   1.00
N725   N     0.83527   0.57144   0.86617   0.00000  Uiso   1.00
O726   O     0.96435   0.57963   0.75358   0.00000  Uiso   1.00
O727   O     0.72408   0.57038   0.74423   0.00000  Uiso   1.00
O728   O     0.98157   0.50691   0.83380   0.00000  Uiso   1.00
O729   O     0.74130   0.49766   0.82446   0.00000  Uiso   1.00
O730   O     0.94258   0.42962   0.75577   0.00000  Uiso   1.00
O731   O     0.70231   0.42037   0.74643   0.00000  Uiso   1.00
O732   O     0.92537   0.50234   0.67554   0.00000  Uiso   1.00
O733   O     0.68510   0.49309   0.66620   0.00000  Uiso   1.00
Zn734  Zn    0.93786   0.50618   0.75624   0.00000  Uiso   1.00
Zn735  Zn    0.72881   0.49382   0.74377   0.00000  Uiso   1.00
C736   C     0.01479   0.93151   0.74871   0.00000  Uiso   1.00
C737   C     0.06147   0.86505   0.91056   0.00000  Uiso   1.00
C738   C     0.02261   0.98605   0.74826   0.00000  Uiso   1.00
C739   C     0.03802   0.84485   0.85340   0.00000  Uiso   1.00
C740   C     0.31104   0.68066   0.75262   0.00000  Uiso   1.00
C741   C     0.31864   0.73518   0.75158   0.00000  Uiso   1.00
C742   C     0.29609   0.82845   0.64581   0.00000  Uiso   1.00
C743   C     0.27954   0.80022   0.99549   0.00000  Uiso   1.00
C744   C     0.27320   0.82437   0.58739   0.00000  Uiso   1.00
C745   C     0.02457   0.88407   0.94224   0.00000  Uiso   1.00
C746   C     0.04469   0.89176   0.99882   0.00000  Uiso   1.00
C747   C     0.13908   0.86180   0.99173   0.00000  Uiso   1.00
C748   C     0.10008   0.87709   0.52403   0.00000  Uiso   1.00
C749   C     0.14376   0.95397   0.87347   0.00000  Uiso   1.00
C750   C     0.12140   0.86457   0.93494   0.00000  Uiso   1.00
C751   C     0.19468   0.84319   0.51248   0.00000  Uiso   1.00
C752   C     0.22766   0.82422   0.97582   0.00000  Uiso   1.00
C753   C     0.21211   0.83593   0.92121   0.00000  Uiso   1.00
C754   C     0.16500   0.86603   0.90465   0.00000  Uiso   1.00
C755   C     0.21897   0.84389   0.56790   0.00000  Uiso   1.00
C756   C     0.30270   0.80065   0.55160   0.00000  Uiso   1.00
H757   H     0.01077   0.78411   0.56683   0.00000  Uiso   1.00
H758   H     0.01579   0.90555   0.52340   0.00000  Uiso   1.00
H759   H     0.06503   0.66970   0.74425   0.00000  Uiso   1.00
H760   H     0.21039   0.91101   0.85979   0.00000  Uiso   1.00
H761   H     0.09533   0.94859   0.86592   0.00000  Uiso   1.00
H762   H     0.15424   0.98127   0.84332   0.00000  Uiso   1.00
H763   H     0.16256   0.97188   0.91537   0.00000  Uiso   1.00
H764   H     0.26866   0.99701   0.75675   0.00000  Uiso   1.00
H765   H     0.15701   0.78617   0.71710   0.00000  Uiso   1.00
H766   H     0.17609   0.88346   0.77502   0.00000  Uiso   1.00
H767   H     0.24064   0.82822   0.89406   0.00000  Uiso   1.00
H768   H     0.30401   0.78442   0.96765   0.00000  Uiso   1.00
H769   H     0.19753   0.86205   0.59657   0.00000  Uiso   1.00
H770   H     0.31376   0.89264   0.92348   0.00000  Uiso   1.00
H771   H     0.11068   0.87818   0.56813   0.00000  Uiso   1.00
N772   N     0.14493   0.81890   0.73543   0.00000  Uiso   1.00
N773   N     0.18840   0.84777   0.76458   0.00000  Uiso   1.00
N774   N     0.16860   0.90477   0.86617   0.00000  Uiso   1.00
O775   O     0.29769   0.91296   0.75358   0.00000  Uiso   1.00
O776   O     0.05742   0.90371   0.74423   0.00000  Uiso   1.00
O777   O     0.31490   0.84024   0.83380   0.00000  Uiso   1.00
O778   O     0.07463   0.83099   0.82446   0.00000  Uiso   1.00
O779   O     0.27592   0.76296   0.75577   0.00000  Uiso   1.00
O780   O     0.03565   0.75371   0.74643   0.00000  Uiso   1.00
O781   O     0.25870   0.83567   0.67554   0.00000  Uiso   1.00
O782   O     0.01843   0.82642   0.66620   0.00000  Uiso   1.00
Zn783  Zn    0.27119   0.83951   0.75624   0.00000  Uiso   1.00
Zn784  Zn    0.06214   0.82716   0.74377   0.00000  Uiso   1.00
C785   C     0.34813   0.93151   0.74871   0.00000  Uiso   1.00
C786   C     0.39480   0.86505   0.91056   0.00000  Uiso   1.00
C787   C     0.35594   0.98605   0.74826   0.00000  Uiso   1.00
C788   C     0.37136   0.84485   0.85340   0.00000  Uiso   1.00
C789   C     0.64437   0.68066   0.75262   0.00000  Uiso   1.00
C790   C     0.65198   0.73518   0.75158   0.00000  Uiso   1.00
C791   C     0.62943   0.82845   0.64581   0.00000  Uiso   1.00
C792   C     0.61287   0.80022   0.99549   0.00000  Uiso   1.00
C793   C     0.60653   0.82437   0.58739   0.00000  Uiso   1.00
C794   C     0.35791   0.88407   0.94224   0.00000  Uiso   1.00
C795   C     0.37802   0.89176   0.99882   0.00000  Uiso   1.00
C796   C     0.47241   0.86180   0.99173   0.00000  Uiso   1.00
C797   C     0.43341   0.87709   0.52403   0.00000  Uiso   1.00
C798   C     0.47710   0.95397   0.87347   0.00000  Uiso   1.00
C799   C     0.45474   0.86457   0.93494   0.00000  Uiso   1.00
C800   C     0.52801   0.84319   0.51248   0.00000  Uiso   1.00
C801   C     0.56099   0.82422   0.97582   0.00000  Uiso   1.00
C802   C     0.54545   0.83593   0.92121   0.00000  Uiso   1.00
C803   C     0.49833   0.86603   0.90465   0.00000  Uiso   1.00
C804   C     0.55231   0.84389   0.56790   0.00000  Uiso   1.00
C805   C     0.63603   0.80065   0.55160   0.00000  Uiso   1.00
H806   H     0.34411   0.78411   0.56683   0.00000  Uiso   1.00
H807   H     0.34912   0.90555   0.52340   0.00000  Uiso   1.00
H808   H     0.39837   0.66970   0.74425   0.00000  Uiso   1.00
H809   H     0.54372   0.91101   0.85979   0.00000  Uiso   1.00
H810   H     0.42866   0.94859   0.86592   0.00000  Uiso   1.00
H811   H     0.48758   0.98127   0.84332   0.00000  Uiso   1.00
H812   H     0.49589   0.97188   0.91537   0.00000  Uiso   1.00
H813   H     0.60200   0.99701   0.75675   0.00000  Uiso   1.00
H814   H     0.49034   0.78617   0.71710   0.00000  Uiso   1.00
H815   H     0.50943   0.88346   0.77502   0.00000  Uiso   1.00
H816   H     0.57398   0.82822   0.89406   0.00000  Uiso   1.00
H817   H     0.63735   0.78442   0.96765   0.00000  Uiso   1.00
H818   H     0.53086   0.86205   0.59657   0.00000  Uiso   1.00
H819   H     0.64709   0.89264   0.92348   0.00000  Uiso   1.00
H820   H     0.44401   0.87818   0.56813   0.00000  Uiso   1.00
N821   N     0.47827   0.81890   0.73543   0.00000  Uiso   1.00
N822   N     0.52173   0.84777   0.76458   0.00000  Uiso   1.00
N823   N     0.50193   0.90477   0.86617   0.00000  Uiso   1.00
O824   O     0.63102   0.91296   0.75358   0.00000  Uiso   1.00
O825   O     0.39075   0.90371   0.74423   0.00000  Uiso   1.00
O826   O     0.64823   0.84024   0.83380   0.00000  Uiso   1.00
O827   O     0.40796   0.83099   0.82446   0.00000  Uiso   1.00
O828   O     0.60925   0.76296   0.75577   0.00000  Uiso   1.00
O829   O     0.36898   0.75371   0.74643   0.00000  Uiso   1.00
O830   O     0.59204   0.83567   0.67554   0.00000  Uiso   1.00
O831   O     0.35177   0.82642   0.66620   0.00000  Uiso   1.00
Zn832  Zn    0.60453   0.83951   0.75624   0.00000  Uiso   1.00
Zn833  Zn    0.39547   0.82716   0.74377   0.00000  Uiso   1.00
C834   C     0.68146   0.93151   0.74871   0.00000  Uiso   1.00
C835   C     0.72814   0.86505   0.91056   0.00000  Uiso   1.00
C836   C     0.68928   0.98605   0.74826   0.00000  Uiso   1.00
C837   C     0.70469   0.84485   0.85340   0.00000  Uiso   1.00
C838   C     0.97771   0.68066   0.75262   0.00000  Uiso   1.00
C839   C     0.98531   0.73518   0.75158   0.00000  Uiso   1.00
C840   C     0.96276   0.82845   0.64581   0.00000  Uiso   1.00
C841   C     0.94620   0.80022   0.99549   0.00000  Uiso   1.00
C842   C     0.93986   0.82437   0.58739   0.00000  Uiso   1.00
C843   C     0.69124   0.88407   0.94224   0.00000  Uiso   1.00
C844   C     0.71135   0.89176   0.99882   0.00000  Uiso   1.00
C845   C     0.80575   0.86180   0.99173   0.00000  Uiso   1.00
C846   C     0.76674   0.87709   0.52403   0.00000  Uiso   1.00
C847   C     0.81043   0.95397   0.87347   0.00000  Uiso   1.00
C848   C     0.78807   0.86457   0.93494   0.00000  Uiso   1.00
C849   C     0.86135   0.84319   0.51248   0.00000  Uiso   1.00
C850   C     0.89432   0.82422   0.97582   0.00000  Uiso   1.00
C851   C     0.87878   0.83593   0.92121   0.00000  Uiso   1.00
C852   C     0.83166   0.86603   0.90465   0.00000  Uiso   1.00
C853   C     0.88564   0.84389   0.56790   0.00000  Uiso   1.00
C854   C     0.96936   0.80065   0.55160   0.00000  Uiso   1.00
H855   H     0.67744   0.78411   0.56683   0.00000  Uiso   1.00
H856   H     0.68245   0.90555   0.52340   0.00000  Uiso   1.00
H857   H     0.73170   0.66970   0.74425   0.00000  Uiso   1.00
H858   H     0.87705   0.91101   0.85979   0.00000  Uiso   1.00
H859   H     0.76199   0.94859   0.86592   0.00000  Uiso   1.00
H860   H     0.82091   0.98127   0.84332   0.00000  Uiso   1.00
H861   H     0.82922   0.97188   0.91537   0.00000  Uiso   1.00
H862   H     0.93533   0.99701   0.75675   0.00000  Uiso   1.00
H863   H     0.82368   0.78617   0.71710   0.00000  Uiso   1.00
H864   H     0.84276   0.88346   0.77502   0.00000  Uiso   1.00
H865   H     0.90731   0.82822   0.89406   0.00000  Uiso   1.00
H866   H     0.97068   0.78442   0.96765   0.00000  Uiso   1.00
H867   H     0.86420   0.86205   0.59657   0.00000  Uiso   1.00
H868   H     0.98043   0.89264   0.92348   0.00000  Uiso   1.00
H869   H     0.77735   0.87818   0.56813   0.00000  Uiso   1.00
N870   N     0.81160   0.81890   0.73543   0.00000  Uiso   1.00
N871   N     0.85507   0.84777   0.76458   0.00000  Uiso   1.00
N872   N     0.83527   0.90477   0.86617   0.00000  Uiso   1.00
O873   O     0.96435   0.91296   0.75358   0.00000  Uiso   1.00
O874   O     0.72408   0.90371   0.74423   0.00000  Uiso   1.00
O875   O     0.98157   0.84024   0.83380   0.00000  Uiso   1.00
O876   O     0.74130   0.83099   0.82446   0.00000  Uiso   1.00
O877   O     0.94258   0.76296   0.75577   0.00000  Uiso   1.00
O878   O     0.70231   0.75371   0.74643   0.00000  Uiso   1.00
O879   O     0.92537   0.83567   0.67554   0.00000  Uiso   1.00
O880   O     0.68510   0.82642   0.66620   0.00000  Uiso   1.00
Zn881  Zn    0.93786   0.83951   0.75624   0.00000  Uiso   1.00
Zn882  Zn    0.72881   0.82716   0.74377   0.00000  Uiso   1.00
loop_
_geom_bond_atom_site_label_1
_geom_bond_atom_site_label_2
_geom_bond_distance
_geom_bond_site_symmetry_2
_ccdc_geom_bond_type
C1     O41     1.291   .     A
C1     C3      1.404   .     S
C1     O138    1.280   1_455 S
C2     C4      1.474   .     S
C2     C15     1.402   .     A
C2     C10     1.400   .     A
C3     C250    1.337   1_455 S
C3     H171    1.088   .     S
C4     O43     1.303   .     A
C4     O140    1.300   1_455 S
C5     C6      1.404   .     S
C5     C346    1.337   1_545 S
C5     H323    1.088   1_545 S
C6     O44     1.291   .     A
C6     O94     1.280   .     S
C7     O46     1.293   .     A
C7     C9      1.440   .     S
C7     O96     1.296   .     S
C8     C17     1.401   .     A
C8     H33     1.084   .     S
C8     C462    1.390   .     S
C9     C20     1.391   .     A
C9     C21     1.398   .     A
C10    C11     1.393   .     A
C10    H133    1.078   1_455 S
C11    C454    1.395   .     S
C11    H464    1.083   .     S
C12    C15     1.399   .     A
C12    C454    1.418   .     S
C12    C457    1.414   .     S
C13    H36     1.078   .     S
C13    C453    1.418   1_554 S
C13    C452    1.395   1_554 S
C14    H27     1.111   .     S
C14    H26     1.107   .     S
C14    H28     1.111   .     S
C14    N39     1.451   .     S
C15    C19     1.407   .     A
C16    C20     1.378   .     A
C16    C453    1.414   1_554 S
C16    C458    1.422   1_554 S
C17    C18     1.389   .     A
C17    C457    1.422   .     S
C18    H32     1.081   .     S
C18    C19     1.389   .     A
C19    N39     1.430   .     S
C20    H34     1.076   .     S
C21    C449    1.390   1_554 S
C21    H71     1.083   .     S
H22    C119    1.083   1_455 S
H23    C452    1.083   1_554 S
H24    C297    1.088   1_545 S
H25    N39     1.033   .     S
H29    C152    1.088   .     S
H30    N37     1.029   .     S
H31    N38     1.022   .     S
H35    C59     1.078   .     S
N37    N38     1.281   .     D
N37    Zn49    2.026   .     S
N38    Zn48    2.026   .     S
O40    Zn48    1.958   .     S
O40    C50     1.280   .     S
O41    Zn49    1.980   .     S
O42    Zn48    1.984   .     S
O42    C53     1.300   .     S
O43    Zn49    1.979   .     S
O44    Zn48    1.980   .     S
O45    Zn49    1.958   .     S
O45    C104    1.280   1_455 S
O46    Zn48    1.979   .     S
O47    Zn49    1.984   .     S
O47    C105    1.296   1_455 S
C50    O90     1.291   .     A
C50    C52     1.404   .     S
C51    C53     1.474   .     S
C51    C64     1.402   .     A
C51    C59     1.400   .     A
C52    C152    1.337   .     S
C52    H220    1.088   .     S
C53    O92     1.303   .     A
C54    C55     1.404   .     S
C54    C395    1.337   1_545 S
C54    H372    1.088   1_545 S
C55    O93     1.291   .     A
C55    O143    1.280   .     S
C56    O95     1.293   .     A
C56    C58     1.440   .     S
C56    O145    1.296   .     S
C57    C66     1.401   .     A
C57    H82     1.084   .     S
C57    C511    1.390   .     S
C58    C69     1.391   .     A
C58    C70     1.398   .     A
C59    C60     1.393   .     A
C60    C503    1.395   .     S
C60    H513    1.083   .     S
C61    C64     1.399   .     A
C61    C503    1.418   .     S
C61    C506    1.414   .     S
C62    H85     1.078   .     S
C62    C502    1.418   1_554 S
C62    C501    1.395   1_554 S
C63    H76     1.111   .     S
C63    H75     1.107   .     S
C63    H77     1.111   .     S
C63    N88     1.451   .     S
C64    C68     1.407   .     A
C65    C69     1.378   .     A
C65    C502    1.414   1_554 S
C65    C507    1.422   1_554 S
C66    C67     1.389   .     A
C66    C506    1.422   .     S
C67    H81     1.081   .     S
C67    C68     1.389   .     A
C68    N88     1.430   .     S
C69    H83     1.076   .     S
C70    C498    1.390   1_554 S
C70    H120    1.083   .     S
H72    C501    1.083   1_554 S
H73    C346    1.088   1_545 S
H74    N88     1.033   .     S
H78    C201    1.088   .     S
H79    N86     1.029   .     S
H80    N87     1.022   .     S
H84    C108    1.078   .     S
N86    N87     1.281   .     D
N86    Zn98    2.026   .     S
N87    Zn97    2.026   .     S
O89    Zn97    1.958   .     S
O89    C99     1.280   .     S
O90    Zn98    1.980   .     S
O91    Zn97    1.984   .     S
O91    C102    1.300   .     S
O92    Zn98    1.979   .     S
O93    Zn97    1.980   .     S
O94    Zn98    1.958   .     S
O95    Zn97    1.979   .     S
O96    Zn98    1.984   .     S
C99    O139    1.291   .     A
C99    C101    1.404   .     S
C100   C102    1.474   .     S
C100   C113    1.402   .     A
C100   C108    1.400   .     A
C101   C201    1.337   .     S
C101   H269    1.088   .     S
C102   O141    1.303   .     A
C103   C104    1.404   .     S
C103   C297    1.337   1_645 S
C103   H421    1.088   1_545 S
C104   O142    1.291   .     A
C104   O45     1.280   1_655 S
C105   O144    1.293   .     A
C105   C107    1.440   .     S
C105   O47     1.296   1_655 S
C106   C115    1.401   .     A
C106   H131    1.084   .     S
C106   C560    1.390   .     S
C107   C118    1.391   .     A
C107   C119    1.398   .     A
C108   C109    1.393   .     A
C109   C552    1.395   .     S
C109   H562    1.083   .     S
C110   C113    1.399   .     A
C110   C552    1.418   .     S
C110   C555    1.414   .     S
C111   H134    1.078   .     S
C111   C551    1.418   1_554 S
C111   C550    1.395   1_554 S
C112   H125    1.111   .     S
C112   H124    1.107   .     S
C112   H126    1.111   .     S
C112   N137    1.451   .     S
C113   C117    1.407   .     A
C114   C118    1.378   .     A
C114   C551    1.414   1_554 S
C114   C556    1.422   1_554 S
C115   C116    1.389   .     A
C115   C555    1.422   .     S
C116   H130    1.081   .     S
C116   C117    1.389   .     A
C117   N137    1.430   .     S
C118   H132    1.076   .     S
C119   C547    1.390   1_554 S
C119   H22     1.083   1_655 S
H121   C550    1.083   1_554 S
H122   C395    1.088   1_545 S
H123   N137    1.033   .     S
H127   C250    1.088   .     S
H128   N135    1.029   .     S
H129   N136    1.022   .     S
H133   C10     1.078   1_655 S
N135   N136    1.281   .     D
N135   Zn147   2.026   .     S
N136   Zn146   2.026   .     S
O138   Zn146   1.958   .     S
O138   C1      1.280   1_655 S
O139   Zn147   1.980   .     S
O140   Zn146   1.984   .     S
O140   C4      1.300   1_655 S
O141   Zn147   1.979   .     S
O142   Zn146   1.980   .     S
O143   Zn147   1.958   .     S
O144   Zn146   1.979   .     S
O145   Zn147   1.984   .     S
C148   O188    1.291   .     A
C148   C150    1.404   .     S
C148   O285    1.280   1_455 S
C149   C151    1.474   .     S
C149   C162    1.402   .     A
C149   C157    1.400   .     A
C150   C397    1.337   1_455 S
C150   H318    1.088   .     S
C151   O190    1.303   .     A
C151   O287    1.300   1_455 S
C152   C153    1.404   .     S
C153   O191    1.291   .     A
C153   O241    1.280   .     S
C154   O193    1.293   .     A
C154   C156    1.440   .     S
C154   O243    1.296   .     S
C155   C164    1.401   .     A
C155   H180    1.084   .     S
C155   C609    1.390   .     S
C156   C167    1.391   .     A
C156   C168    1.398   .     A
C157   C158    1.393   .     A
C157   H280    1.078   1_455 S
C158   C601    1.395   .     S
C158   H611    1.083   .     S
C159   C162    1.399   .     A
C159   C601    1.418   .     S
C159   C604    1.414   .     S
C160   H183    1.078   .     S
C160   C600    1.418   1_554 S
C160   C599    1.395   1_554 S
C161   H174    1.111   .     S
C161   H173    1.107   .     S
C161   H175    1.111   .     S
C161   N186    1.451   .     S
C162   C166    1.407   .     A
C163   C167    1.378   .     A
C163   C600    1.414   1_554 S
C163   C605    1.422   1_554 S
C164   C165    1.389   .     A
C164   C604    1.422   .     S
C165   H179    1.081   .     S
C165   C166    1.389   .     A
C166   N186    1.430   .     S
C167   H181    1.076   .     S
C168   C596    1.390   1_554 S
C168   H218    1.083   .     S
H169   C266    1.083   1_455 S
H170   C599    1.083   1_554 S
H172   N186    1.033   .     S
H176   C299    1.088   .     S
H177   N184    1.029   .     S
H178   N185    1.022   .     S
H182   C206    1.078   .     S
N184   N185    1.281   .     D
N184   Zn196   2.026   .     S
N185   Zn195   2.026   .     S
O187   Zn195   1.958   .     S
O187   C197    1.280   .     S
O188   Zn196   1.980   .     S
O189   Zn195   1.984   .     S
O189   C200    1.300   .     S
O190   Zn196   1.979   .     S
O191   Zn195   1.980   .     S
O192   Zn196   1.958   .     S
O192   C251    1.280   1_455 S
O193   Zn195   1.979   .     S
O194   Zn196   1.984   .     S
O194   C252    1.296   1_455 S
C197   O237    1.291   .     A
C197   C199    1.404   .     S
C198   C200    1.474   .     S
C198   C211    1.402   .     A
C198   C206    1.400   .     A
C199   C299    1.337   .     S
C199   H367    1.088   .     S
C200   O239    1.303   .     A
C201   C202    1.404   .     S
C202   O240    1.291   .     A
C202   O290    1.280   .     S
C203   O242    1.293   .     A
C203   C205    1.440   .     S
C203   O292    1.296   .     S
C204   C213    1.401   .     A
C204   H229    1.084   .     S
C204   C658    1.390   .     S
C205   C216    1.391   .     A
C205   C217    1.398   .     A
C206   C207    1.393   .     A
C207   C650    1.395   .     S
C207   H660    1.083   .     S
C208   C211    1.399   .     A
C208   C650    1.418   .     S
C208   C653    1.414   .     S
C209   H232    1.078   .     S
C209   C649    1.418   1_554 S
C209   C648    1.395   1_554 S
C210   H223    1.111   .     S
C210   H222    1.107   .     S
C210   H224    1.111   .     S
C210   N235    1.451   .     S
C211   C215    1.407   .     A
C212   C216    1.378   .     A
C212   C649    1.414   1_554 S
C212   C654    1.422   1_554 S
C213   C214    1.389   .     A
C213   C653    1.422   .     S
C214   H228    1.081   .     S
C214   C215    1.389   .     A
C215   N235    1.430   .     S
C216   H230    1.076   .     S
C217   C645    1.390   1_554 S
C217   H267    1.083   .     S
H219   C648    1.083   1_554 S
H221   N235    1.033   .     S
H225   C348    1.088   .     S
H226   N233    1.029   .     S
H227   N234    1.022   .     S
H231   C255    1.078   .     S
N233   N234    1.281   .     D
N233   Zn245   2.026   .     S
N234   Zn244   2.026   .     S
O236   Zn244   1.958   .     S
O236   C246    1.280   .     S
O237   Zn245   1.980   .     S
O238   Zn244   1.984   .     S
O238   C249    1.300   .     S
O239   Zn245   1.979   .     S
O240   Zn244   1.980   .     S
O241   Zn245   1.958   .     S
O242   Zn244   1.979   .     S
O243   Zn245   1.984   .     S
C246   O286    1.291   .     A
C246   C248    1.404   .     S
C247   C249    1.474   .     S
C247   C260    1.402   .     A
C247   C255    1.400   .     A
C248   C348    1.337   .     S
C248   H416    1.088   .     S
C249   O288    1.303   .     A
C250   C251    1.404   .     S
C250   C3      1.337   1_655 S
C251   O289    1.291   .     A
C251   O192    1.280   1_655 S
C252   O291    1.293   .     A
C252   C254    1.440   .     S
C252   O194    1.296   1_655 S
C253   C262    1.401   .     A
C253   H278    1.084   .     S
C253   C707    1.390   .     S
C254   C265    1.391   .     A
C254   C266    1.398   .     A
C255   C256    1.393   .     A
C256   C699    1.395   .     S
C256   H709    1.083   .     S
C257   C260    1.399   .     A
C257   C699    1.418   .     S
C257   C702    1.414   .     S
C258   H281    1.078   .     S
C258   C698    1.418   1_554 S
C258   C697    1.395   1_554 S
C259   H272    1.111   .     S
C259   H271    1.107   .     S
C259   H273    1.111   .     S
C259   N284    1.451   .     S
C260   C264    1.407   .     A
C261   C265    1.378   .     A
C261   C698    1.414   1_554 S
C261   C703    1.422   1_554 S
C262   C263    1.389   .     A
C262   C702    1.422   .     S
C263   H277    1.081   .     S
C263   C264    1.389   .     A
C264   N284    1.430   .     S
C265   H279    1.076   .     S
C266   C694    1.390   1_554 S
C266   H169    1.083   1_655 S
H268   C697    1.083   1_554 S
H270   N284    1.033   .     S
H274   C397    1.088   .     S
H275   N282    1.029   .     S
H276   N283    1.022   .     S
H280   C157    1.078   1_655 S
N282   N283    1.281   .     D
N282   Zn294   2.026   .     S
N283   Zn293   2.026   .     S
O285   Zn293   1.958   .     S
O285   C148    1.280   1_655 S
O286   Zn294   1.980   .     S
O287   Zn293   1.984   .     S
O287   C151    1.300   1_655 S
O288   Zn294   1.979   .     S
O289   Zn293   1.980   .     S
O290   Zn294   1.958   .     S
O291   Zn293   1.979   .     S
O292   Zn294   1.984   .     S
C295   O335    1.291   .     A
C295   C297    1.404   .     S
C295   O432    1.280   1_455 S
C296   C298    1.474   .     S
C296   C309    1.402   .     A
C296   C304    1.400   .     A
C297   C103    1.337   1_465 S
C297   H24     1.088   1_565 S
C298   O337    1.303   .     A
C298   O434    1.300   1_455 S
C299   C300    1.404   .     S
C300   O338    1.291   .     A
C300   O388    1.280   .     S
C301   O340    1.293   .     A
C301   C303    1.440   .     S
C301   O390    1.296   .     S
C302   C311    1.401   .     A
C302   H327    1.084   .     S
C302   C756    1.390   .     S
C303   C314    1.391   .     A
C303   C315    1.398   .     A
C304   C305    1.393   .     A
C304   H427    1.078   1_455 S
C305   C748    1.395   .     S
C305   H758    1.083   .     S
C306   C309    1.399   .     A
C306   C748    1.418   .     S
C306   C751    1.414   .     S
C307   H330    1.078   .     S
C307   C747    1.418   1_554 S
C307   C746    1.395   1_554 S
C308   H321    1.111   .     S
C308   H320    1.107   .     S
C308   H322    1.111   .     S
C308   N333    1.451   .     S
C309   C313    1.407   .     A
C310   C314    1.378   .     A
C310   C747    1.414   1_554 S
C310   C752    1.422   1_554 S
C311   C312    1.389   .     A
C311   C751    1.422   .     S
C312   H326    1.081   .     S
C312   C313    1.389   .     A
C313   N333    1.430   .     S
C314   H328    1.076   .     S
C315   C743    1.390   1_554 S
C315   H365    1.083   .     S
H316   C413    1.083   1_455 S
H317   C746    1.083   1_554 S
H319   N333    1.033   .     S
H323   C5      1.088   1_565 S
H324   N331    1.029   .     S
H325   N332    1.022   .     S
H329   C353    1.078   .     S
N331   N332    1.281   .     D
N331   Zn343   2.026   .     S
N332   Zn342   2.026   .     S
O334   Zn342   1.958   .     S
O334   C344    1.280   .     S
O335   Zn343   1.980   .     S
O336   Zn342   1.984   .     S
O336   C347    1.300   .     S
O337   Zn343   1.979   .     S
O338   Zn342   1.980   .     S
O339   Zn343   1.958   .     S
O339   C398    1.280   1_455 S
O340   Zn342   1.979   .     S
O341   Zn343   1.984   .     S
O341   C399    1.296   1_455 S
C344   O384    1.291   .     A
C344   C346    1.404   .     S
C345   C347    1.474   .     S
C345   C358    1.402   .     A
C345   C353    1.400   .     A
C346   C5      1.337   1_565 S
C346   H73     1.088   1_565 S
C347   O386    1.303   .     A
C348   C349    1.404   .     S
C349   O387    1.291   .     A
C349   O437    1.280   .     S
C350   O389    1.293   .     A
C350   C352    1.440   .     S
C350   O439    1.296   .     S
C351   C360    1.401   .     A
C351   H376    1.084   .     S
C351   C805    1.390   .     S
C352   C363    1.391   .     A
C352   C364    1.398   .     A
C353   C354    1.393   .     A
C354   C797    1.395   .     S
C354   H807    1.083   .     S
C355   C358    1.399   .     A
C355   C797    1.418   .     S
C355   C800    1.414   .     S
C356   H379    1.078   .     S
C356   C796    1.418   1_554 S
C356   C795    1.395   1_554 S
C357   H370    1.111   .     S
C357   H369    1.107   .     S
C357   H371    1.111   .     S
C357   N382    1.451   .     S
C358   C362    1.407   .     A
C359   C363    1.378   .     A
C359   C796    1.414   1_554 S
C359   C801    1.422   1_554 S
C360   C361    1.389   .     A
C360   C800    1.422   .     S
C361   H375    1.081   .     S
C361   C362    1.389   .     A
C362   N382    1.430   .     S
C363   H377    1.076   .     S
C364   C792    1.390   1_554 S
C364   H414    1.083   .     S
H366   C795    1.083   1_554 S
H368   N382    1.033   .     S
H372   C54     1.088   1_565 S
H373   N380    1.029   .     S
H374   N381    1.022   .     S
H378   C402    1.078   .     S
N380   N381    1.281   .     D
N380   Zn392   2.026   .     S
N381   Zn391   2.026   .     S
O383   Zn391   1.958   .     S
O383   C393    1.280   .     S
O384   Zn392   1.980   .     S
O385   Zn391   1.984   .     S
O385   C396    1.300   .     S
O386   Zn392   1.979   .     S
O387   Zn391   1.980   .     S
O388   Zn392   1.958   .     S
O389   Zn391   1.979   .     S
O390   Zn392   1.984   .     S
C393   O433    1.291   .     A
C393   C395    1.404   .     S
C394   C396    1.474   .     S
C394   C407    1.402   .     A
C394   C402    1.400   .     A
C395   C54     1.337   1_565 S
C395   H122    1.088   1_565 S
C396   O435    1.303   .     A
C397   C398    1.404   .     S
C397   C150    1.337   1_655 S
C398   O436    1.291   .     A
C398   O339    1.280   1_655 S
C399   O438    1.293   .     A
C399   C401    1.440   .     S
C399   O341    1.296   1_655 S
C400   C409    1.401   .     A
C400   H425    1.084   .     S
C400   C854    1.390   .     S
C401   C412    1.391   .     A
C401   C413    1.398   .     A
C402   C403    1.393   .     A
C403   C846    1.395   .     S
C403   H856    1.083   .     S
C404   C407    1.399   .     A
C404   C846    1.418   .     S
C404   C849    1.414   .     S
C405   H428    1.078   .     S
C405   C845    1.418   1_554 S
C405   C844    1.395   1_554 S
C406   H419    1.111   .     S
C406   H418    1.107   .     S
C406   H420    1.111   .     S
C406   N431    1.451   .     S
C407   C411    1.407   .     A
C408   C412    1.378   .     A
C408   C845    1.414   1_554 S
C408   C850    1.422   1_554 S
C409   C410    1.389   .     A
C409   C849    1.422   .     S
C410   H424    1.081   .     S
C410   C411    1.389   .     A
C411   N431    1.430   .     S
C412   H426    1.076   .     S
C413   C841    1.390   1_554 S
C413   H316    1.083   1_655 S
H415   C844    1.083   1_554 S
H417   N431    1.033   .     S
H421   C103    1.088   1_565 S
H422   N429    1.029   .     S
H423   N430    1.022   .     S
H427   C304    1.078   1_655 S
N429   N430    1.281   .     D
N429   Zn441   2.026   .     S
N430   Zn440   2.026   .     S
O432   Zn440   1.958   .     S
O432   C295    1.280   1_655 S
O433   Zn441   1.980   .     S
O434   Zn440   1.984   .     S
O434   C298    1.300   1_655 S
O435   Zn441   1.979   .     S
O436   Zn440   1.980   .     S
O437   Zn441   1.958   .     S
O438   Zn440   1.979   .     S
O439   Zn441   1.984   .     S
C442   O482    1.291   .     A
C442   C444    1.404   .     S
C442   O579    1.280   1_455 S
C443   C445    1.474   .     S
C443   C456    1.402   .     A
C443   C451    1.400   .     A
C444   C691    1.337   1_455 S
C444   H612    1.088   .     S
C445   O484    1.303   .     A
C445   O581    1.300   1_455 S
C446   C447    1.404   .     S
C446   C787    1.337   1_545 S
C446   H764    1.088   1_545 S
C447   O485    1.291   .     A
C447   O535    1.280   .     S
C448   O487    1.293   .     A
C448   C450    1.440   .     S
C448   O537    1.296   .     S
C449   C458    1.401   .     A
C449   H474    1.084   .     S
C449   C21     1.390   1_556 S
C450   C461    1.391   .     A
C450   C462    1.398   .     A
C451   C452    1.393   .     A
C451   H574    1.078   1_455 S
C452   C13     1.395   1_556 S
C452   H23     1.083   1_556 S
C453   C456    1.399   .     A
C453   C13     1.418   1_556 S
C453   C16     1.414   1_556 S
C454   H477    1.078   .     S
C455   H468    1.111   .     S
C455   H467    1.107   .     S
C455   H469    1.111   .     S
C455   N480    1.451   .     S
C456   C460    1.407   .     A
C457   C461    1.378   .     A
C458   C459    1.389   .     A
C458   C16     1.422   1_556 S
C459   H473    1.081   .     S
C459   C460    1.389   .     A
C460   N480    1.430   .     S
C461   H475    1.076   .     S
C462   H512    1.083   .     S
H463   C560    1.083   1_455 S
H465   C738    1.088   1_545 S
H466   N480    1.033   .     S
H470   C593    1.088   .     S
H471   N478    1.029   .     S
H472   N479    1.022   .     S
H476   C500    1.078   .     S
N478   N479    1.281   .     D
N478   Zn490   2.026   .     S
N479   Zn489   2.026   .     S
O481   Zn489   1.958   .     S
O481   C491    1.280   .     S
O482   Zn490   1.980   .     S
O483   Zn489   1.984   .     S
O483   C494    1.300   .     S
O484   Zn490   1.979   .     S
O485   Zn489   1.980   .     S
O486   Zn490   1.958   .     S
O486   C545    1.280   1_455 S
O487   Zn489   1.979   .     S
O488   Zn490   1.984   .     S
O488   C546    1.296   1_455 S
C491   O531    1.291   .     A
C491   C493    1.404   .     S
C492   C494    1.474   .     S
C492   C505    1.402   .     A
C492   C500    1.400   .     A
C493   C593    1.337   .     S
C493   H661    1.088   .     S
C494   O533    1.303   .     A
C495   C496    1.404   .     S
C495   C836    1.337   1_545 S
C495   H813    1.088   1_545 S
C496   O534    1.291   .     A
C496   O584    1.280   .     S
C497   O536    1.293   .     A
C497   C499    1.440   .     S
C497   O586    1.296   .     S
C498   C507    1.401   .     A
C498   H523    1.084   .     S
C498   C70     1.390   1_556 S
C499   C510    1.391   .     A
C499   C511    1.398   .     A
C500   C501    1.393   .     A
C501   C62     1.395   1_556 S
C501   H72     1.083   1_556 S
C502   C505    1.399   .     A
C502   C62     1.418   1_556 S
C502   C65     1.414   1_556 S
C503   H526    1.078   .     S
C504   H517    1.111   .     S
C504   H516    1.107   .     S
C504   H518    1.111   .     S
C504   N529    1.451   .     S
C505   C509    1.407   .     A
C506   C510    1.378   .     A
C507   C508    1.389   .     A
C507   C65     1.422   1_556 S
C508   H522    1.081   .     S
C508   C509    1.389   .     A
C509   N529    1.430   .     S
C510   H524    1.076   .     S
C511   H561    1.083   .     S
H514   C787    1.088   1_545 S
H515   N529    1.033   .     S
H519   C642    1.088   .     S
H520   N527    1.029   .     S
H521   N528    1.022   .     S
H525   C549    1.078   .     S
N527   N528    1.281   .     D
N527   Zn539   2.026   .     S
N528   Zn538   2.026   .     S
O530   Zn538   1.958   .     S
O530   C540    1.280   .     S
O531   Zn539   1.980   .     S
O532   Zn538   1.984   .     S
O532   C543    1.300   .     S
O533   Zn539   1.979   .     S
O534   Zn538   1.980   .     S
O535   Zn539   1.958   .     S
O536   Zn538   1.979   .     S
O537   Zn539   1.984   .     S
C540   O580    1.291   .     A
C540   C542    1.404   .     S
C541   C543    1.474   .     S
C541   C554    1.402   .     A
C541   C549    1.400   .     A
C542   C642    1.337   .     S
C542   H710    1.088   .     S
C543   O582    1.303   .     A
C544   C545    1.404   .     S
C544   C738    1.337   1_645 S
C544   H862    1.088   1_545 S
C545   O583    1.291   .     A
C545   O486    1.280   1_655 S
C546   O585    1.293   .     A
C546   C548    1.440   .     S
C546   O488    1.296   1_655 S
C547   C556    1.401   .     A
C547   H572    1.084   .     S
C547   C119    1.390   1_556 S
C548   C559    1.391   .     A
C548   C560    1.398   .     A
C549   C550    1.393   .     A
C550   C111    1.395   1_556 S
C550   H121    1.083   1_556 S
C551   C554    1.399   .     A
C551   C111    1.418   1_556 S
C551   C114    1.414   1_556 S
C552   H575    1.078   .     S
C553   H566    1.111   .     S
C553   H565    1.107   .     S
C553   H567    1.111   .     S
C553   N578    1.451   .     S
C554   C558    1.407   .     A
C555   C559    1.378   .     A
C556   C557    1.389   .     A
C556   C114    1.422   1_556 S
C557   H571    1.081   .     S
C557   C558    1.389   .     A
C558   N578    1.430   .     S
C559   H573    1.076   .     S
C560   H463    1.083   1_655 S
H563   C836    1.088   1_545 S
H564   N578    1.033   .     S
H568   C691    1.088   .     S
H569   N576    1.029   .     S
H570   N577    1.022   .     S
H574   C451    1.078   1_655 S
N576   N577    1.281   .     D
N576   Zn588   2.026   .     S
N577   Zn587   2.026   .     S
O579   Zn587   1.958   .     S
O579   C442    1.280   1_655 S
O580   Zn588   1.980   .     S
O581   Zn587   1.984   .     S
O581   C445    1.300   1_655 S
O582   Zn588   1.979   .     S
O583   Zn587   1.980   .     S
O584   Zn588   1.958   .     S
O585   Zn587   1.979   .     S
O586   Zn588   1.984   .     S
C589   O629    1.291   .     A
C589   C591    1.404   .     S
C589   O726    1.280   1_455 S
C590   C592    1.474   .     S
C590   C603    1.402   .     A
C590   C598    1.400   .     A
C591   C838    1.337   1_455 S
C591   H759    1.088   .     S
C592   O631    1.303   .     A
C592   O728    1.300   1_455 S
C593   C594    1.404   .     S
C594   O632    1.291   .     A
C594   O682    1.280   .     S
C595   O634    1.293   .     A
C595   C597    1.440   .     S
C595   O684    1.296   .     S
C596   C605    1.401   .     A
C596   H621    1.084   .     S
C596   C168    1.390   1_556 S
C597   C608    1.391   .     A
C597   C609    1.398   .     A
C598   C599    1.393   .     A
C598   H721    1.078   1_455 S
C599   C160    1.395   1_556 S
C599   H170    1.083   1_556 S
C600   C603    1.399   .     A
C600   C160    1.418   1_556 S
C600   C163    1.414   1_556 S
C601   H624    1.078   .     S
C602   H615    1.111   .     S
C602   H614    1.107   .     S
C602   H616    1.111   .     S
C602   N627    1.451   .     S
C603   C607    1.407   .     A
C604   C608    1.378   .     A
C605   C606    1.389   .     A
C605   C163    1.422   1_556 S
C606   H620    1.081   .     S
C606   C607    1.389   .     A
C607   N627    1.430   .     S
C608   H622    1.076   .     S
C609   H659    1.083   .     S
H610   C707    1.083   1_455 S
H613   N627    1.033   .     S
H617   C740    1.088   .     S
H618   N625    1.029   .     S
H619   N626    1.022   .     S
H623   C647    1.078   .     S
N625   N626    1.281   .     D
N625   Zn637   2.026   .     S
N626   Zn636   2.026   .     S
O628   Zn636   1.958   .     S
O628   C638    1.280   .     S
O629   Zn637   1.980   .     S
O630   Zn636   1.984   .     S
O630   C641    1.300   .     S
O631   Zn637   1.979   .     S
O632   Zn636   1.980   .     S
O633   Zn637   1.958   .     S
O633   C692    1.280   1_455 S
O634   Zn636   1.979   .     S
O635   Zn637   1.984   .     S
O635   C693    1.296   1_455 S
C638   O678    1.291   .     A
C638   C640    1.404   .     S
C639   C641    1.474   .     S
C639   C652    1.402   .     A
C639   C647    1.400   .     A
C640   C740    1.337   .     S
C640   H808    1.088   .     S
C641   O680    1.303   .     A
C642   C643    1.404   .     S
C643   O681    1.291   .     A
C643   O731    1.280   .     S
C644   O683    1.293   .     A
C644   C646    1.440   .     S
C644   O733    1.296   .     S
C645   C654    1.401   .     A
C645   H670    1.084   .     S
C645   C217    1.390   1_556 S
C646   C657    1.391   .     A
C646   C658    1.398   .     A
C647   C648    1.393   .     A
C648   C209    1.395   1_556 S
C648   H219    1.083   1_556 S
C649   C652    1.399   .     A
C649   C209    1.418   1_556 S
C649   C212    1.414   1_556 S
C650   H673    1.078   .     S
C651   H664    1.111   .     S
C651   H663    1.107   .     S
C651   H665    1.111   .     S
C651   N676    1.451   .     S
C652   C656    1.407   .     A
C653   C657    1.378   .     A
C654   C655    1.389   .     A
C654   C212    1.422   1_556 S
C655   H669    1.081   .     S
C655   C656    1.389   .     A
C656   N676    1.430   .     S
C657   H671    1.076   .     S
C658   H708    1.083   .     S
H662   N676    1.033   .     S
H666   C789    1.088   .     S
H667   N674    1.029   .     S
H668   N675    1.022   .     S
H672   C696    1.078   .     S
N674   N675    1.281   .     D
N674   Zn686   2.026   .     S
N675   Zn685   2.026   .     S
O677   Zn685   1.958   .     S
O677   C687    1.280   .     S
O678   Zn686   1.980   .     S
O679   Zn685   1.984   .     S
O679   C690    1.300   .     S
O680   Zn686   1.979   .     S
O681   Zn685   1.980   .     S
O682   Zn686   1.958   .     S
O683   Zn685   1.979   .     S
O684   Zn686   1.984   .     S
C687   O727    1.291   .     A
C687   C689    1.404   .     S
C688   C690    1.474   .     S
C688   C701    1.402   .     A
C688   C696    1.400   .     A
C689   C789    1.337   .     S
C689   H857    1.088   .     S
C690   O729    1.303   .     A
C691   C692    1.404   .     S
C691   C444    1.337   1_655 S
C692   O730    1.291   .     A
C692   O633    1.280   1_655 S
C693   O732    1.293   .     A
C693   C695    1.440   .     S
C693   O635    1.296   1_655 S
C694   C703    1.401   .     A
C694   H719    1.084   .     S
C694   C266    1.390   1_556 S
C695   C706    1.391   .     A
C695   C707    1.398   .     A
C696   C697    1.393   .     A
C697   C258    1.395   1_556 S
C697   H268    1.083   1_556 S
C698   C701    1.399   .     A
C698   C258    1.418   1_556 S
C698   C261    1.414   1_556 S
C699   H722    1.078   .     S
C700   H713    1.111   .     S
C700   H712    1.107   .     S
C700   H714    1.111   .     S
C700   N725    1.451   .     S
C701   C705    1.407   .     A
C702   C706    1.378   .     A
C703   C704    1.389   .     A
C703   C261    1.422   1_556 S
C704   H718    1.081   .     S
C704   C705    1.389   .     A
C705   N725    1.430   .     S
C706   H720    1.076   .     S
C707   H610    1.083   1_655 S
H711   N725    1.033   .     S
H715   C838    1.088   .     S
H716   N723    1.029   .     S
H717   N724    1.022   .     S
H721   C598    1.078   1_655 S
N723   N724    1.281   .     D
N723   Zn735   2.026   .     S
N724   Zn734   2.026   .     S
O726   Zn734   1.958   .     S
O726   C589    1.280   1_655 S
O727   Zn735   1.980   .     S
O728   Zn734   1.984   .     S
O728   C592    1.300   1_655 S
O729   Zn735   1.979   .     S
O730   Zn734   1.980   .     S
O731   Zn735   1.958   .     S
O732   Zn734   1.979   .     S
O733   Zn735   1.984   .     S
C736   O776    1.291   .     A
C736   C738    1.404   .     S
C736   O873    1.280   1_455 S
C737   C739    1.474   .     S
C737   C750    1.402   .     A
C737   C745    1.400   .     A
C738   C544    1.337   1_465 S
C738   H465    1.088   1_565 S
C739   O778    1.303   .     A
C739   O875    1.300   1_455 S
C740   C741    1.404   .     S
C741   O779    1.291   .     A
C741   O829    1.280   .     S
C742   O781    1.293   .     A
C742   C744    1.440   .     S
C742   O831    1.296   .     S
C743   C752    1.401   .     A
C743   H768    1.084   .     S
C743   C315    1.390   1_556 S
C744   C755    1.391   .     A
C744   C756    1.398   .     A
C745   C746    1.393   .     A
C745   H868    1.078   1_455 S
C746   C307    1.395   1_556 S
C746   H317    1.083   1_556 S
C747   C750    1.399   .     A
C747   C307    1.418   1_556 S
C747   C310    1.414   1_556 S
C748   H771    1.078   .     S
C749   H762    1.111   .     S
C749   H761    1.107   .     S
C749   H763    1.111   .     S
C749   N774    1.451   .     S
C750   C754    1.407   .     A
C751   C755    1.378   .     A
C752   C753    1.389   .     A
C752   C310    1.422   1_556 S
C753   H767    1.081   .     S
C753   C754    1.389   .     A
C754   N774    1.430   .     S
C755   H769    1.076   .     S
C756   H806    1.083   .     S
H757   C854    1.083   1_455 S
H760   N774    1.033   .     S
H764   C446    1.088   1_565 S
H765   N772    1.029   .     S
H766   N773    1.022   .     S
H770   C794    1.078   .     S
N772   N773    1.281   .     D
N772   Zn784   2.026   .     S
N773   Zn783   2.026   .     S
O775   Zn783   1.958   .     S
O775   C785    1.280   .     S
O776   Zn784   1.980   .     S
O777   Zn783   1.984   .     S
O777   C788    1.300   .     S
O778   Zn784   1.979   .     S
O779   Zn783   1.980   .     S
O780   Zn784   1.958   .     S
O780   C839    1.280   1_455 S
O781   Zn783   1.979   .     S
O782   Zn784   1.984   .     S
O782   C840    1.296   1_455 S
C785   O825    1.291   .     A
C785   C787    1.404   .     S
C786   C788    1.474   .     S
C786   C799    1.402   .     A
C786   C794    1.400   .     A
C787   C446    1.337   1_565 S
C787   H514    1.088   1_565 S
C788   O827    1.303   .     A
C789   C790    1.404   .     S
C790   O828    1.291   .     A
C790   O878    1.280   .     S
C791   O830    1.293   .     A
C791   C793    1.440   .     S
C791   O880    1.296   .     S
C792   C801    1.401   .     A
C792   H817    1.084   .     S
C792   C364    1.390   1_556 S
C793   C804    1.391   .     A
C793   C805    1.398   .     A
C794   C795    1.393   .     A
C795   C356    1.395   1_556 S
C795   H366    1.083   1_556 S
C796   C799    1.399   .     A
C796   C356    1.418   1_556 S
C796   C359    1.414   1_556 S
C797   H820    1.078   .     S
C798   H811    1.111   .     S
C798   H810    1.107   .     S
C798   H812    1.111   .     S
C798   N823    1.451   .     S
C799   C803    1.407   .     A
C800   C804    1.378   .     A
C801   C802    1.389   .     A
C801   C359    1.422   1_556 S
C802   H816    1.081   .     S
C802   C803    1.389   .     A
C803   N823    1.430   .     S
C804   H818    1.076   .     S
C805   H855    1.083   .     S
H809   N823    1.033   .     S
H813   C495    1.088   1_565 S
H814   N821    1.029   .     S
H815   N822    1.022   .     S
H819   C843    1.078   .     S
N821   N822    1.281   .     D
N821   Zn833   2.026   .     S
N822   Zn832   2.026   .     S
O824   Zn832   1.958   .     S
O824   C834    1.280   .     S
O825   Zn833   1.980   .     S
O826   Zn832   1.984   .     S
O826   C837    1.300   .     S
O827   Zn833   1.979   .     S
O828   Zn832   1.980   .     S
O829   Zn833   1.958   .     S
O830   Zn832   1.979   .     S
O831   Zn833   1.984   .     S
C834   O874    1.291   .     A
C834   C836    1.404   .     S
C835   C837    1.474   .     S
C835   C848    1.402   .     A
C835   C843    1.400   .     A
C836   C495    1.337   1_565 S
C836   H563    1.088   1_565 S
C837   O876    1.303   .     A
C838   C839    1.404   .     S
C838   C591    1.337   1_655 S
C839   O877    1.291   .     A
C839   O780    1.280   1_655 S
C840   O879    1.293   .     A
C840   C842    1.440   .     S
C840   O782    1.296   1_655 S
C841   C850    1.401   .     A
C841   H866    1.084   .     S
C841   C413    1.390   1_556 S
C842   C853    1.391   .     A
C842   C854    1.398   .     A
C843   C844    1.393   .     A
C844   C405    1.395   1_556 S
C844   H415    1.083   1_556 S
C845   C848    1.399   .     A
C845   C405    1.418   1_556 S
C845   C408    1.414   1_556 S
C846   H869    1.078   .     S
C847   H860    1.111   .     S
C847   H859    1.107   .     S
C847   H861    1.111   .     S
C847   N872    1.451   .     S
C848   C852    1.407   .     A
C849   C853    1.378   .     A
C850   C851    1.389   .     A
C850   C408    1.422   1_556 S
C851   H865    1.081   .     S
C851   C852    1.389   .     A
C852   N872    1.430   .     S
C853   H867    1.076   .     S
C854   H757    1.083   1_655 S
H858   N872    1.033   .     S
H862   C544    1.088   1_565 S
H863   N870    1.029   .     S
H864   N871    1.022   .     S
H868   C745    1.078   1_655 S
N870   N871    1.281   .     D
N870   Zn882   2.026   .     S
N871   Zn881   2.026   .     S
O873   Zn881   1.958   .     S
O873   C736    1.280   1_655 S
O874   Zn882   1.980   .     S
O875   Zn881   1.984   .     S
O875   C739    1.300   1_655 S
O876   Zn882   1.979   .     S
O877   Zn881   1.980   .     S
O878   Zn882   1.958   .     S
O879   Zn881   1.979   .     S
O880   Zn882   1.984   .     S
