data_str_m3_o2_o5_pcu_sym.54
_audit_creation_date              2020-01-03
_audit_creation_method            'Materials Studio'
_symmetry_space_group_name_H-M    'P1'
_symmetry_Int_Tables_number       1
_symmetry_cell_setting            triclinic
loop_
_symmetry_equiv_pos_as_xyz
  x,y,z
_cell_length_a                    29.9938
_cell_length_b                    28.6135
_cell_length_c                    26.7206
_cell_angle_alpha                 89.9993
_cell_angle_beta                  92.3239
_cell_angle_gamma                 89.9975
loop_
_atom_site_label
_atom_site_type_symbol
_atom_site_fract_x
_atom_site_fract_y
_atom_site_fract_z
_atom_site_U_iso_or_equiv
_atom_site_adp_type
_atom_site_occupancy
C1     C     0.16392   0.24991   0.16751   0.00000  Uiso   1.00
C2     C     0.23087   0.44783   0.12662   0.00000  Uiso   1.00
C3     C     0.24977   0.25000   0.07294   0.00000  Uiso   1.00
C4     C     0.25023   0.25000   0.26039   0.00000  Uiso   1.00
C5     C     0.25000   0.02656   0.16667   0.00000  Uiso   1.00
C6     C     0.25000   0.47357   0.16667   0.00000  Uiso   1.00
C7     C     0.24991   0.25000   0.02181   0.00000  Uiso   1.00
C8     C     0.25008   0.25000   0.31153   0.00000  Uiso   1.00
C9     C     0.04307   0.26642   0.13199   0.00000  Uiso   1.00
C10    C     0.44943   0.20732   0.13420   0.00000  Uiso   1.00
C11    C     0.45697   0.26647   0.20116   0.00000  Uiso   1.00
C12    C     0.33608   0.24990   0.16582   0.00000  Uiso   1.00
C13    C     0.05054   0.20731   0.19898   0.00000  Uiso   1.00
C14    C     0.08887   0.27396   0.13535   0.00000  Uiso   1.00
C15    C     0.40349   0.21581   0.13023   0.00000  Uiso   1.00
C16    C     0.41115   0.27398   0.19787   0.00000  Uiso   1.00
C17    C     0.09648   0.21581   0.20302   0.00000  Uiso   1.00
C18    C     0.11563   0.24839   0.17020   0.00000  Uiso   1.00
C19    C     0.38437   0.24838   0.16307   0.00000  Uiso   1.00
C20    C     0.02404   0.23372   0.16449   0.00000  Uiso   1.00
C21    C     0.47597   0.23375   0.16864   0.00000  Uiso   1.00
C22    C     0.10798   0.30980   0.10262   0.00000  Uiso   1.00
C23    C     0.21670   0.10149   0.14116   0.00000  Uiso   1.00
C24    C     0.37548   0.19238   0.09008   0.00000  Uiso   1.00
C25    C     0.39207   0.30980   0.23064   0.00000  Uiso   1.00
C26    C     0.12445   0.19240   0.24321   0.00000  Uiso   1.00
C27    C     0.27012   0.39862   0.20573   0.00000  Uiso   1.00
C28    C     0.28329   0.10149   0.19217   0.00000  Uiso   1.00
C29    C     0.22988   0.39863   0.12760   0.00000  Uiso   1.00
C30    C     0.21580   0.05228   0.14215   0.00000  Uiso   1.00
C31    C     0.26912   0.44783   0.20672   0.00000  Uiso   1.00
C32    C     0.28419   0.05228   0.19119   0.00000  Uiso   1.00
H33    H     0.18817   0.03448   0.12310   0.00000  Uiso   1.00
H34    H     0.49833   0.16702   0.11363   0.00000  Uiso   1.00
H35    H     0.01284   0.28147   0.23898   0.00000  Uiso   1.00
H36    H     0.00166   0.16696   0.21944   0.00000  Uiso   1.00
H37    H     0.12666   0.33858   0.11923   0.00000  Uiso   1.00
H38    H     0.34432   0.20813   0.07675   0.00000  Uiso   1.00
H39    H     0.37333   0.33856   0.21407   0.00000  Uiso   1.00
H40    H     0.15560   0.20815   0.25656   0.00000  Uiso   1.00
H41    H     0.28395   0.46562   0.23903   0.00000  Uiso   1.00
H42    H     0.31182   0.03448   0.21024   0.00000  Uiso   1.00
H43    H     0.21605   0.46562   0.09430   0.00000  Uiso   1.00
H44    H     0.19394   0.15416   0.10382   0.00000  Uiso   1.00
H45    H     0.30259   0.34665   0.23293   0.00000  Uiso   1.00
H46    H     0.30606   0.15416   0.22950   0.00000  Uiso   1.00
H47    H     0.19741   0.34666   0.10041   0.00000  Uiso   1.00
H48    H     0.48727   0.28126   0.09395   0.00000  Uiso   1.00
N49    N     0.25000   0.12623   0.16667   0.00000  Uiso   1.00
N50    N     0.25000   0.37377   0.16667   0.00000  Uiso   1.00
O51    O     0.18453   0.28974   0.16667   0.00000  Uiso   1.00
O52    O     0.29213   0.37688   0.24522   0.00000  Uiso   1.00
O53    O     0.31698   0.12329   0.21958   0.00000  Uiso   1.00
O54    O     0.20787   0.37688   0.08811   0.00000  Uiso   1.00
O55    O     0.01788   0.29366   0.09849   0.00000  Uiso   1.00
O56    O     0.46778   0.17563   0.10167   0.00000  Uiso   1.00
O57    O     0.48217   0.29374   0.23461   0.00000  Uiso   1.00
O58    O     0.03216   0.17563   0.23150   0.00000  Uiso   1.00
O59    O     0.10169   0.30806   0.05722   0.00000  Uiso   1.00
O60    O     0.38649   0.15527   0.07170   0.00000  Uiso   1.00
O61    O     0.39843   0.30808   0.27603   0.00000  Uiso   1.00
O62    O     0.31547   0.21026   0.16666   0.00000  Uiso   1.00
O63    O     0.11342   0.15529   0.26159   0.00000  Uiso   1.00
O64    O     0.31547   0.28974   0.16666   0.00000  Uiso   1.00
O65    O     0.18453   0.21026   0.16667   0.00000  Uiso   1.00
O66    O     0.25000   0.28973   0.09511   0.00000  Uiso   1.00
O67    O     0.25000   0.21027   0.23822   0.00000  Uiso   1.00
O68    O     0.25000   0.28973   0.23822   0.00000  Uiso   1.00
O69    O     0.25000   0.21027   0.09511   0.00000  Uiso   1.00
O70    O     0.18301   0.12330   0.11376   0.00000  Uiso   1.00
Zn71   Zn    0.25000   0.30307   0.16667   0.00000  Uiso   1.00
Zn72   Zn    0.25000   0.19693   0.16667   0.00000  Uiso   1.00
C73    C     0.66392   0.24991   0.16751   0.00000  Uiso   1.00
C74    C     0.73087   0.44783   0.12662   0.00000  Uiso   1.00
C75    C     0.74977   0.25000   0.07294   0.00000  Uiso   1.00
C76    C     0.75023   0.25000   0.26039   0.00000  Uiso   1.00
C77    C     0.75000   0.02656   0.16667   0.00000  Uiso   1.00
C78    C     0.75000   0.47357   0.16667   0.00000  Uiso   1.00
C79    C     0.74991   0.25000   0.02181   0.00000  Uiso   1.00
C80    C     0.75008   0.25000   0.31153   0.00000  Uiso   1.00
C81    C     0.54307   0.26642   0.13199   0.00000  Uiso   1.00
C82    C     0.94943   0.20732   0.13420   0.00000  Uiso   1.00
C83    C     0.95697   0.26647   0.20116   0.00000  Uiso   1.00
C84    C     0.83608   0.24990   0.16582   0.00000  Uiso   1.00
C85    C     0.55054   0.20731   0.19898   0.00000  Uiso   1.00
C86    C     0.58887   0.27396   0.13535   0.00000  Uiso   1.00
C87    C     0.90349   0.21581   0.13023   0.00000  Uiso   1.00
C88    C     0.91115   0.27398   0.19787   0.00000  Uiso   1.00
C89    C     0.59648   0.21581   0.20302   0.00000  Uiso   1.00
C90    C     0.61563   0.24839   0.17020   0.00000  Uiso   1.00
C91    C     0.88437   0.24838   0.16307   0.00000  Uiso   1.00
C92    C     0.52404   0.23372   0.16449   0.00000  Uiso   1.00
C93    C     0.97597   0.23375   0.16864   0.00000  Uiso   1.00
C94    C     0.60798   0.30980   0.10262   0.00000  Uiso   1.00
C95    C     0.71670   0.10149   0.14116   0.00000  Uiso   1.00
C96    C     0.87548   0.19238   0.09008   0.00000  Uiso   1.00
C97    C     0.89207   0.30980   0.23064   0.00000  Uiso   1.00
C98    C     0.62445   0.19240   0.24321   0.00000  Uiso   1.00
C99    C     0.77012   0.39862   0.20573   0.00000  Uiso   1.00
C100   C     0.78329   0.10149   0.19217   0.00000  Uiso   1.00
C101   C     0.72988   0.39863   0.12760   0.00000  Uiso   1.00
C102   C     0.71580   0.05228   0.14215   0.00000  Uiso   1.00
C103   C     0.76912   0.44783   0.20672   0.00000  Uiso   1.00
C104   C     0.78419   0.05228   0.19119   0.00000  Uiso   1.00
H105   H     0.68817   0.03448   0.12310   0.00000  Uiso   1.00
H106   H     0.99833   0.16702   0.11363   0.00000  Uiso   1.00
H107   H     0.51284   0.28147   0.23898   0.00000  Uiso   1.00
H108   H     0.50166   0.16696   0.21944   0.00000  Uiso   1.00
H109   H     0.62666   0.33858   0.11923   0.00000  Uiso   1.00
H110   H     0.84432   0.20813   0.07675   0.00000  Uiso   1.00
H111   H     0.87333   0.33856   0.21407   0.00000  Uiso   1.00
H112   H     0.65560   0.20815   0.25656   0.00000  Uiso   1.00
H113   H     0.78395   0.46562   0.23903   0.00000  Uiso   1.00
H114   H     0.81182   0.03448   0.21024   0.00000  Uiso   1.00
H115   H     0.71605   0.46562   0.09430   0.00000  Uiso   1.00
H116   H     0.69394   0.15416   0.10382   0.00000  Uiso   1.00
H117   H     0.80259   0.34665   0.23293   0.00000  Uiso   1.00
H118   H     0.80606   0.15416   0.22950   0.00000  Uiso   1.00
H119   H     0.69741   0.34666   0.10041   0.00000  Uiso   1.00
H120   H     0.98727   0.28126   0.09395   0.00000  Uiso   1.00
N121   N     0.75000   0.12623   0.16667   0.00000  Uiso   1.00
N122   N     0.75000   0.37377   0.16667   0.00000  Uiso   1.00
O123   O     0.68453   0.28974   0.16667   0.00000  Uiso   1.00
O124   O     0.79213   0.37688   0.24522   0.00000  Uiso   1.00
O125   O     0.81698   0.12329   0.21958   0.00000  Uiso   1.00
O126   O     0.70787   0.37688   0.08811   0.00000  Uiso   1.00
O127   O     0.51788   0.29366   0.09849   0.00000  Uiso   1.00
O128   O     0.96778   0.17563   0.10167   0.00000  Uiso   1.00
O129   O     0.98217   0.29374   0.23461   0.00000  Uiso   1.00
O130   O     0.53216   0.17563   0.23150   0.00000  Uiso   1.00
O131   O     0.60169   0.30806   0.05722   0.00000  Uiso   1.00
O132   O     0.88649   0.15527   0.07170   0.00000  Uiso   1.00
O133   O     0.89843   0.30808   0.27603   0.00000  Uiso   1.00
O134   O     0.81547   0.21026   0.16666   0.00000  Uiso   1.00
O135   O     0.61342   0.15529   0.26159   0.00000  Uiso   1.00
O136   O     0.81547   0.28974   0.16666   0.00000  Uiso   1.00
O137   O     0.68453   0.21026   0.16667   0.00000  Uiso   1.00
O138   O     0.75000   0.28973   0.09511   0.00000  Uiso   1.00
O139   O     0.75000   0.21027   0.23822   0.00000  Uiso   1.00
O140   O     0.75000   0.28973   0.23822   0.00000  Uiso   1.00
O141   O     0.75000   0.21027   0.09511   0.00000  Uiso   1.00
O142   O     0.68301   0.12330   0.11376   0.00000  Uiso   1.00
Zn143  Zn    0.75000   0.30307   0.16667   0.00000  Uiso   1.00
Zn144  Zn    0.75000   0.19693   0.16667   0.00000  Uiso   1.00
C145   C     0.16392   0.74991   0.16751   0.00000  Uiso   1.00
C146   C     0.23087   0.94783   0.12662   0.00000  Uiso   1.00
C147   C     0.24977   0.75000   0.07294   0.00000  Uiso   1.00
C148   C     0.25023   0.75000   0.26039   0.00000  Uiso   1.00
C149   C     0.25000   0.52656   0.16667   0.00000  Uiso   1.00
C150   C     0.25000   0.97357   0.16667   0.00000  Uiso   1.00
C151   C     0.24991   0.75000   0.02181   0.00000  Uiso   1.00
C152   C     0.25008   0.75000   0.31153   0.00000  Uiso   1.00
C153   C     0.04307   0.76642   0.13199   0.00000  Uiso   1.00
C154   C     0.44943   0.70732   0.13420   0.00000  Uiso   1.00
C155   C     0.45697   0.76647   0.20116   0.00000  Uiso   1.00
C156   C     0.33608   0.74990   0.16582   0.00000  Uiso   1.00
C157   C     0.05054   0.70731   0.19898   0.00000  Uiso   1.00
C158   C     0.08887   0.77396   0.13535   0.00000  Uiso   1.00
C159   C     0.40349   0.71581   0.13023   0.00000  Uiso   1.00
C160   C     0.41115   0.77398   0.19787   0.00000  Uiso   1.00
C161   C     0.09648   0.71581   0.20302   0.00000  Uiso   1.00
C162   C     0.11563   0.74839   0.17020   0.00000  Uiso   1.00
C163   C     0.38437   0.74838   0.16307   0.00000  Uiso   1.00
C164   C     0.02404   0.73372   0.16449   0.00000  Uiso   1.00
C165   C     0.47597   0.73375   0.16864   0.00000  Uiso   1.00
C166   C     0.10798   0.80980   0.10262   0.00000  Uiso   1.00
C167   C     0.21670   0.60149   0.14116   0.00000  Uiso   1.00
C168   C     0.37548   0.69238   0.09008   0.00000  Uiso   1.00
C169   C     0.39207   0.80980   0.23064   0.00000  Uiso   1.00
C170   C     0.12445   0.69240   0.24321   0.00000  Uiso   1.00
C171   C     0.27012   0.89862   0.20573   0.00000  Uiso   1.00
C172   C     0.28329   0.60149   0.19217   0.00000  Uiso   1.00
C173   C     0.22988   0.89863   0.12760   0.00000  Uiso   1.00
C174   C     0.21580   0.55228   0.14215   0.00000  Uiso   1.00
C175   C     0.26912   0.94783   0.20672   0.00000  Uiso   1.00
C176   C     0.28419   0.55228   0.19119   0.00000  Uiso   1.00
H177   H     0.18817   0.53448   0.12310   0.00000  Uiso   1.00
H178   H     0.49833   0.66702   0.11363   0.00000  Uiso   1.00
H179   H     0.01284   0.78147   0.23898   0.00000  Uiso   1.00
H180   H     0.00166   0.66696   0.21944   0.00000  Uiso   1.00
H181   H     0.12666   0.83858   0.11923   0.00000  Uiso   1.00
H182   H     0.34432   0.70813   0.07675   0.00000  Uiso   1.00
H183   H     0.37333   0.83856   0.21407   0.00000  Uiso   1.00
H184   H     0.15560   0.70815   0.25656   0.00000  Uiso   1.00
H185   H     0.28395   0.96562   0.23903   0.00000  Uiso   1.00
H186   H     0.31182   0.53448   0.21024   0.00000  Uiso   1.00
H187   H     0.21605   0.96562   0.09430   0.00000  Uiso   1.00
H188   H     0.19394   0.65416   0.10382   0.00000  Uiso   1.00
H189   H     0.30259   0.84665   0.23293   0.00000  Uiso   1.00
H190   H     0.30606   0.65416   0.22950   0.00000  Uiso   1.00
H191   H     0.19741   0.84666   0.10041   0.00000  Uiso   1.00
H192   H     0.48727   0.78126   0.09395   0.00000  Uiso   1.00
N193   N     0.25000   0.62623   0.16667   0.00000  Uiso   1.00
N194   N     0.25000   0.87377   0.16667   0.00000  Uiso   1.00
O195   O     0.18453   0.78974   0.16667   0.00000  Uiso   1.00
O196   O     0.29213   0.87688   0.24522   0.00000  Uiso   1.00
O197   O     0.31698   0.62329   0.21958   0.00000  Uiso   1.00
O198   O     0.20787   0.87688   0.08811   0.00000  Uiso   1.00
O199   O     0.01788   0.79366   0.09849   0.00000  Uiso   1.00
O200   O     0.46778   0.67563   0.10167   0.00000  Uiso   1.00
O201   O     0.48217   0.79374   0.23461   0.00000  Uiso   1.00
O202   O     0.03216   0.67563   0.23150   0.00000  Uiso   1.00
O203   O     0.10169   0.80806   0.05722   0.00000  Uiso   1.00
O204   O     0.38649   0.65527   0.07170   0.00000  Uiso   1.00
O205   O     0.39843   0.80808   0.27603   0.00000  Uiso   1.00
O206   O     0.31547   0.71026   0.16666   0.00000  Uiso   1.00
O207   O     0.11342   0.65529   0.26159   0.00000  Uiso   1.00
O208   O     0.31547   0.78974   0.16666   0.00000  Uiso   1.00
O209   O     0.18453   0.71026   0.16667   0.00000  Uiso   1.00
O210   O     0.25000   0.78973   0.09511   0.00000  Uiso   1.00
O211   O     0.25000   0.71027   0.23822   0.00000  Uiso   1.00
O212   O     0.25000   0.78973   0.23822   0.00000  Uiso   1.00
O213   O     0.25000   0.71027   0.09511   0.00000  Uiso   1.00
O214   O     0.18301   0.62330   0.11376   0.00000  Uiso   1.00
Zn215  Zn    0.25000   0.80307   0.16667   0.00000  Uiso   1.00
Zn216  Zn    0.25000   0.69693   0.16667   0.00000  Uiso   1.00
C217   C     0.66392   0.74991   0.16751   0.00000  Uiso   1.00
C218   C     0.73087   0.94783   0.12662   0.00000  Uiso   1.00
C219   C     0.74977   0.75000   0.07294   0.00000  Uiso   1.00
C220   C     0.75023   0.75000   0.26039   0.00000  Uiso   1.00
C221   C     0.75000   0.52656   0.16667   0.00000  Uiso   1.00
C222   C     0.75000   0.97357   0.16667   0.00000  Uiso   1.00
C223   C     0.74991   0.75000   0.02181   0.00000  Uiso   1.00
C224   C     0.75008   0.75000   0.31153   0.00000  Uiso   1.00
C225   C     0.54307   0.76642   0.13199   0.00000  Uiso   1.00
C226   C     0.94943   0.70732   0.13420   0.00000  Uiso   1.00
C227   C     0.95697   0.76647   0.20116   0.00000  Uiso   1.00
C228   C     0.83608   0.74990   0.16582   0.00000  Uiso   1.00
C229   C     0.55054   0.70731   0.19898   0.00000  Uiso   1.00
C230   C     0.58887   0.77396   0.13535   0.00000  Uiso   1.00
C231   C     0.90349   0.71581   0.13023   0.00000  Uiso   1.00
C232   C     0.91115   0.77398   0.19787   0.00000  Uiso   1.00
C233   C     0.59648   0.71581   0.20302   0.00000  Uiso   1.00
C234   C     0.61563   0.74839   0.17020   0.00000  Uiso   1.00
C235   C     0.88437   0.74838   0.16307   0.00000  Uiso   1.00
C236   C     0.52404   0.73372   0.16449   0.00000  Uiso   1.00
C237   C     0.97597   0.73375   0.16864   0.00000  Uiso   1.00
C238   C     0.60798   0.80980   0.10262   0.00000  Uiso   1.00
C239   C     0.71670   0.60149   0.14116   0.00000  Uiso   1.00
C240   C     0.87548   0.69238   0.09008   0.00000  Uiso   1.00
C241   C     0.89207   0.80980   0.23064   0.00000  Uiso   1.00
C242   C     0.62445   0.69240   0.24321   0.00000  Uiso   1.00
C243   C     0.77012   0.89862   0.20573   0.00000  Uiso   1.00
C244   C     0.78329   0.60149   0.19217   0.00000  Uiso   1.00
C245   C     0.72988   0.89863   0.12760   0.00000  Uiso   1.00
C246   C     0.71580   0.55228   0.14215   0.00000  Uiso   1.00
C247   C     0.76912   0.94783   0.20672   0.00000  Uiso   1.00
C248   C     0.78419   0.55228   0.19119   0.00000  Uiso   1.00
H249   H     0.68817   0.53448   0.12310   0.00000  Uiso   1.00
H250   H     0.99833   0.66702   0.11363   0.00000  Uiso   1.00
H251   H     0.51284   0.78147   0.23898   0.00000  Uiso   1.00
H252   H     0.50166   0.66696   0.21944   0.00000  Uiso   1.00
H253   H     0.62666   0.83858   0.11923   0.00000  Uiso   1.00
H254   H     0.84432   0.70813   0.07675   0.00000  Uiso   1.00
H255   H     0.87333   0.83856   0.21407   0.00000  Uiso   1.00
H256   H     0.65560   0.70815   0.25656   0.00000  Uiso   1.00
H257   H     0.78395   0.96562   0.23903   0.00000  Uiso   1.00
H258   H     0.81182   0.53448   0.21024   0.00000  Uiso   1.00
H259   H     0.71605   0.96562   0.09430   0.00000  Uiso   1.00
H260   H     0.69394   0.65416   0.10382   0.00000  Uiso   1.00
H261   H     0.80259   0.84665   0.23293   0.00000  Uiso   1.00
H262   H     0.80606   0.65416   0.22950   0.00000  Uiso   1.00
H263   H     0.69741   0.84666   0.10041   0.00000  Uiso   1.00
H264   H     0.98727   0.78126   0.09395   0.00000  Uiso   1.00
N265   N     0.75000   0.62623   0.16667   0.00000  Uiso   1.00
N266   N     0.75000   0.87377   0.16667   0.00000  Uiso   1.00
O267   O     0.68453   0.78974   0.16667   0.00000  Uiso   1.00
O268   O     0.79213   0.87688   0.24522   0.00000  Uiso   1.00
O269   O     0.81698   0.62329   0.21958   0.00000  Uiso   1.00
O270   O     0.70787   0.87688   0.08811   0.00000  Uiso   1.00
O271   O     0.51788   0.79366   0.09849   0.00000  Uiso   1.00
O272   O     0.96778   0.67563   0.10167   0.00000  Uiso   1.00
O273   O     0.98217   0.79374   0.23461   0.00000  Uiso   1.00
O274   O     0.53216   0.67563   0.23150   0.00000  Uiso   1.00
O275   O     0.60169   0.80806   0.05722   0.00000  Uiso   1.00
O276   O     0.88649   0.65527   0.07170   0.00000  Uiso   1.00
O277   O     0.89843   0.80808   0.27603   0.00000  Uiso   1.00
O278   O     0.81547   0.71026   0.16666   0.00000  Uiso   1.00
O279   O     0.61342   0.65529   0.26159   0.00000  Uiso   1.00
O280   O     0.81547   0.78974   0.16666   0.00000  Uiso   1.00
O281   O     0.68453   0.71026   0.16667   0.00000  Uiso   1.00
O282   O     0.75000   0.78973   0.09511   0.00000  Uiso   1.00
O283   O     0.75000   0.71027   0.23822   0.00000  Uiso   1.00
O284   O     0.75000   0.78973   0.23822   0.00000  Uiso   1.00
O285   O     0.75000   0.71027   0.09511   0.00000  Uiso   1.00
O286   O     0.68301   0.62330   0.11376   0.00000  Uiso   1.00
Zn287  Zn    0.75000   0.80307   0.16667   0.00000  Uiso   1.00
Zn288  Zn    0.75000   0.69693   0.16667   0.00000  Uiso   1.00
C289   C     0.16392   0.24991   0.50084   0.00000  Uiso   1.00
C290   C     0.23087   0.44783   0.45995   0.00000  Uiso   1.00
C291   C     0.24977   0.25000   0.40628   0.00000  Uiso   1.00
C292   C     0.25023   0.25000   0.59372   0.00000  Uiso   1.00
C293   C     0.25000   0.02656   0.50000   0.00000  Uiso   1.00
C294   C     0.25000   0.47357   0.50000   0.00000  Uiso   1.00
C295   C     0.24991   0.25000   0.35514   0.00000  Uiso   1.00
C296   C     0.25008   0.25000   0.64486   0.00000  Uiso   1.00
C297   C     0.04307   0.26642   0.46532   0.00000  Uiso   1.00
C298   C     0.44943   0.20732   0.46754   0.00000  Uiso   1.00
C299   C     0.45697   0.26647   0.53449   0.00000  Uiso   1.00
C300   C     0.33608   0.24990   0.49915   0.00000  Uiso   1.00
C301   C     0.05054   0.20731   0.53231   0.00000  Uiso   1.00
C302   C     0.08887   0.27396   0.46869   0.00000  Uiso   1.00
C303   C     0.40349   0.21581   0.46356   0.00000  Uiso   1.00
C304   C     0.41115   0.27398   0.53120   0.00000  Uiso   1.00
C305   C     0.09648   0.21581   0.53635   0.00000  Uiso   1.00
C306   C     0.11563   0.24839   0.50353   0.00000  Uiso   1.00
C307   C     0.38437   0.24838   0.49641   0.00000  Uiso   1.00
C308   C     0.02404   0.23372   0.49783   0.00000  Uiso   1.00
C309   C     0.47597   0.23375   0.50197   0.00000  Uiso   1.00
C310   C     0.10798   0.30980   0.43595   0.00000  Uiso   1.00
C311   C     0.21670   0.10149   0.47449   0.00000  Uiso   1.00
C312   C     0.37548   0.19238   0.42341   0.00000  Uiso   1.00
C313   C     0.39207   0.30980   0.56398   0.00000  Uiso   1.00
C314   C     0.12445   0.19240   0.57654   0.00000  Uiso   1.00
C315   C     0.27012   0.39862   0.53907   0.00000  Uiso   1.00
C316   C     0.28329   0.10149   0.52551   0.00000  Uiso   1.00
C317   C     0.22988   0.39863   0.46093   0.00000  Uiso   1.00
C318   C     0.21580   0.05228   0.47549   0.00000  Uiso   1.00
C319   C     0.26912   0.44783   0.54005   0.00000  Uiso   1.00
C320   C     0.28419   0.05228   0.52452   0.00000  Uiso   1.00
H321   H     0.18817   0.03448   0.45644   0.00000  Uiso   1.00
H322   H     0.49833   0.16702   0.44696   0.00000  Uiso   1.00
H323   H     0.01284   0.28147   0.57231   0.00000  Uiso   1.00
H324   H     0.00166   0.16696   0.55277   0.00000  Uiso   1.00
H325   H     0.12666   0.33858   0.45256   0.00000  Uiso   1.00
H326   H     0.34432   0.20813   0.41009   0.00000  Uiso   1.00
H327   H     0.37333   0.33856   0.54740   0.00000  Uiso   1.00
H328   H     0.15560   0.20815   0.58989   0.00000  Uiso   1.00
H329   H     0.28395   0.46562   0.57237   0.00000  Uiso   1.00
H330   H     0.31182   0.03448   0.54357   0.00000  Uiso   1.00
H331   H     0.21605   0.46562   0.42764   0.00000  Uiso   1.00
H332   H     0.19394   0.15416   0.43716   0.00000  Uiso   1.00
H333   H     0.30259   0.34665   0.56626   0.00000  Uiso   1.00
H334   H     0.30606   0.15416   0.56284   0.00000  Uiso   1.00
H335   H     0.19741   0.34666   0.43374   0.00000  Uiso   1.00
H336   H     0.48727   0.28126   0.42728   0.00000  Uiso   1.00
N337   N     0.25000   0.12623   0.50000   0.00000  Uiso   1.00
N338   N     0.25000   0.37377   0.50000   0.00000  Uiso   1.00
O339   O     0.18453   0.28974   0.50000   0.00000  Uiso   1.00
O340   O     0.29213   0.37688   0.57856   0.00000  Uiso   1.00
O341   O     0.31698   0.12329   0.55291   0.00000  Uiso   1.00
O342   O     0.20787   0.37688   0.42145   0.00000  Uiso   1.00
O343   O     0.01788   0.29366   0.43182   0.00000  Uiso   1.00
O344   O     0.46778   0.17563   0.43500   0.00000  Uiso   1.00
O345   O     0.48217   0.29374   0.56794   0.00000  Uiso   1.00
O346   O     0.03216   0.17563   0.56483   0.00000  Uiso   1.00
O347   O     0.10169   0.30806   0.39055   0.00000  Uiso   1.00
O348   O     0.38649   0.15527   0.40504   0.00000  Uiso   1.00
O349   O     0.39843   0.30808   0.60936   0.00000  Uiso   1.00
O350   O     0.31547   0.21026   0.50000   0.00000  Uiso   1.00
O351   O     0.11342   0.15529   0.59492   0.00000  Uiso   1.00
O352   O     0.31547   0.28974   0.50000   0.00000  Uiso   1.00
O353   O     0.18453   0.21026   0.50000   0.00000  Uiso   1.00
O354   O     0.25000   0.28973   0.42845   0.00000  Uiso   1.00
O355   O     0.25000   0.21027   0.57155   0.00000  Uiso   1.00
O356   O     0.25000   0.28973   0.57155   0.00000  Uiso   1.00
O357   O     0.25000   0.21027   0.42845   0.00000  Uiso   1.00
O358   O     0.18301   0.12330   0.44709   0.00000  Uiso   1.00
Zn359  Zn    0.25000   0.30307   0.50000   0.00000  Uiso   1.00
Zn360  Zn    0.25000   0.19693   0.50000   0.00000  Uiso   1.00
C361   C     0.66392   0.24991   0.50084   0.00000  Uiso   1.00
C362   C     0.73087   0.44783   0.45995   0.00000  Uiso   1.00
C363   C     0.74977   0.25000   0.40628   0.00000  Uiso   1.00
C364   C     0.75023   0.25000   0.59372   0.00000  Uiso   1.00
C365   C     0.75000   0.02656   0.50000   0.00000  Uiso   1.00
C366   C     0.75000   0.47357   0.50000   0.00000  Uiso   1.00
C367   C     0.74991   0.25000   0.35514   0.00000  Uiso   1.00
C368   C     0.75008   0.25000   0.64486   0.00000  Uiso   1.00
C369   C     0.54307   0.26642   0.46532   0.00000  Uiso   1.00
C370   C     0.94943   0.20732   0.46754   0.00000  Uiso   1.00
C371   C     0.95697   0.26647   0.53449   0.00000  Uiso   1.00
C372   C     0.83608   0.24990   0.49915   0.00000  Uiso   1.00
C373   C     0.55054   0.20731   0.53231   0.00000  Uiso   1.00
C374   C     0.58887   0.27396   0.46869   0.00000  Uiso   1.00
C375   C     0.90349   0.21581   0.46356   0.00000  Uiso   1.00
C376   C     0.91115   0.27398   0.53120   0.00000  Uiso   1.00
C377   C     0.59648   0.21581   0.53635   0.00000  Uiso   1.00
C378   C     0.61563   0.24839   0.50353   0.00000  Uiso   1.00
C379   C     0.88437   0.24838   0.49641   0.00000  Uiso   1.00
C380   C     0.52404   0.23372   0.49783   0.00000  Uiso   1.00
C381   C     0.97597   0.23375   0.50197   0.00000  Uiso   1.00
C382   C     0.60798   0.30980   0.43595   0.00000  Uiso   1.00
C383   C     0.71670   0.10149   0.47449   0.00000  Uiso   1.00
C384   C     0.87548   0.19238   0.42341   0.00000  Uiso   1.00
C385   C     0.89207   0.30980   0.56398   0.00000  Uiso   1.00
C386   C     0.62445   0.19240   0.57654   0.00000  Uiso   1.00
C387   C     0.77012   0.39862   0.53907   0.00000  Uiso   1.00
C388   C     0.78329   0.10149   0.52551   0.00000  Uiso   1.00
C389   C     0.72988   0.39863   0.46093   0.00000  Uiso   1.00
C390   C     0.71580   0.05228   0.47549   0.00000  Uiso   1.00
C391   C     0.76912   0.44783   0.54005   0.00000  Uiso   1.00
C392   C     0.78419   0.05228   0.52452   0.00000  Uiso   1.00
H393   H     0.68817   0.03448   0.45644   0.00000  Uiso   1.00
H394   H     0.99833   0.16702   0.44696   0.00000  Uiso   1.00
H395   H     0.51284   0.28147   0.57231   0.00000  Uiso   1.00
H396   H     0.50166   0.16696   0.55277   0.00000  Uiso   1.00
H397   H     0.62666   0.33858   0.45256   0.00000  Uiso   1.00
H398   H     0.84432   0.20813   0.41009   0.00000  Uiso   1.00
H399   H     0.87333   0.33856   0.54740   0.00000  Uiso   1.00
H400   H     0.65560   0.20815   0.58989   0.00000  Uiso   1.00
H401   H     0.78395   0.46562   0.57237   0.00000  Uiso   1.00
H402   H     0.81182   0.03448   0.54357   0.00000  Uiso   1.00
H403   H     0.71605   0.46562   0.42764   0.00000  Uiso   1.00
H404   H     0.69394   0.15416   0.43716   0.00000  Uiso   1.00
H405   H     0.80259   0.34665   0.56626   0.00000  Uiso   1.00
H406   H     0.80606   0.15416   0.56284   0.00000  Uiso   1.00
H407   H     0.69741   0.34666   0.43374   0.00000  Uiso   1.00
H408   H     0.98727   0.28126   0.42728   0.00000  Uiso   1.00
N409   N     0.75000   0.12623   0.50000   0.00000  Uiso   1.00
N410   N     0.75000   0.37377   0.50000   0.00000  Uiso   1.00
O411   O     0.68453   0.28974   0.50000   0.00000  Uiso   1.00
O412   O     0.79213   0.37688   0.57856   0.00000  Uiso   1.00
O413   O     0.81698   0.12329   0.55291   0.00000  Uiso   1.00
O414   O     0.70787   0.37688   0.42145   0.00000  Uiso   1.00
O415   O     0.51788   0.29366   0.43182   0.00000  Uiso   1.00
O416   O     0.96778   0.17563   0.43500   0.00000  Uiso   1.00
O417   O     0.98217   0.29374   0.56794   0.00000  Uiso   1.00
O418   O     0.53216   0.17563   0.56483   0.00000  Uiso   1.00
O419   O     0.60169   0.30806   0.39055   0.00000  Uiso   1.00
O420   O     0.88649   0.15527   0.40504   0.00000  Uiso   1.00
O421   O     0.89843   0.30808   0.60936   0.00000  Uiso   1.00
O422   O     0.81547   0.21026   0.50000   0.00000  Uiso   1.00
O423   O     0.61342   0.15529   0.59492   0.00000  Uiso   1.00
O424   O     0.81547   0.28974   0.50000   0.00000  Uiso   1.00
O425   O     0.68453   0.21026   0.50000   0.00000  Uiso   1.00
O426   O     0.75000   0.28973   0.42845   0.00000  Uiso   1.00
O427   O     0.75000   0.21027   0.57155   0.00000  Uiso   1.00
O428   O     0.75000   0.28973   0.57155   0.00000  Uiso   1.00
O429   O     0.75000   0.21027   0.42845   0.00000  Uiso   1.00
O430   O     0.68301   0.12330   0.44709   0.00000  Uiso   1.00
Zn431  Zn    0.75000   0.30307   0.50000   0.00000  Uiso   1.00
Zn432  Zn    0.75000   0.19693   0.50000   0.00000  Uiso   1.00
C433   C     0.16392   0.74991   0.50084   0.00000  Uiso   1.00
C434   C     0.23087   0.94783   0.45995   0.00000  Uiso   1.00
C435   C     0.24977   0.75000   0.40628   0.00000  Uiso   1.00
C436   C     0.25023   0.75000   0.59372   0.00000  Uiso   1.00
C437   C     0.25000   0.52656   0.50000   0.00000  Uiso   1.00
C438   C     0.25000   0.97357   0.50000   0.00000  Uiso   1.00
C439   C     0.24991   0.75000   0.35514   0.00000  Uiso   1.00
C440   C     0.25008   0.75000   0.64486   0.00000  Uiso   1.00
C441   C     0.04307   0.76642   0.46532   0.00000  Uiso   1.00
C442   C     0.44943   0.70732   0.46754   0.00000  Uiso   1.00
C443   C     0.45697   0.76647   0.53449   0.00000  Uiso   1.00
C444   C     0.33608   0.74990   0.49915   0.00000  Uiso   1.00
C445   C     0.05054   0.70731   0.53231   0.00000  Uiso   1.00
C446   C     0.08887   0.77396   0.46869   0.00000  Uiso   1.00
C447   C     0.40349   0.71581   0.46356   0.00000  Uiso   1.00
C448   C     0.41115   0.77398   0.53120   0.00000  Uiso   1.00
C449   C     0.09648   0.71581   0.53635   0.00000  Uiso   1.00
C450   C     0.11563   0.74839   0.50353   0.00000  Uiso   1.00
C451   C     0.38437   0.74838   0.49641   0.00000  Uiso   1.00
C452   C     0.02404   0.73372   0.49783   0.00000  Uiso   1.00
C453   C     0.47597   0.73375   0.50197   0.00000  Uiso   1.00
C454   C     0.10798   0.80980   0.43595   0.00000  Uiso   1.00
C455   C     0.21670   0.60149   0.47449   0.00000  Uiso   1.00
C456   C     0.37548   0.69238   0.42341   0.00000  Uiso   1.00
C457   C     0.39207   0.80980   0.56398   0.00000  Uiso   1.00
C458   C     0.12445   0.69240   0.57654   0.00000  Uiso   1.00
C459   C     0.27012   0.89862   0.53907   0.00000  Uiso   1.00
C460   C     0.28329   0.60149   0.52551   0.00000  Uiso   1.00
C461   C     0.22988   0.89863   0.46093   0.00000  Uiso   1.00
C462   C     0.21580   0.55228   0.47549   0.00000  Uiso   1.00
C463   C     0.26912   0.94783   0.54005   0.00000  Uiso   1.00
C464   C     0.28419   0.55228   0.52452   0.00000  Uiso   1.00
H465   H     0.18817   0.53448   0.45644   0.00000  Uiso   1.00
H466   H     0.49833   0.66702   0.44696   0.00000  Uiso   1.00
H467   H     0.01284   0.78147   0.57231   0.00000  Uiso   1.00
H468   H     0.00166   0.66696   0.55277   0.00000  Uiso   1.00
H469   H     0.12666   0.83858   0.45256   0.00000  Uiso   1.00
H470   H     0.34432   0.70813   0.41009   0.00000  Uiso   1.00
H471   H     0.37333   0.83856   0.54740   0.00000  Uiso   1.00
H472   H     0.15560   0.70815   0.58989   0.00000  Uiso   1.00
H473   H     0.28395   0.96562   0.57237   0.00000  Uiso   1.00
H474   H     0.31182   0.53448   0.54357   0.00000  Uiso   1.00
H475   H     0.21605   0.96562   0.42764   0.00000  Uiso   1.00
H476   H     0.19394   0.65416   0.43716   0.00000  Uiso   1.00
H477   H     0.30259   0.84665   0.56626   0.00000  Uiso   1.00
H478   H     0.30606   0.65416   0.56284   0.00000  Uiso   1.00
H479   H     0.19741   0.84666   0.43374   0.00000  Uiso   1.00
H480   H     0.48727   0.78126   0.42728   0.00000  Uiso   1.00
N481   N     0.25000   0.62623   0.50000   0.00000  Uiso   1.00
N482   N     0.25000   0.87377   0.50000   0.00000  Uiso   1.00
O483   O     0.18453   0.78974   0.50000   0.00000  Uiso   1.00
O484   O     0.29213   0.87688   0.57856   0.00000  Uiso   1.00
O485   O     0.31698   0.62329   0.55291   0.00000  Uiso   1.00
O486   O     0.20787   0.87688   0.42145   0.00000  Uiso   1.00
O487   O     0.01788   0.79366   0.43182   0.00000  Uiso   1.00
O488   O     0.46778   0.67563   0.43500   0.00000  Uiso   1.00
O489   O     0.48217   0.79374   0.56794   0.00000  Uiso   1.00
O490   O     0.03216   0.67563   0.56483   0.00000  Uiso   1.00
O491   O     0.10169   0.80806   0.39055   0.00000  Uiso   1.00
O492   O     0.38649   0.65527   0.40504   0.00000  Uiso   1.00
O493   O     0.39843   0.80808   0.60936   0.00000  Uiso   1.00
O494   O     0.31547   0.71026   0.50000   0.00000  Uiso   1.00
O495   O     0.11342   0.65529   0.59492   0.00000  Uiso   1.00
O496   O     0.31547   0.78974   0.50000   0.00000  Uiso   1.00
O497   O     0.18453   0.71026   0.50000   0.00000  Uiso   1.00
O498   O     0.25000   0.78973   0.42845   0.00000  Uiso   1.00
O499   O     0.25000   0.71027   0.57155   0.00000  Uiso   1.00
O500   O     0.25000   0.78973   0.57155   0.00000  Uiso   1.00
O501   O     0.25000   0.71027   0.42845   0.00000  Uiso   1.00
O502   O     0.18301   0.62330   0.44709   0.00000  Uiso   1.00
Zn503  Zn    0.25000   0.80307   0.50000   0.00000  Uiso   1.00
Zn504  Zn    0.25000   0.69693   0.50000   0.00000  Uiso   1.00
C505   C     0.66392   0.74991   0.50084   0.00000  Uiso   1.00
C506   C     0.73087   0.94783   0.45995   0.00000  Uiso   1.00
C507   C     0.74977   0.75000   0.40628   0.00000  Uiso   1.00
C508   C     0.75023   0.75000   0.59372   0.00000  Uiso   1.00
C509   C     0.75000   0.52656   0.50000   0.00000  Uiso   1.00
C510   C     0.75000   0.97357   0.50000   0.00000  Uiso   1.00
C511   C     0.74991   0.75000   0.35514   0.00000  Uiso   1.00
C512   C     0.75008   0.75000   0.64486   0.00000  Uiso   1.00
C513   C     0.54307   0.76642   0.46532   0.00000  Uiso   1.00
C514   C     0.94943   0.70732   0.46754   0.00000  Uiso   1.00
C515   C     0.95697   0.76647   0.53449   0.00000  Uiso   1.00
C516   C     0.83608   0.74990   0.49915   0.00000  Uiso   1.00
C517   C     0.55054   0.70731   0.53231   0.00000  Uiso   1.00
C518   C     0.58887   0.77396   0.46869   0.00000  Uiso   1.00
C519   C     0.90349   0.71581   0.46356   0.00000  Uiso   1.00
C520   C     0.91115   0.77398   0.53120   0.00000  Uiso   1.00
C521   C     0.59648   0.71581   0.53635   0.00000  Uiso   1.00
C522   C     0.61563   0.74839   0.50353   0.00000  Uiso   1.00
C523   C     0.88437   0.74838   0.49641   0.00000  Uiso   1.00
C524   C     0.52404   0.73372   0.49783   0.00000  Uiso   1.00
C525   C     0.97597   0.73375   0.50197   0.00000  Uiso   1.00
C526   C     0.60798   0.80980   0.43595   0.00000  Uiso   1.00
C527   C     0.71670   0.60149   0.47449   0.00000  Uiso   1.00
C528   C     0.87548   0.69238   0.42341   0.00000  Uiso   1.00
C529   C     0.89207   0.80980   0.56398   0.00000  Uiso   1.00
C530   C     0.62445   0.69240   0.57654   0.00000  Uiso   1.00
C531   C     0.77012   0.89862   0.53907   0.00000  Uiso   1.00
C532   C     0.78329   0.60149   0.52551   0.00000  Uiso   1.00
C533   C     0.72988   0.89863   0.46093   0.00000  Uiso   1.00
C534   C     0.71580   0.55228   0.47549   0.00000  Uiso   1.00
C535   C     0.76912   0.94783   0.54005   0.00000  Uiso   1.00
C536   C     0.78419   0.55228   0.52452   0.00000  Uiso   1.00
H537   H     0.68817   0.53448   0.45644   0.00000  Uiso   1.00
H538   H     0.99833   0.66702   0.44696   0.00000  Uiso   1.00
H539   H     0.51284   0.78147   0.57231   0.00000  Uiso   1.00
H540   H     0.50166   0.66696   0.55277   0.00000  Uiso   1.00
H541   H     0.62666   0.83858   0.45256   0.00000  Uiso   1.00
H542   H     0.84432   0.70813   0.41009   0.00000  Uiso   1.00
H543   H     0.87333   0.83856   0.54740   0.00000  Uiso   1.00
H544   H     0.65560   0.70815   0.58989   0.00000  Uiso   1.00
H545   H     0.78395   0.96562   0.57237   0.00000  Uiso   1.00
H546   H     0.81182   0.53448   0.54357   0.00000  Uiso   1.00
H547   H     0.71605   0.96562   0.42764   0.00000  Uiso   1.00
H548   H     0.69394   0.65416   0.43716   0.00000  Uiso   1.00
H549   H     0.80259   0.84665   0.56626   0.00000  Uiso   1.00
H550   H     0.80606   0.65416   0.56284   0.00000  Uiso   1.00
H551   H     0.69741   0.84666   0.43374   0.00000  Uiso   1.00
H552   H     0.98727   0.78126   0.42728   0.00000  Uiso   1.00
N553   N     0.75000   0.62623   0.50000   0.00000  Uiso   1.00
N554   N     0.75000   0.87377   0.50000   0.00000  Uiso   1.00
O555   O     0.68453   0.78974   0.50000   0.00000  Uiso   1.00
O556   O     0.79213   0.87688   0.57856   0.00000  Uiso   1.00
O557   O     0.81698   0.62329   0.55291   0.00000  Uiso   1.00
O558   O     0.70787   0.87688   0.42145   0.00000  Uiso   1.00
O559   O     0.51788   0.79366   0.43182   0.00000  Uiso   1.00
O560   O     0.96778   0.67563   0.43500   0.00000  Uiso   1.00
O561   O     0.98217   0.79374   0.56794   0.00000  Uiso   1.00
O562   O     0.53216   0.67563   0.56483   0.00000  Uiso   1.00
O563   O     0.60169   0.80806   0.39055   0.00000  Uiso   1.00
O564   O     0.88649   0.65527   0.40504   0.00000  Uiso   1.00
O565   O     0.89843   0.80808   0.60936   0.00000  Uiso   1.00
O566   O     0.81547   0.71026   0.50000   0.00000  Uiso   1.00
O567   O     0.61342   0.65529   0.59492   0.00000  Uiso   1.00
O568   O     0.81547   0.78974   0.50000   0.00000  Uiso   1.00
O569   O     0.68453   0.71026   0.50000   0.00000  Uiso   1.00
O570   O     0.75000   0.78973   0.42845   0.00000  Uiso   1.00
O571   O     0.75000   0.71027   0.57155   0.00000  Uiso   1.00
O572   O     0.75000   0.78973   0.57155   0.00000  Uiso   1.00
O573   O     0.75000   0.71027   0.42845   0.00000  Uiso   1.00
O574   O     0.68301   0.62330   0.44709   0.00000  Uiso   1.00
Zn575  Zn    0.75000   0.80307   0.50000   0.00000  Uiso   1.00
Zn576  Zn    0.75000   0.69693   0.50000   0.00000  Uiso   1.00
C577   C     0.16392   0.24991   0.83417   0.00000  Uiso   1.00
C578   C     0.23087   0.44783   0.79328   0.00000  Uiso   1.00
C579   C     0.24977   0.25000   0.73961   0.00000  Uiso   1.00
C580   C     0.25023   0.25000   0.92706   0.00000  Uiso   1.00
C581   C     0.25000   0.02656   0.83334   0.00000  Uiso   1.00
C582   C     0.25000   0.47357   0.83334   0.00000  Uiso   1.00
C583   C     0.24991   0.25000   0.68847   0.00000  Uiso   1.00
C584   C     0.25008   0.25000   0.97819   0.00000  Uiso   1.00
C585   C     0.04307   0.26642   0.79865   0.00000  Uiso   1.00
C586   C     0.44943   0.20732   0.80087   0.00000  Uiso   1.00
C587   C     0.45697   0.26647   0.86782   0.00000  Uiso   1.00
C588   C     0.33608   0.24990   0.83249   0.00000  Uiso   1.00
C589   C     0.05054   0.20731   0.86564   0.00000  Uiso   1.00
C590   C     0.08887   0.27396   0.80202   0.00000  Uiso   1.00
C591   C     0.40349   0.21581   0.79690   0.00000  Uiso   1.00
C592   C     0.41115   0.27398   0.86454   0.00000  Uiso   1.00
C593   C     0.09648   0.21581   0.86968   0.00000  Uiso   1.00
C594   C     0.11563   0.24839   0.83687   0.00000  Uiso   1.00
C595   C     0.38437   0.24838   0.82974   0.00000  Uiso   1.00
C596   C     0.02404   0.23372   0.83116   0.00000  Uiso   1.00
C597   C     0.47597   0.23375   0.83530   0.00000  Uiso   1.00
C598   C     0.10798   0.30980   0.76928   0.00000  Uiso   1.00
C599   C     0.21670   0.10149   0.80783   0.00000  Uiso   1.00
C600   C     0.37548   0.19238   0.75674   0.00000  Uiso   1.00
C601   C     0.39207   0.30980   0.89731   0.00000  Uiso   1.00
C602   C     0.12445   0.19240   0.90988   0.00000  Uiso   1.00
C603   C     0.27012   0.39862   0.87240   0.00000  Uiso   1.00
C604   C     0.28329   0.10149   0.85884   0.00000  Uiso   1.00
C605   C     0.22988   0.39863   0.79427   0.00000  Uiso   1.00
C606   C     0.21580   0.05228   0.80882   0.00000  Uiso   1.00
C607   C     0.26912   0.44783   0.87339   0.00000  Uiso   1.00
C608   C     0.28419   0.05228   0.85785   0.00000  Uiso   1.00
H609   H     0.18817   0.03448   0.78977   0.00000  Uiso   1.00
H610   H     0.49833   0.16702   0.78030   0.00000  Uiso   1.00
H611   H     0.01284   0.28147   0.90564   0.00000  Uiso   1.00
H612   H     0.00166   0.16696   0.88611   0.00000  Uiso   1.00
H613   H     0.12666   0.33858   0.78590   0.00000  Uiso   1.00
H614   H     0.34432   0.20813   0.74342   0.00000  Uiso   1.00
H615   H     0.37333   0.33856   0.88073   0.00000  Uiso   1.00
H616   H     0.15560   0.20815   0.92323   0.00000  Uiso   1.00
H617   H     0.28395   0.46562   0.90570   0.00000  Uiso   1.00
H618   H     0.31182   0.03448   0.87690   0.00000  Uiso   1.00
H619   H     0.21605   0.46562   0.76097   0.00000  Uiso   1.00
H620   H     0.19394   0.15416   0.77049   0.00000  Uiso   1.00
H621   H     0.30259   0.34665   0.89959   0.00000  Uiso   1.00
H622   H     0.30606   0.15416   0.89617   0.00000  Uiso   1.00
H623   H     0.19741   0.34666   0.76707   0.00000  Uiso   1.00
H624   H     0.48727   0.28126   0.76062   0.00000  Uiso   1.00
N625   N     0.25000   0.12623   0.83333   0.00000  Uiso   1.00
N626   N     0.25000   0.37377   0.83333   0.00000  Uiso   1.00
O627   O     0.18453   0.28974   0.83334   0.00000  Uiso   1.00
O628   O     0.29213   0.37688   0.91189   0.00000  Uiso   1.00
O629   O     0.31698   0.12329   0.88625   0.00000  Uiso   1.00
O630   O     0.20787   0.37688   0.75478   0.00000  Uiso   1.00
O631   O     0.01788   0.29366   0.76516   0.00000  Uiso   1.00
O632   O     0.46778   0.17563   0.76833   0.00000  Uiso   1.00
O633   O     0.48217   0.29374   0.90127   0.00000  Uiso   1.00
O634   O     0.03216   0.17563   0.89816   0.00000  Uiso   1.00
O635   O     0.10169   0.30806   0.72389   0.00000  Uiso   1.00
O636   O     0.38649   0.15527   0.73837   0.00000  Uiso   1.00
O637   O     0.39843   0.30808   0.94270   0.00000  Uiso   1.00
O638   O     0.31547   0.21026   0.83333   0.00000  Uiso   1.00
O639   O     0.11342   0.15529   0.92826   0.00000  Uiso   1.00
O640   O     0.31547   0.28974   0.83333   0.00000  Uiso   1.00
O641   O     0.18453   0.21026   0.83334   0.00000  Uiso   1.00
O642   O     0.25000   0.28973   0.76178   0.00000  Uiso   1.00
O643   O     0.25000   0.21027   0.90489   0.00000  Uiso   1.00
O644   O     0.25000   0.28973   0.90489   0.00000  Uiso   1.00
O645   O     0.25000   0.21027   0.76178   0.00000  Uiso   1.00
O646   O     0.18301   0.12330   0.78042   0.00000  Uiso   1.00
Zn647  Zn    0.25000   0.30307   0.83333   0.00000  Uiso   1.00
Zn648  Zn    0.25000   0.19693   0.83333   0.00000  Uiso   1.00
C649   C     0.66392   0.24991   0.83417   0.00000  Uiso   1.00
C650   C     0.73087   0.44783   0.79328   0.00000  Uiso   1.00
C651   C     0.74977   0.25000   0.73961   0.00000  Uiso   1.00
C652   C     0.75023   0.25000   0.92706   0.00000  Uiso   1.00
C653   C     0.75000   0.02656   0.83334   0.00000  Uiso   1.00
C654   C     0.75000   0.47357   0.83334   0.00000  Uiso   1.00
C655   C     0.74991   0.25000   0.68847   0.00000  Uiso   1.00
C656   C     0.75008   0.25000   0.97819   0.00000  Uiso   1.00
C657   C     0.54307   0.26642   0.79865   0.00000  Uiso   1.00
C658   C     0.94943   0.20732   0.80087   0.00000  Uiso   1.00
C659   C     0.95697   0.26647   0.86782   0.00000  Uiso   1.00
C660   C     0.83608   0.24990   0.83249   0.00000  Uiso   1.00
C661   C     0.55054   0.20731   0.86564   0.00000  Uiso   1.00
C662   C     0.58887   0.27396   0.80202   0.00000  Uiso   1.00
C663   C     0.90349   0.21581   0.79690   0.00000  Uiso   1.00
C664   C     0.91115   0.27398   0.86454   0.00000  Uiso   1.00
C665   C     0.59648   0.21581   0.86968   0.00000  Uiso   1.00
C666   C     0.61563   0.24839   0.83687   0.00000  Uiso   1.00
C667   C     0.88437   0.24838   0.82974   0.00000  Uiso   1.00
C668   C     0.52404   0.23372   0.83116   0.00000  Uiso   1.00
C669   C     0.97597   0.23375   0.83530   0.00000  Uiso   1.00
C670   C     0.60798   0.30980   0.76928   0.00000  Uiso   1.00
C671   C     0.71670   0.10149   0.80783   0.00000  Uiso   1.00
C672   C     0.87548   0.19238   0.75674   0.00000  Uiso   1.00
C673   C     0.89207   0.30980   0.89731   0.00000  Uiso   1.00
C674   C     0.62445   0.19240   0.90988   0.00000  Uiso   1.00
C675   C     0.77012   0.39862   0.87240   0.00000  Uiso   1.00
C676   C     0.78329   0.10149   0.85884   0.00000  Uiso   1.00
C677   C     0.72988   0.39863   0.79427   0.00000  Uiso   1.00
C678   C     0.71580   0.05228   0.80882   0.00000  Uiso   1.00
C679   C     0.76912   0.44783   0.87339   0.00000  Uiso   1.00
C680   C     0.78419   0.05228   0.85785   0.00000  Uiso   1.00
H681   H     0.68817   0.03448   0.78977   0.00000  Uiso   1.00
H682   H     0.99833   0.16702   0.78030   0.00000  Uiso   1.00
H683   H     0.51284   0.28147   0.90564   0.00000  Uiso   1.00
H684   H     0.50166   0.16696   0.88611   0.00000  Uiso   1.00
H685   H     0.62666   0.33858   0.78590   0.00000  Uiso   1.00
H686   H     0.84432   0.20813   0.74342   0.00000  Uiso   1.00
H687   H     0.87333   0.33856   0.88073   0.00000  Uiso   1.00
H688   H     0.65560   0.20815   0.92323   0.00000  Uiso   1.00
H689   H     0.78395   0.46562   0.90570   0.00000  Uiso   1.00
H690   H     0.81182   0.03448   0.87690   0.00000  Uiso   1.00
H691   H     0.71605   0.46562   0.76097   0.00000  Uiso   1.00
H692   H     0.69394   0.15416   0.77049   0.00000  Uiso   1.00
H693   H     0.80259   0.34665   0.89959   0.00000  Uiso   1.00
H694   H     0.80606   0.15416   0.89617   0.00000  Uiso   1.00
H695   H     0.69741   0.34666   0.76707   0.00000  Uiso   1.00
H696   H     0.98727   0.28126   0.76062   0.00000  Uiso   1.00
N697   N     0.75000   0.12623   0.83333   0.00000  Uiso   1.00
N698   N     0.75000   0.37377   0.83333   0.00000  Uiso   1.00
O699   O     0.68453   0.28974   0.83334   0.00000  Uiso   1.00
O700   O     0.79213   0.37688   0.91189   0.00000  Uiso   1.00
O701   O     0.81698   0.12329   0.88625   0.00000  Uiso   1.00
O702   O     0.70787   0.37688   0.75478   0.00000  Uiso   1.00
O703   O     0.51788   0.29366   0.76516   0.00000  Uiso   1.00
O704   O     0.96778   0.17563   0.76833   0.00000  Uiso   1.00
O705   O     0.98217   0.29374   0.90127   0.00000  Uiso   1.00
O706   O     0.53216   0.17563   0.89816   0.00000  Uiso   1.00
O707   O     0.60169   0.30806   0.72389   0.00000  Uiso   1.00
O708   O     0.88649   0.15527   0.73837   0.00000  Uiso   1.00
O709   O     0.89843   0.30808   0.94270   0.00000  Uiso   1.00
O710   O     0.81547   0.21026   0.83333   0.00000  Uiso   1.00
O711   O     0.61342   0.15529   0.92826   0.00000  Uiso   1.00
O712   O     0.81547   0.28974   0.83333   0.00000  Uiso   1.00
O713   O     0.68453   0.21026   0.83334   0.00000  Uiso   1.00
O714   O     0.75000   0.28973   0.76178   0.00000  Uiso   1.00
O715   O     0.75000   0.21027   0.90489   0.00000  Uiso   1.00
O716   O     0.75000   0.28973   0.90489   0.00000  Uiso   1.00
O717   O     0.75000   0.21027   0.76178   0.00000  Uiso   1.00
O718   O     0.68301   0.12330   0.78042   0.00000  Uiso   1.00
Zn719  Zn    0.75000   0.30307   0.83333   0.00000  Uiso   1.00
Zn720  Zn    0.75000   0.19693   0.83333   0.00000  Uiso   1.00
C721   C     0.16392   0.74991   0.83417   0.00000  Uiso   1.00
C722   C     0.23087   0.94783   0.79328   0.00000  Uiso   1.00
C723   C     0.24977   0.75000   0.73961   0.00000  Uiso   1.00
C724   C     0.25023   0.75000   0.92706   0.00000  Uiso   1.00
C725   C     0.25000   0.52656   0.83334   0.00000  Uiso   1.00
C726   C     0.25000   0.97357   0.83334   0.00000  Uiso   1.00
C727   C     0.24991   0.75000   0.68847   0.00000  Uiso   1.00
C728   C     0.25008   0.75000   0.97819   0.00000  Uiso   1.00
C729   C     0.04307   0.76642   0.79865   0.00000  Uiso   1.00
C730   C     0.44943   0.70732   0.80087   0.00000  Uiso   1.00
C731   C     0.45697   0.76647   0.86782   0.00000  Uiso   1.00
C732   C     0.33608   0.74990   0.83249   0.00000  Uiso   1.00
C733   C     0.05054   0.70731   0.86564   0.00000  Uiso   1.00
C734   C     0.08887   0.77396   0.80202   0.00000  Uiso   1.00
C735   C     0.40349   0.71581   0.79690   0.00000  Uiso   1.00
C736   C     0.41115   0.77398   0.86454   0.00000  Uiso   1.00
C737   C     0.09648   0.71581   0.86968   0.00000  Uiso   1.00
C738   C     0.11563   0.74839   0.83687   0.00000  Uiso   1.00
C739   C     0.38437   0.74838   0.82974   0.00000  Uiso   1.00
C740   C     0.02404   0.73372   0.83116   0.00000  Uiso   1.00
C741   C     0.47597   0.73375   0.83530   0.00000  Uiso   1.00
C742   C     0.10798   0.80980   0.76928   0.00000  Uiso   1.00
C743   C     0.21670   0.60149   0.80783   0.00000  Uiso   1.00
C744   C     0.37548   0.69238   0.75674   0.00000  Uiso   1.00
C745   C     0.39207   0.80980   0.89731   0.00000  Uiso   1.00
C746   C     0.12445   0.69240   0.90988   0.00000  Uiso   1.00
C747   C     0.27012   0.89862   0.87240   0.00000  Uiso   1.00
C748   C     0.28329   0.60149   0.85884   0.00000  Uiso   1.00
C749   C     0.22988   0.89863   0.79427   0.00000  Uiso   1.00
C750   C     0.21580   0.55228   0.80882   0.00000  Uiso   1.00
C751   C     0.26912   0.94783   0.87339   0.00000  Uiso   1.00
C752   C     0.28419   0.55228   0.85785   0.00000  Uiso   1.00
H753   H     0.18817   0.53448   0.78977   0.00000  Uiso   1.00
H754   H     0.49833   0.66702   0.78030   0.00000  Uiso   1.00
H755   H     0.01284   0.78147   0.90564   0.00000  Uiso   1.00
H756   H     0.00166   0.66696   0.88611   0.00000  Uiso   1.00
H757   H     0.12666   0.83858   0.78590   0.00000  Uiso   1.00
H758   H     0.34432   0.70813   0.74342   0.00000  Uiso   1.00
H759   H     0.37333   0.83856   0.88073   0.00000  Uiso   1.00
H760   H     0.15560   0.70815   0.92323   0.00000  Uiso   1.00
H761   H     0.28395   0.96562   0.90570   0.00000  Uiso   1.00
H762   H     0.31182   0.53448   0.87690   0.00000  Uiso   1.00
H763   H     0.21605   0.96562   0.76097   0.00000  Uiso   1.00
H764   H     0.19394   0.65416   0.77049   0.00000  Uiso   1.00
H765   H     0.30259   0.84665   0.89959   0.00000  Uiso   1.00
H766   H     0.30606   0.65416   0.89617   0.00000  Uiso   1.00
H767   H     0.19741   0.84666   0.76707   0.00000  Uiso   1.00
H768   H     0.48727   0.78126   0.76062   0.00000  Uiso   1.00
N769   N     0.25000   0.62623   0.83333   0.00000  Uiso   1.00
N770   N     0.25000   0.87377   0.83333   0.00000  Uiso   1.00
O771   O     0.18453   0.78974   0.83334   0.00000  Uiso   1.00
O772   O     0.29213   0.87688   0.91189   0.00000  Uiso   1.00
O773   O     0.31698   0.62329   0.88625   0.00000  Uiso   1.00
O774   O     0.20787   0.87688   0.75478   0.00000  Uiso   1.00
O775   O     0.01788   0.79366   0.76516   0.00000  Uiso   1.00
O776   O     0.46778   0.67563   0.76833   0.00000  Uiso   1.00
O777   O     0.48217   0.79374   0.90127   0.00000  Uiso   1.00
O778   O     0.03216   0.67563   0.89816   0.00000  Uiso   1.00
O779   O     0.10169   0.80806   0.72389   0.00000  Uiso   1.00
O780   O     0.38649   0.65527   0.73837   0.00000  Uiso   1.00
O781   O     0.39843   0.80808   0.94270   0.00000  Uiso   1.00
O782   O     0.31547   0.71026   0.83333   0.00000  Uiso   1.00
O783   O     0.11342   0.65529   0.92826   0.00000  Uiso   1.00
O784   O     0.31547   0.78974   0.83333   0.00000  Uiso   1.00
O785   O     0.18453   0.71026   0.83334   0.00000  Uiso   1.00
O786   O     0.25000   0.78973   0.76178   0.00000  Uiso   1.00
O787   O     0.25000   0.71027   0.90489   0.00000  Uiso   1.00
O788   O     0.25000   0.78973   0.90489   0.00000  Uiso   1.00
O789   O     0.25000   0.71027   0.76178   0.00000  Uiso   1.00
O790   O     0.18301   0.62330   0.78042   0.00000  Uiso   1.00
Zn791  Zn    0.25000   0.80307   0.83333   0.00000  Uiso   1.00
Zn792  Zn    0.25000   0.69693   0.83333   0.00000  Uiso   1.00
C793   C     0.66392   0.74991   0.83417   0.00000  Uiso   1.00
C794   C     0.73087   0.94783   0.79328   0.00000  Uiso   1.00
C795   C     0.74977   0.75000   0.73961   0.00000  Uiso   1.00
C796   C     0.75023   0.75000   0.92706   0.00000  Uiso   1.00
C797   C     0.75000   0.52656   0.83334   0.00000  Uiso   1.00
C798   C     0.75000   0.97357   0.83334   0.00000  Uiso   1.00
C799   C     0.74991   0.75000   0.68847   0.00000  Uiso   1.00
C800   C     0.75008   0.75000   0.97819   0.00000  Uiso   1.00
C801   C     0.54307   0.76642   0.79865   0.00000  Uiso   1.00
C802   C     0.94943   0.70732   0.80087   0.00000  Uiso   1.00
C803   C     0.95697   0.76647   0.86782   0.00000  Uiso   1.00
C804   C     0.83608   0.74990   0.83249   0.00000  Uiso   1.00
C805   C     0.55054   0.70731   0.86564   0.00000  Uiso   1.00
C806   C     0.58887   0.77396   0.80202   0.00000  Uiso   1.00
C807   C     0.90349   0.71581   0.79690   0.00000  Uiso   1.00
C808   C     0.91115   0.77398   0.86454   0.00000  Uiso   1.00
C809   C     0.59648   0.71581   0.86968   0.00000  Uiso   1.00
C810   C     0.61563   0.74839   0.83687   0.00000  Uiso   1.00
C811   C     0.88437   0.74838   0.82974   0.00000  Uiso   1.00
C812   C     0.52404   0.73372   0.83116   0.00000  Uiso   1.00
C813   C     0.97597   0.73375   0.83530   0.00000  Uiso   1.00
C814   C     0.60798   0.80980   0.76928   0.00000  Uiso   1.00
C815   C     0.71670   0.60149   0.80783   0.00000  Uiso   1.00
C816   C     0.87548   0.69238   0.75674   0.00000  Uiso   1.00
C817   C     0.89207   0.80980   0.89731   0.00000  Uiso   1.00
C818   C     0.62445   0.69240   0.90988   0.00000  Uiso   1.00
C819   C     0.77012   0.89862   0.87240   0.00000  Uiso   1.00
C820   C     0.78329   0.60149   0.85884   0.00000  Uiso   1.00
C821   C     0.72988   0.89863   0.79427   0.00000  Uiso   1.00
C822   C     0.71580   0.55228   0.80882   0.00000  Uiso   1.00
C823   C     0.76912   0.94783   0.87339   0.00000  Uiso   1.00
C824   C     0.78419   0.55228   0.85785   0.00000  Uiso   1.00
H825   H     0.68817   0.53448   0.78977   0.00000  Uiso   1.00
H826   H     0.99833   0.66702   0.78030   0.00000  Uiso   1.00
H827   H     0.51284   0.78147   0.90564   0.00000  Uiso   1.00
H828   H     0.50166   0.66696   0.88611   0.00000  Uiso   1.00
H829   H     0.62666   0.83858   0.78590   0.00000  Uiso   1.00
H830   H     0.84432   0.70813   0.74342   0.00000  Uiso   1.00
H831   H     0.87333   0.83856   0.88073   0.00000  Uiso   1.00
H832   H     0.65560   0.70815   0.92323   0.00000  Uiso   1.00
H833   H     0.78395   0.96562   0.90570   0.00000  Uiso   1.00
H834   H     0.81182   0.53448   0.87690   0.00000  Uiso   1.00
H835   H     0.71605   0.96562   0.76097   0.00000  Uiso   1.00
H836   H     0.69394   0.65416   0.77049   0.00000  Uiso   1.00
H837   H     0.80259   0.84665   0.89959   0.00000  Uiso   1.00
H838   H     0.80606   0.65416   0.89617   0.00000  Uiso   1.00
H839   H     0.69741   0.84666   0.76707   0.00000  Uiso   1.00
H840   H     0.98727   0.78126   0.76062   0.00000  Uiso   1.00
N841   N     0.75000   0.62623   0.83333   0.00000  Uiso   1.00
N842   N     0.75000   0.87377   0.83333   0.00000  Uiso   1.00
O843   O     0.68453   0.78974   0.83334   0.00000  Uiso   1.00
O844   O     0.79213   0.87688   0.91189   0.00000  Uiso   1.00
O845   O     0.81698   0.62329   0.88625   0.00000  Uiso   1.00
O846   O     0.70787   0.87688   0.75478   0.00000  Uiso   1.00
O847   O     0.51788   0.79366   0.76516   0.00000  Uiso   1.00
O848   O     0.96778   0.67563   0.76833   0.00000  Uiso   1.00
O849   O     0.98217   0.79374   0.90127   0.00000  Uiso   1.00
O850   O     0.53216   0.67563   0.89816   0.00000  Uiso   1.00
O851   O     0.60169   0.80806   0.72389   0.00000  Uiso   1.00
O852   O     0.88649   0.65527   0.73837   0.00000  Uiso   1.00
O853   O     0.89843   0.80808   0.94270   0.00000  Uiso   1.00
O854   O     0.81547   0.71026   0.83333   0.00000  Uiso   1.00
O855   O     0.61342   0.65529   0.92826   0.00000  Uiso   1.00
O856   O     0.81547   0.78974   0.83333   0.00000  Uiso   1.00
O857   O     0.68453   0.71026   0.83334   0.00000  Uiso   1.00
O858   O     0.75000   0.78973   0.76178   0.00000  Uiso   1.00
O859   O     0.75000   0.71027   0.90489   0.00000  Uiso   1.00
O860   O     0.75000   0.78973   0.90489   0.00000  Uiso   1.00
O861   O     0.75000   0.71027   0.76178   0.00000  Uiso   1.00
O862   O     0.68301   0.62330   0.78042   0.00000  Uiso   1.00
Zn863  Zn    0.75000   0.80307   0.83333   0.00000  Uiso   1.00
Zn864  Zn    0.75000   0.69693   0.83333   0.00000  Uiso   1.00
loop_
_geom_bond_atom_site_label_1
_geom_bond_atom_site_label_2
_geom_bond_distance
_geom_bond_site_symmetry_2
_ccdc_geom_bond_type
C1     O65     1.292   .     A
C1     O51     1.297   .     A
C1     C18     1.454   .     S
C2     H43     1.082   .     S
C2     C6      1.402   .     A
C2     C29     1.409   .     A
C3     O69     1.282   .     A
C3     C7      1.367   .     S
C3     O66     1.282   .     A
C4     O67     1.282   .     A
C4     C8      1.367   .     S
C4     O68     1.282   .     A
C5     C32     1.403   .     A
C5     C30     1.403   .     A
C5     C150    1.516   1_545 S
C6     C31     1.402   .     A
C6     C149    1.516   .     S
C7     C584    1.166   1_554 S
C8     C295    1.166   .     S
C9     C14     1.390   .     A
C9     O55     1.387   .     S
C9     C20     1.413   .     A
C10    O56     1.385   .     S
C10    C21     1.412   .     A
C10    C15     1.399   .     A
C11    C21     1.413   .     A
C11    C16     1.390   .     A
C11    O57     1.387   .     S
C12    C19     1.454   .     S
C12    O64     1.297   .     A
C12    O62     1.292   .     A
C13    C17     1.399   .     A
C13    C20     1.412   .     A
C13    O58     1.385   .     S
C14    C18     1.409   .     A
C14    C22     1.478   .     S
C15    C19     1.417   .     A
C15    C24     1.494   .     S
C16    C19     1.409   .     A
C16    C25     1.478   .     S
C17    C18     1.417   .     A
C17    C26     1.494   .     S
C20    C93     1.451   1_455 S
C21    C92     1.451   .     S
C22    O59     1.221   .     D
C22    H37     1.081   .     S
C23    O70     1.374   .     S
C23    N49     1.381   .     A
C23    C30     1.409   .     A
C24    H38     1.085   .     S
C24    O60     1.221   .     D
C25    O61     1.221   .     D
C25    H39     1.081   .     S
C26    H40     1.085   .     S
C26    O63     1.221   .     D
C27    N50     1.382   .     A
C27    C31     1.409   .     A
C27    O52     1.371   .     S
C28    N49     1.381   .     A
C28    O53     1.374   .     S
C28    C32     1.408   .     A
C29    N50     1.382   .     A
C29    O54     1.371   .     S
C30    H33     1.082   .     S
C31    H41     1.082   .     S
C32    H42     1.082   .     S
H34    O56     0.989   .     S
H35    O129    0.987   1_455 S
H36    O58     0.989   .     S
H44    O70     0.982   .     S
H45    O52     0.981   .     S
H46    O53     0.982   .     S
H47    O54     0.981   .     S
H48    O127    0.987   .     S
N49    Zn72    2.023   .     S
N50    Zn71    2.023   .     S
O51    Zn71    2.000   .     S
O55    H120    0.987   1_455 S
O57    H107    0.987   .     S
O62    Zn72    2.000   .     S
O64    Zn71    2.000   .     S
O65    Zn72    2.000   .     S
O66    Zn71    1.950   .     S
O67    Zn72    1.950   .     S
O68    Zn71    1.950   .     S
O69    Zn72    1.950   .     S
C73    O137    1.292   .     A
C73    O123    1.297   .     A
C73    C90     1.454   .     S
C74    H115    1.082   .     S
C74    C78     1.402   .     A
C74    C101    1.409   .     A
C75    O141    1.282   .     A
C75    C79     1.367   .     S
C75    O138    1.282   .     A
C76    O139    1.282   .     A
C76    C80     1.367   .     S
C76    O140    1.282   .     A
C77    C104    1.403   .     A
C77    C102    1.403   .     A
C77    C222    1.516   1_545 S
C78    C103    1.402   .     A
C78    C221    1.516   .     S
C79    C656    1.166   1_554 S
C80    C367    1.166   .     S
C81    C86     1.390   .     A
C81    O127    1.387   .     S
C81    C92     1.413   .     A
C82    O128    1.385   .     S
C82    C93     1.412   .     A
C82    C87     1.399   .     A
C83    C93     1.413   .     A
C83    C88     1.390   .     A
C83    O129    1.387   .     S
C84    C91     1.454   .     S
C84    O136    1.297   .     A
C84    O134    1.292   .     A
C85    C89     1.399   .     A
C85    C92     1.412   .     A
C85    O130    1.385   .     S
C86    C90     1.409   .     A
C86    C94     1.478   .     S
C87    C91     1.417   .     A
C87    C96     1.494   .     S
C88    C91     1.409   .     A
C88    C97     1.478   .     S
C89    C90     1.417   .     A
C89    C98     1.494   .     S
C93    C20     1.451   1_655 S
C94    O131    1.221   .     D
C94    H109    1.081   .     S
C95    O142    1.374   .     S
C95    N121    1.381   .     A
C95    C102    1.409   .     A
C96    H110    1.085   .     S
C96    O132    1.221   .     D
C97    O133    1.221   .     D
C97    H111    1.081   .     S
C98    H112    1.085   .     S
C98    O135    1.221   .     D
C99    N122    1.382   .     A
C99    C103    1.409   .     A
C99    O124    1.371   .     S
C100   N121    1.381   .     A
C100   O125    1.374   .     S
C100   C104    1.408   .     A
C101   N122    1.382   .     A
C101   O126    1.371   .     S
C102   H105    1.082   .     S
C103   H113    1.082   .     S
C104   H114    1.082   .     S
H106   O128    0.989   .     S
H108   O130    0.989   .     S
H116   O142    0.982   .     S
H117   O124    0.981   .     S
H118   O125    0.982   .     S
H119   O126    0.981   .     S
H120   O55     0.987   1_655 S
N121   Zn144   2.023   .     S
N122   Zn143   2.023   .     S
O123   Zn143   2.000   .     S
O129   H35     0.987   1_655 S
O134   Zn144   2.000   .     S
O136   Zn143   2.000   .     S
O137   Zn144   2.000   .     S
O138   Zn143   1.950   .     S
O139   Zn144   1.950   .     S
O140   Zn143   1.950   .     S
O141   Zn144   1.950   .     S
C145   O209    1.292   .     A
C145   O195    1.297   .     A
C145   C162    1.454   .     S
C146   H187    1.082   .     S
C146   C150    1.402   .     A
C146   C173    1.409   .     A
C147   O213    1.282   .     A
C147   C151    1.367   .     S
C147   O210    1.282   .     A
C148   O211    1.282   .     A
C148   C152    1.367   .     S
C148   O212    1.282   .     A
C149   C176    1.403   .     A
C149   C174    1.403   .     A
C150   C175    1.402   .     A
C150   C5      1.516   1_565 S
C151   C728    1.166   1_554 S
C152   C439    1.166   .     S
C153   C158    1.390   .     A
C153   O199    1.387   .     S
C153   C164    1.413   .     A
C154   O200    1.385   .     S
C154   C165    1.412   .     A
C154   C159    1.399   .     A
C155   C165    1.413   .     A
C155   C160    1.390   .     A
C155   O201    1.387   .     S
C156   C163    1.454   .     S
C156   O208    1.297   .     A
C156   O206    1.292   .     A
C157   C161    1.399   .     A
C157   C164    1.412   .     A
C157   O202    1.385   .     S
C158   C162    1.409   .     A
C158   C166    1.478   .     S
C159   C163    1.417   .     A
C159   C168    1.494   .     S
C160   C163    1.409   .     A
C160   C169    1.478   .     S
C161   C162    1.417   .     A
C161   C170    1.494   .     S
C164   C237    1.451   1_455 S
C165   C236    1.451   .     S
C166   O203    1.221   .     D
C166   H181    1.081   .     S
C167   O214    1.374   .     S
C167   N193    1.381   .     A
C167   C174    1.409   .     A
C168   H182    1.085   .     S
C168   O204    1.221   .     D
C169   O205    1.221   .     D
C169   H183    1.081   .     S
C170   H184    1.085   .     S
C170   O207    1.221   .     D
C171   N194    1.382   .     A
C171   C175    1.409   .     A
C171   O196    1.371   .     S
C172   N193    1.381   .     A
C172   O197    1.374   .     S
C172   C176    1.408   .     A
C173   N194    1.382   .     A
C173   O198    1.371   .     S
C174   H177    1.082   .     S
C175   H185    1.082   .     S
C176   H186    1.082   .     S
H178   O200    0.989   .     S
H179   O273    0.987   1_455 S
H180   O202    0.989   .     S
H188   O214    0.982   .     S
H189   O196    0.981   .     S
H190   O197    0.982   .     S
H191   O198    0.981   .     S
H192   O271    0.987   .     S
N193   Zn216   2.023   .     S
N194   Zn215   2.023   .     S
O195   Zn215   2.000   .     S
O199   H264    0.987   1_455 S
O201   H251    0.987   .     S
O206   Zn216   2.000   .     S
O208   Zn215   2.000   .     S
O209   Zn216   2.000   .     S
O210   Zn215   1.950   .     S
O211   Zn216   1.950   .     S
O212   Zn215   1.950   .     S
O213   Zn216   1.950   .     S
C217   O281    1.292   .     A
C217   O267    1.297   .     A
C217   C234    1.454   .     S
C218   H259    1.082   .     S
C218   C222    1.402   .     A
C218   C245    1.409   .     A
C219   O285    1.282   .     A
C219   C223    1.367   .     S
C219   O282    1.282   .     A
C220   O283    1.282   .     A
C220   C224    1.367   .     S
C220   O284    1.282   .     A
C221   C248    1.403   .     A
C221   C246    1.403   .     A
C222   C247    1.402   .     A
C222   C77     1.516   1_565 S
C223   C800    1.166   1_554 S
C224   C511    1.166   .     S
C225   C230    1.390   .     A
C225   O271    1.387   .     S
C225   C236    1.413   .     A
C226   O272    1.385   .     S
C226   C237    1.412   .     A
C226   C231    1.399   .     A
C227   C237    1.413   .     A
C227   C232    1.390   .     A
C227   O273    1.387   .     S
C228   C235    1.454   .     S
C228   O280    1.297   .     A
C228   O278    1.292   .     A
C229   C233    1.399   .     A
C229   C236    1.412   .     A
C229   O274    1.385   .     S
C230   C234    1.409   .     A
C230   C238    1.478   .     S
C231   C235    1.417   .     A
C231   C240    1.494   .     S
C232   C235    1.409   .     A
C232   C241    1.478   .     S
C233   C234    1.417   .     A
C233   C242    1.494   .     S
C237   C164    1.451   1_655 S
C238   O275    1.221   .     D
C238   H253    1.081   .     S
C239   O286    1.374   .     S
C239   N265    1.381   .     A
C239   C246    1.409   .     A
C240   H254    1.085   .     S
C240   O276    1.221   .     D
C241   O277    1.221   .     D
C241   H255    1.081   .     S
C242   H256    1.085   .     S
C242   O279    1.221   .     D
C243   N266    1.382   .     A
C243   C247    1.409   .     A
C243   O268    1.371   .     S
C244   N265    1.381   .     A
C244   O269    1.374   .     S
C244   C248    1.408   .     A
C245   N266    1.382   .     A
C245   O270    1.371   .     S
C246   H249    1.082   .     S
C247   H257    1.082   .     S
C248   H258    1.082   .     S
H250   O272    0.989   .     S
H252   O274    0.989   .     S
H260   O286    0.982   .     S
H261   O268    0.981   .     S
H262   O269    0.982   .     S
H263   O270    0.981   .     S
H264   O199    0.987   1_655 S
N265   Zn288   2.023   .     S
N266   Zn287   2.023   .     S
O267   Zn287   2.000   .     S
O273   H179    0.987   1_655 S
O278   Zn288   2.000   .     S
O280   Zn287   2.000   .     S
O281   Zn288   2.000   .     S
O282   Zn287   1.950   .     S
O283   Zn288   1.950   .     S
O284   Zn287   1.950   .     S
O285   Zn288   1.950   .     S
C289   O353    1.292   .     A
C289   O339    1.297   .     A
C289   C306    1.454   .     S
C290   H331    1.082   .     S
C290   C294    1.402   .     A
C290   C317    1.409   .     A
C291   O357    1.282   .     A
C291   C295    1.367   .     S
C291   O354    1.282   .     A
C292   O355    1.282   .     A
C292   C296    1.367   .     S
C292   O356    1.282   .     A
C293   C320    1.403   .     A
C293   C318    1.403   .     A
C293   C438    1.516   1_545 S
C294   C319    1.402   .     A
C294   C437    1.516   .     S
C296   C583    1.166   .     S
C297   C302    1.390   .     A
C297   O343    1.387   .     S
C297   C308    1.413   .     A
C298   O344    1.385   .     S
C298   C309    1.412   .     A
C298   C303    1.399   .     A
C299   C309    1.413   .     A
C299   C304    1.390   .     A
C299   O345    1.387   .     S
C300   C307    1.454   .     S
C300   O352    1.297   .     A
C300   O350    1.292   .     A
C301   C305    1.399   .     A
C301   C308    1.412   .     A
C301   O346    1.385   .     S
C302   C306    1.409   .     A
C302   C310    1.478   .     S
C303   C307    1.417   .     A
C303   C312    1.494   .     S
C304   C307    1.409   .     A
C304   C313    1.478   .     S
C305   C306    1.417   .     A
C305   C314    1.494   .     S
C308   C381    1.451   1_455 S
C309   C380    1.451   .     S
C310   O347    1.221   .     D
C310   H325    1.081   .     S
C311   O358    1.374   .     S
C311   N337    1.381   .     A
C311   C318    1.409   .     A
C312   H326    1.085   .     S
C312   O348    1.221   .     D
C313   O349    1.221   .     D
C313   H327    1.081   .     S
C314   H328    1.085   .     S
C314   O351    1.221   .     D
C315   N338    1.382   .     A
C315   C319    1.409   .     A
C315   O340    1.371   .     S
C316   N337    1.381   .     A
C316   O341    1.374   .     S
C316   C320    1.408   .     A
C317   N338    1.382   .     A
C317   O342    1.371   .     S
C318   H321    1.082   .     S
C319   H329    1.082   .     S
C320   H330    1.082   .     S
H322   O344    0.989   .     S
H323   O417    0.987   1_455 S
H324   O346    0.989   .     S
H332   O358    0.982   .     S
H333   O340    0.981   .     S
H334   O341    0.982   .     S
H335   O342    0.981   .     S
H336   O415    0.987   .     S
N337   Zn360   2.023   .     S
N338   Zn359   2.023   .     S
O339   Zn359   2.000   .     S
O343   H408    0.987   1_455 S
O345   H395    0.987   .     S
O350   Zn360   2.000   .     S
O352   Zn359   2.000   .     S
O353   Zn360   2.000   .     S
O354   Zn359   1.950   .     S
O355   Zn360   1.950   .     S
O356   Zn359   1.950   .     S
O357   Zn360   1.950   .     S
C361   O425    1.292   .     A
C361   O411    1.297   .     A
C361   C378    1.454   .     S
C362   H403    1.082   .     S
C362   C366    1.402   .     A
C362   C389    1.409   .     A
C363   O429    1.282   .     A
C363   C367    1.367   .     S
C363   O426    1.282   .     A
C364   O427    1.282   .     A
C364   C368    1.367   .     S
C364   O428    1.282   .     A
C365   C392    1.403   .     A
C365   C390    1.403   .     A
C365   C510    1.516   1_545 S
C366   C391    1.402   .     A
C366   C509    1.516   .     S
C368   C655    1.166   .     S
C369   C374    1.390   .     A
C369   O415    1.387   .     S
C369   C380    1.413   .     A
C370   O416    1.385   .     S
C370   C381    1.412   .     A
C370   C375    1.399   .     A
C371   C381    1.413   .     A
C371   C376    1.390   .     A
C371   O417    1.387   .     S
C372   C379    1.454   .     S
C372   O424    1.297   .     A
C372   O422    1.292   .     A
C373   C377    1.399   .     A
C373   C380    1.412   .     A
C373   O418    1.385   .     S
C374   C378    1.409   .     A
C374   C382    1.478   .     S
C375   C379    1.417   .     A
C375   C384    1.494   .     S
C376   C379    1.409   .     A
C376   C385    1.478   .     S
C377   C378    1.417   .     A
C377   C386    1.494   .     S
C381   C308    1.451   1_655 S
C382   O419    1.221   .     D
C382   H397    1.081   .     S
C383   O430    1.374   .     S
C383   N409    1.381   .     A
C383   C390    1.409   .     A
C384   H398    1.085   .     S
C384   O420    1.221   .     D
C385   O421    1.221   .     D
C385   H399    1.081   .     S
C386   H400    1.085   .     S
C386   O423    1.221   .     D
C387   N410    1.382   .     A
C387   C391    1.409   .     A
C387   O412    1.371   .     S
C388   N409    1.381   .     A
C388   O413    1.374   .     S
C388   C392    1.408   .     A
C389   N410    1.382   .     A
C389   O414    1.371   .     S
C390   H393    1.082   .     S
C391   H401    1.082   .     S
C392   H402    1.082   .     S
H394   O416    0.989   .     S
H396   O418    0.989   .     S
H404   O430    0.982   .     S
H405   O412    0.981   .     S
H406   O413    0.982   .     S
H407   O414    0.981   .     S
H408   O343    0.987   1_655 S
N409   Zn432   2.023   .     S
N410   Zn431   2.023   .     S
O411   Zn431   2.000   .     S
O417   H323    0.987   1_655 S
O422   Zn432   2.000   .     S
O424   Zn431   2.000   .     S
O425   Zn432   2.000   .     S
O426   Zn431   1.950   .     S
O427   Zn432   1.950   .     S
O428   Zn431   1.950   .     S
O429   Zn432   1.950   .     S
C433   O497    1.292   .     A
C433   O483    1.297   .     A
C433   C450    1.454   .     S
C434   H475    1.082   .     S
C434   C438    1.402   .     A
C434   C461    1.409   .     A
C435   O501    1.282   .     A
C435   C439    1.367   .     S
C435   O498    1.282   .     A
C436   O499    1.282   .     A
C436   C440    1.367   .     S
C436   O500    1.282   .     A
C437   C464    1.403   .     A
C437   C462    1.403   .     A
C438   C463    1.402   .     A
C438   C293    1.516   1_565 S
C440   C727    1.166   .     S
C441   C446    1.390   .     A
C441   O487    1.387   .     S
C441   C452    1.413   .     A
C442   O488    1.385   .     S
C442   C453    1.412   .     A
C442   C447    1.399   .     A
C443   C453    1.413   .     A
C443   C448    1.390   .     A
C443   O489    1.387   .     S
C444   C451    1.454   .     S
C444   O496    1.297   .     A
C444   O494    1.292   .     A
C445   C449    1.399   .     A
C445   C452    1.412   .     A
C445   O490    1.385   .     S
C446   C450    1.409   .     A
C446   C454    1.478   .     S
C447   C451    1.417   .     A
C447   C456    1.494   .     S
C448   C451    1.409   .     A
C448   C457    1.478   .     S
C449   C450    1.417   .     A
C449   C458    1.494   .     S
C452   C525    1.451   1_455 S
C453   C524    1.451   .     S
C454   O491    1.221   .     D
C454   H469    1.081   .     S
C455   O502    1.374   .     S
C455   N481    1.381   .     A
C455   C462    1.409   .     A
C456   H470    1.085   .     S
C456   O492    1.221   .     D
C457   O493    1.221   .     D
C457   H471    1.081   .     S
C458   H472    1.085   .     S
C458   O495    1.221   .     D
C459   N482    1.382   .     A
C459   C463    1.409   .     A
C459   O484    1.371   .     S
C460   N481    1.381   .     A
C460   O485    1.374   .     S
C460   C464    1.408   .     A
C461   N482    1.382   .     A
C461   O486    1.371   .     S
C462   H465    1.082   .     S
C463   H473    1.082   .     S
C464   H474    1.082   .     S
H466   O488    0.989   .     S
H467   O561    0.987   1_455 S
H468   O490    0.989   .     S
H476   O502    0.982   .     S
H477   O484    0.981   .     S
H478   O485    0.982   .     S
H479   O486    0.981   .     S
H480   O559    0.987   .     S
N481   Zn504   2.023   .     S
N482   Zn503   2.023   .     S
O483   Zn503   2.000   .     S
O487   H552    0.987   1_455 S
O489   H539    0.987   .     S
O494   Zn504   2.000   .     S
O496   Zn503   2.000   .     S
O497   Zn504   2.000   .     S
O498   Zn503   1.950   .     S
O499   Zn504   1.950   .     S
O500   Zn503   1.950   .     S
O501   Zn504   1.950   .     S
C505   O569    1.292   .     A
C505   O555    1.297   .     A
C505   C522    1.454   .     S
C506   H547    1.082   .     S
C506   C510    1.402   .     A
C506   C533    1.409   .     A
C507   O573    1.282   .     A
C507   C511    1.367   .     S
C507   O570    1.282   .     A
C508   O571    1.282   .     A
C508   C512    1.367   .     S
C508   O572    1.282   .     A
C509   C536    1.403   .     A
C509   C534    1.403   .     A
C510   C535    1.402   .     A
C510   C365    1.516   1_565 S
C512   C799    1.166   .     S
C513   C518    1.390   .     A
C513   O559    1.387   .     S
C513   C524    1.413   .     A
C514   O560    1.385   .     S
C514   C525    1.412   .     A
C514   C519    1.399   .     A
C515   C525    1.413   .     A
C515   C520    1.390   .     A
C515   O561    1.387   .     S
C516   C523    1.454   .     S
C516   O568    1.297   .     A
C516   O566    1.292   .     A
C517   C521    1.399   .     A
C517   C524    1.412   .     A
C517   O562    1.385   .     S
C518   C522    1.409   .     A
C518   C526    1.478   .     S
C519   C523    1.417   .     A
C519   C528    1.494   .     S
C520   C523    1.409   .     A
C520   C529    1.478   .     S
C521   C522    1.417   .     A
C521   C530    1.494   .     S
C525   C452    1.451   1_655 S
C526   O563    1.221   .     D
C526   H541    1.081   .     S
C527   O574    1.374   .     S
C527   N553    1.381   .     A
C527   C534    1.409   .     A
C528   H542    1.085   .     S
C528   O564    1.221   .     D
C529   O565    1.221   .     D
C529   H543    1.081   .     S
C530   H544    1.085   .     S
C530   O567    1.221   .     D
C531   N554    1.382   .     A
C531   C535    1.409   .     A
C531   O556    1.371   .     S
C532   N553    1.381   .     A
C532   O557    1.374   .     S
C532   C536    1.408   .     A
C533   N554    1.382   .     A
C533   O558    1.371   .     S
C534   H537    1.082   .     S
C535   H545    1.082   .     S
C536   H546    1.082   .     S
H538   O560    0.989   .     S
H540   O562    0.989   .     S
H548   O574    0.982   .     S
H549   O556    0.981   .     S
H550   O557    0.982   .     S
H551   O558    0.981   .     S
H552   O487    0.987   1_655 S
N553   Zn576   2.023   .     S
N554   Zn575   2.023   .     S
O555   Zn575   2.000   .     S
O561   H467    0.987   1_655 S
O566   Zn576   2.000   .     S
O568   Zn575   2.000   .     S
O569   Zn576   2.000   .     S
O570   Zn575   1.950   .     S
O571   Zn576   1.950   .     S
O572   Zn575   1.950   .     S
O573   Zn576   1.950   .     S
C577   O641    1.292   .     A
C577   O627    1.297   .     A
C577   C594    1.454   .     S
C578   H619    1.082   .     S
C578   C582    1.402   .     A
C578   C605    1.409   .     A
C579   O645    1.282   .     A
C579   C583    1.367   .     S
C579   O642    1.282   .     A
C580   O643    1.282   .     A
C580   C584    1.367   .     S
C580   O644    1.282   .     A
C581   C608    1.403   .     A
C581   C606    1.403   .     A
C581   C726    1.516   1_545 S
C582   C607    1.402   .     A
C582   C725    1.516   .     S
C584   C7      1.166   1_556 S
C585   C590    1.390   .     A
C585   O631    1.387   .     S
C585   C596    1.413   .     A
C586   O632    1.385   .     S
C586   C597    1.412   .     A
C586   C591    1.399   .     A
C587   C597    1.413   .     A
C587   C592    1.390   .     A
C587   O633    1.387   .     S
C588   C595    1.454   .     S
C588   O640    1.297   .     A
C588   O638    1.292   .     A
C589   C593    1.399   .     A
C589   C596    1.412   .     A
C589   O634    1.385   .     S
C590   C594    1.409   .     A
C590   C598    1.478   .     S
C591   C595    1.417   .     A
C591   C600    1.494   .     S
C592   C595    1.409   .     A
C592   C601    1.478   .     S
C593   C594    1.417   .     A
C593   C602    1.494   .     S
C596   C669    1.451   1_455 S
C597   C668    1.451   .     S
C598   O635    1.221   .     D
C598   H613    1.081   .     S
C599   O646    1.374   .     S
C599   N625    1.381   .     A
C599   C606    1.409   .     A
C600   H614    1.085   .     S
C600   O636    1.221   .     D
C601   O637    1.221   .     D
C601   H615    1.081   .     S
C602   H616    1.085   .     S
C602   O639    1.221   .     D
C603   N626    1.382   .     A
C603   C607    1.409   .     A
C603   O628    1.371   .     S
C604   N625    1.381   .     A
C604   O629    1.374   .     S
C604   C608    1.408   .     A
C605   N626    1.382   .     A
C605   O630    1.371   .     S
C606   H609    1.082   .     S
C607   H617    1.082   .     S
C608   H618    1.082   .     S
H610   O632    0.989   .     S
H611   O705    0.987   1_455 S
H612   O634    0.989   .     S
H620   O646    0.982   .     S
H621   O628    0.981   .     S
H622   O629    0.982   .     S
H623   O630    0.981   .     S
H624   O703    0.987   .     S
N625   Zn648   2.023   .     S
N626   Zn647   2.023   .     S
O627   Zn647   2.000   .     S
O631   H696    0.987   1_455 S
O633   H683    0.987   .     S
O638   Zn648   2.000   .     S
O640   Zn647   2.000   .     S
O641   Zn648   2.000   .     S
O642   Zn647   1.950   .     S
O643   Zn648   1.950   .     S
O644   Zn647   1.950   .     S
O645   Zn648   1.950   .     S
C649   O713    1.292   .     A
C649   O699    1.297   .     A
C649   C666    1.454   .     S
C650   H691    1.082   .     S
C650   C654    1.402   .     A
C650   C677    1.409   .     A
C651   O717    1.282   .     A
C651   C655    1.367   .     S
C651   O714    1.282   .     A
C652   O715    1.282   .     A
C652   C656    1.367   .     S
C652   O716    1.282   .     A
C653   C680    1.403   .     A
C653   C678    1.403   .     A
C653   C798    1.516   1_545 S
C654   C679    1.402   .     A
C654   C797    1.516   .     S
C656   C79     1.166   1_556 S
C657   C662    1.390   .     A
C657   O703    1.387   .     S
C657   C668    1.413   .     A
C658   O704    1.385   .     S
C658   C669    1.412   .     A
C658   C663    1.399   .     A
C659   C669    1.413   .     A
C659   C664    1.390   .     A
C659   O705    1.387   .     S
C660   C667    1.454   .     S
C660   O712    1.297   .     A
C660   O710    1.292   .     A
C661   C665    1.399   .     A
C661   C668    1.412   .     A
C661   O706    1.385   .     S
C662   C666    1.409   .     A
C662   C670    1.478   .     S
C663   C667    1.417   .     A
C663   C672    1.494   .     S
C664   C667    1.409   .     A
C664   C673    1.478   .     S
C665   C666    1.417   .     A
C665   C674    1.494   .     S
C669   C596    1.451   1_655 S
C670   O707    1.221   .     D
C670   H685    1.081   .     S
C671   O718    1.374   .     S
C671   N697    1.381   .     A
C671   C678    1.409   .     A
C672   H686    1.085   .     S
C672   O708    1.221   .     D
C673   O709    1.221   .     D
C673   H687    1.081   .     S
C674   H688    1.085   .     S
C674   O711    1.221   .     D
C675   N698    1.382   .     A
C675   C679    1.409   .     A
C675   O700    1.371   .     S
C676   N697    1.381   .     A
C676   O701    1.374   .     S
C676   C680    1.408   .     A
C677   N698    1.382   .     A
C677   O702    1.371   .     S
C678   H681    1.082   .     S
C679   H689    1.082   .     S
C680   H690    1.082   .     S
H682   O704    0.989   .     S
H684   O706    0.989   .     S
H692   O718    0.982   .     S
H693   O700    0.981   .     S
H694   O701    0.982   .     S
H695   O702    0.981   .     S
H696   O631    0.987   1_655 S
N697   Zn720   2.023   .     S
N698   Zn719   2.023   .     S
O699   Zn719   2.000   .     S
O705   H611    0.987   1_655 S
O710   Zn720   2.000   .     S
O712   Zn719   2.000   .     S
O713   Zn720   2.000   .     S
O714   Zn719   1.950   .     S
O715   Zn720   1.950   .     S
O716   Zn719   1.950   .     S
O717   Zn720   1.950   .     S
C721   O785    1.292   .     A
C721   O771    1.297   .     A
C721   C738    1.454   .     S
C722   H763    1.082   .     S
C722   C726    1.402   .     A
C722   C749    1.409   .     A
C723   O789    1.282   .     A
C723   C727    1.367   .     S
C723   O786    1.282   .     A
C724   O787    1.282   .     A
C724   C728    1.367   .     S
C724   O788    1.282   .     A
C725   C752    1.403   .     A
C725   C750    1.403   .     A
C726   C751    1.402   .     A
C726   C581    1.516   1_565 S
C728   C151    1.166   1_556 S
C729   C734    1.390   .     A
C729   O775    1.387   .     S
C729   C740    1.413   .     A
C730   O776    1.385   .     S
C730   C741    1.412   .     A
C730   C735    1.399   .     A
C731   C741    1.413   .     A
C731   C736    1.390   .     A
C731   O777    1.387   .     S
C732   C739    1.454   .     S
C732   O784    1.297   .     A
C732   O782    1.292   .     A
C733   C737    1.399   .     A
C733   C740    1.412   .     A
C733   O778    1.385   .     S
C734   C738    1.409   .     A
C734   C742    1.478   .     S
C735   C739    1.417   .     A
C735   C744    1.494   .     S
C736   C739    1.409   .     A
C736   C745    1.478   .     S
C737   C738    1.417   .     A
C737   C746    1.494   .     S
C740   C813    1.451   1_455 S
C741   C812    1.451   .     S
C742   O779    1.221   .     D
C742   H757    1.081   .     S
C743   O790    1.374   .     S
C743   N769    1.381   .     A
C743   C750    1.409   .     A
C744   H758    1.085   .     S
C744   O780    1.221   .     D
C745   O781    1.221   .     D
C745   H759    1.081   .     S
C746   H760    1.085   .     S
C746   O783    1.221   .     D
C747   N770    1.382   .     A
C747   C751    1.409   .     A
C747   O772    1.371   .     S
C748   N769    1.381   .     A
C748   O773    1.374   .     S
C748   C752    1.408   .     A
C749   N770    1.382   .     A
C749   O774    1.371   .     S
C750   H753    1.082   .     S
C751   H761    1.082   .     S
C752   H762    1.082   .     S
H754   O776    0.989   .     S
H755   O849    0.987   1_455 S
H756   O778    0.989   .     S
H764   O790    0.982   .     S
H765   O772    0.981   .     S
H766   O773    0.982   .     S
H767   O774    0.981   .     S
H768   O847    0.987   .     S
N769   Zn792   2.023   .     S
N770   Zn791   2.023   .     S
O771   Zn791   2.000   .     S
O775   H840    0.987   1_455 S
O777   H827    0.987   .     S
O782   Zn792   2.000   .     S
O784   Zn791   2.000   .     S
O785   Zn792   2.000   .     S
O786   Zn791   1.950   .     S
O787   Zn792   1.950   .     S
O788   Zn791   1.950   .     S
O789   Zn792   1.950   .     S
C793   O857    1.292   .     A
C793   O843    1.297   .     A
C793   C810    1.454   .     S
C794   H835    1.082   .     S
C794   C798    1.402   .     A
C794   C821    1.409   .     A
C795   O861    1.282   .     A
C795   C799    1.367   .     S
C795   O858    1.282   .     A
C796   O859    1.282   .     A
C796   C800    1.367   .     S
C796   O860    1.282   .     A
C797   C824    1.403   .     A
C797   C822    1.403   .     A
C798   C823    1.402   .     A
C798   C653    1.516   1_565 S
C800   C223    1.166   1_556 S
C801   C806    1.390   .     A
C801   O847    1.387   .     S
C801   C812    1.413   .     A
C802   O848    1.385   .     S
C802   C813    1.412   .     A
C802   C807    1.399   .     A
C803   C813    1.413   .     A
C803   C808    1.390   .     A
C803   O849    1.387   .     S
C804   C811    1.454   .     S
C804   O856    1.297   .     A
C804   O854    1.292   .     A
C805   C809    1.399   .     A
C805   C812    1.412   .     A
C805   O850    1.385   .     S
C806   C810    1.409   .     A
C806   C814    1.478   .     S
C807   C811    1.417   .     A
C807   C816    1.494   .     S
C808   C811    1.409   .     A
C808   C817    1.478   .     S
C809   C810    1.417   .     A
C809   C818    1.494   .     S
C813   C740    1.451   1_655 S
C814   O851    1.221   .     D
C814   H829    1.081   .     S
C815   O862    1.374   .     S
C815   N841    1.381   .     A
C815   C822    1.409   .     A
C816   H830    1.085   .     S
C816   O852    1.221   .     D
C817   O853    1.221   .     D
C817   H831    1.081   .     S
C818   H832    1.085   .     S
C818   O855    1.221   .     D
C819   N842    1.382   .     A
C819   C823    1.409   .     A
C819   O844    1.371   .     S
C820   N841    1.381   .     A
C820   O845    1.374   .     S
C820   C824    1.408   .     A
C821   N842    1.382   .     A
C821   O846    1.371   .     S
C822   H825    1.082   .     S
C823   H833    1.082   .     S
C824   H834    1.082   .     S
H826   O848    0.989   .     S
H828   O850    0.989   .     S
H836   O862    0.982   .     S
H837   O844    0.981   .     S
H838   O845    0.982   .     S
H839   O846    0.981   .     S
H840   O775    0.987   1_655 S
N841   Zn864   2.023   .     S
N842   Zn863   2.023   .     S
O843   Zn863   2.000   .     S
O849   H755    0.987   1_655 S
O854   Zn864   2.000   .     S
O856   Zn863   2.000   .     S
O857   Zn864   2.000   .     S
O858   Zn863   1.950   .     S
O859   Zn864   1.950   .     S
O860   Zn863   1.950   .     S
O861   Zn864   1.950   .     S
