data_str_m1_o1_o2_pcu_sym.112
_audit_creation_date              2020-01-03
_audit_creation_method            'Materials Studio'
_symmetry_space_group_name_H-M    'P1'
_symmetry_Int_Tables_number       1
_symmetry_cell_setting            triclinic
loop_
_symmetry_equiv_pos_as_xyz
  x,y,z
_cell_length_a                    36.7154
_cell_length_b                    36.7154
_cell_length_c                    34.5180
_cell_angle_alpha                 90.0000
_cell_angle_beta                  90.0000
_cell_angle_gamma                 90.0000
loop_
_atom_site_label
_atom_site_type_symbol
_atom_site_fract_x
_atom_site_fract_y
_atom_site_fract_z
_atom_site_U_iso_or_equiv
_atom_site_adp_type
_atom_site_occupancy
C1     C     0.22802   0.02527   0.04170   0.00000  Uiso   1.00
C2     C     0.02198   0.27527   0.45830   0.00000  Uiso   1.00
C3     C     0.34812   0.40188   0.75000   0.00000  Uiso   1.00
C4     C     0.40188   0.15188   0.25000   0.00000  Uiso   1.00
C5     C     0.09812   0.34812   0.75000   0.00000  Uiso   1.00
C6     C     0.34812   0.40188   0.25000   0.00000  Uiso   1.00
C7     C     0.15188   0.09812   0.75000   0.00000  Uiso   1.00
C8     C     0.09812   0.15188   0.75000   0.00000  Uiso   1.00
C9     C     0.40188   0.34812   0.25000   0.00000  Uiso   1.00
C10    C     0.15188   0.40188   0.75000   0.00000  Uiso   1.00
C11    C     0.34812   0.09812   0.25000   0.00000  Uiso   1.00
C12    C     0.40188   0.34812   0.75000   0.00000  Uiso   1.00
C13    C     0.22473   0.47802   0.54170   0.00000  Uiso   1.00
C14    C     0.09812   0.15188   0.25000   0.00000  Uiso   1.00
C15    C     0.34812   0.09812   0.75000   0.00000  Uiso   1.00
C16    C     0.15188   0.40188   0.25000   0.00000  Uiso   1.00
C17    C     0.25000   0.00000   0.10254   0.00000  Uiso   1.00
C18    C     0.25000   0.00000   0.89746   0.00000  Uiso   1.00
C19    C     0.00000   0.25000   0.10254   0.00000  Uiso   1.00
C20    C     0.00000   0.25000   0.89746   0.00000  Uiso   1.00
C21    C     0.00000   0.25000   0.60254   0.00000  Uiso   1.00
C22    C     0.00000   0.25000   0.39746   0.00000  Uiso   1.00
C23    C     0.25000   0.00000   0.60254   0.00000  Uiso   1.00
C24    C     0.22473   0.02198   0.45830   0.00000  Uiso   1.00
C25    C     0.25000   0.00000   0.39746   0.00000  Uiso   1.00
C26    C     0.02198   0.22473   0.54170   0.00000  Uiso   1.00
C27    C     0.47802   0.22473   0.45830   0.00000  Uiso   1.00
C28    C     0.27527   0.02198   0.54170   0.00000  Uiso   1.00
C29    C     0.27527   0.47802   0.45830   0.00000  Uiso   1.00
C30    C     0.22906   0.02608   0.08207   0.00000  Uiso   1.00
C31    C     0.27094   0.02608   0.91793   0.00000  Uiso   1.00
C32    C     0.47392   0.22906   0.08207   0.00000  Uiso   1.00
C33    C     0.27198   0.02527   0.95830   0.00000  Uiso   1.00
C34    C     0.47392   0.27094   0.91793   0.00000  Uiso   1.00
C35    C     0.27094   0.47392   0.08207   0.00000  Uiso   1.00
C36    C     0.22906   0.47392   0.91793   0.00000  Uiso   1.00
C37    C     0.02608   0.27094   0.08207   0.00000  Uiso   1.00
C38    C     0.02608   0.22906   0.91793   0.00000  Uiso   1.00
C39    C     0.47906   0.27608   0.58207   0.00000  Uiso   1.00
C40    C     0.02094   0.27608   0.41793   0.00000  Uiso   1.00
C41    C     0.22392   0.47906   0.58207   0.00000  Uiso   1.00
C42    C     0.22392   0.02094   0.41793   0.00000  Uiso   1.00
C43    C     0.02094   0.22392   0.58207   0.00000  Uiso   1.00
C44    C     0.47473   0.22802   0.04170   0.00000  Uiso   1.00
C45    C     0.47906   0.22392   0.41793   0.00000  Uiso   1.00
C46    C     0.27608   0.02094   0.58207   0.00000  Uiso   1.00
C47    C     0.27608   0.47906   0.41793   0.00000  Uiso   1.00
C48    C     0.25000  -0.00000   0.02130   0.00000  Uiso   1.00
C49    C     0.25000  -0.00000   0.97870   0.00000  Uiso   1.00
C50    C     0.00000   0.25000   0.02130   0.00000  Uiso   1.00
C51    C     0.00000   0.25000   0.97870   0.00000  Uiso   1.00
C52    C     0.00000   0.25000   0.52130   0.00000  Uiso   1.00
C53    C     0.00000   0.25000   0.47870   0.00000  Uiso   1.00
C54    C     0.25000   0.00000   0.52130   0.00000  Uiso   1.00
C55    C     0.47473   0.27198   0.95830   0.00000  Uiso   1.00
C56    C     0.25000   0.00000   0.47870   0.00000  Uiso   1.00
C57    C     0.25000   0.00000   0.35509   0.00000  Uiso   1.00
C58    C     0.25000   0.00000   0.64491   0.00000  Uiso   1.00
C59    C     0.00000   0.25000   0.35509   0.00000  Uiso   1.00
C60    C     0.00000   0.25000   0.64491   0.00000  Uiso   1.00
C61    C     0.00000   0.25000   0.85509   0.00000  Uiso   1.00
C62    C     0.00000   0.25000   0.14491   0.00000  Uiso   1.00
C63    C     0.25000   0.00000   0.85509   0.00000  Uiso   1.00
C64    C     0.25000   0.00000   0.14491   0.00000  Uiso   1.00
C65    C     0.17994   0.07006   0.25000   0.00000  Uiso   1.00
C66    C     0.27198   0.47473   0.04170   0.00000  Uiso   1.00
C67    C     0.32006   0.42994   0.75000   0.00000  Uiso   1.00
C68    C     0.42994   0.17994   0.25000   0.00000  Uiso   1.00
C69    C     0.07006   0.32006   0.75000   0.00000  Uiso   1.00
C70    C     0.32006   0.42994   0.25000   0.00000  Uiso   1.00
C71    C     0.17994   0.07006   0.75000   0.00000  Uiso   1.00
C72    C     0.07006   0.32006   0.25000   0.00000  Uiso   1.00
C73    C     0.42994   0.17994   0.75000   0.00000  Uiso   1.00
C74    C     0.17994   0.42994   0.75000   0.00000  Uiso   1.00
C75    C     0.32006   0.07006   0.25000   0.00000  Uiso   1.00
C76    C     0.42994   0.32006   0.75000   0.00000  Uiso   1.00
C77    C     0.22802   0.47473   0.95830   0.00000  Uiso   1.00
C78    C     0.07006   0.17994   0.25000   0.00000  Uiso   1.00
C79    C     0.32006   0.07006   0.75000   0.00000  Uiso   1.00
C80    C     0.17994   0.42994   0.25000   0.00000  Uiso   1.00
C81    C     0.07006   0.17994   0.75000   0.00000  Uiso   1.00
C82    C     0.42994   0.32006   0.25000   0.00000  Uiso   1.00
C83    C     0.11653   0.41018   0.23721   0.00000  Uiso   1.00
C84    C     0.38347   0.08981   0.76279   0.00000  Uiso   1.00
C85    C     0.08982   0.11653   0.23721   0.00000  Uiso   1.00
C86    C     0.41019   0.38347   0.76279   0.00000  Uiso   1.00
C87    C     0.38347   0.08982   0.23721   0.00000  Uiso   1.00
C88    C     0.02527   0.27198   0.04170   0.00000  Uiso   1.00
C89    C     0.11653   0.41019   0.76279   0.00000  Uiso   1.00
C90    C     0.41018   0.38347   0.23721   0.00000  Uiso   1.00
C91    C     0.08981   0.11653   0.76279   0.00000  Uiso   1.00
C92    C     0.11653   0.08982   0.76279   0.00000  Uiso   1.00
C93    C     0.38347   0.41019   0.23721   0.00000  Uiso   1.00
C94    C     0.08982   0.38347   0.76279   0.00000  Uiso   1.00
C95    C     0.41019   0.11653   0.23721   0.00000  Uiso   1.00
C96    C     0.38347   0.41018   0.76279   0.00000  Uiso   1.00
C97    C     0.11653   0.08981   0.23721   0.00000  Uiso   1.00
C98    C     0.41018   0.11653   0.76279   0.00000  Uiso   1.00
C99    C     0.02527   0.22802   0.95830   0.00000  Uiso   1.00
C100   C     0.08981   0.38347   0.23721   0.00000  Uiso   1.00
C101   C     0.36653   0.16018   0.73721   0.00000  Uiso   1.00
C102   C     0.13347   0.33981   0.26279   0.00000  Uiso   1.00
C103   C     0.33982   0.36653   0.73721   0.00000  Uiso   1.00
C104   C     0.16019   0.13347   0.26279   0.00000  Uiso   1.00
C105   C     0.13347   0.33981   0.73721   0.00000  Uiso   1.00
C106   C     0.36653   0.16019   0.26279   0.00000  Uiso   1.00
C107   C     0.16018   0.13347   0.73721   0.00000  Uiso   1.00
C108   C     0.33981   0.36653   0.26279   0.00000  Uiso   1.00
C109   C     0.36653   0.33982   0.26279   0.00000  Uiso   1.00
C110   C     0.47802   0.27527   0.54170   0.00000  Uiso   1.00
C111   C     0.13347   0.16019   0.73721   0.00000  Uiso   1.00
C112   C     0.33982   0.13347   0.26279   0.00000  Uiso   1.00
C113   C     0.16019   0.36653   0.73721   0.00000  Uiso   1.00
C114   C     0.13347   0.16018   0.26279   0.00000  Uiso   1.00
C115   C     0.36653   0.33981   0.73721   0.00000  Uiso   1.00
C116   C     0.16018   0.36653   0.26279   0.00000  Uiso   1.00
C117   C     0.33981   0.13347   0.73721   0.00000  Uiso   1.00
C118   C     0.09812   0.34812   0.25000   0.00000  Uiso   1.00
C119   C     0.40188   0.15188   0.75000   0.00000  Uiso   1.00
C120   C     0.15188   0.09812   0.25000   0.00000  Uiso   1.00
F121   F     0.10747   0.44435   0.22556   0.00000  Uiso   1.00
F122   F     0.39253   0.44435   0.22556   0.00000  Uiso   1.00
F123   F     0.05565   0.39253   0.77444   0.00000  Uiso   1.00
F124   F     0.44435   0.10748   0.22556   0.00000  Uiso   1.00
F125   F     0.39253   0.44435   0.77444   0.00000  Uiso   1.00
F126   F     0.10748   0.05565   0.22556   0.00000  Uiso   1.00
F127   F     0.44435   0.10747   0.77444   0.00000  Uiso   1.00
F128   F     0.05565   0.39252   0.22556   0.00000  Uiso   1.00
F129   F     0.35747   0.19435   0.72556   0.00000  Uiso   1.00
F130   F     0.14253   0.30565   0.27444   0.00000  Uiso   1.00
F131   F     0.30565   0.35747   0.72556   0.00000  Uiso   1.00
F132   F     0.39253   0.05565   0.77444   0.00000  Uiso   1.00
F133   F     0.19435   0.14253   0.27444   0.00000  Uiso   1.00
F134   F     0.14253   0.30565   0.72556   0.00000  Uiso   1.00
F135   F     0.35748   0.19435   0.27445   0.00000  Uiso   1.00
F136   F     0.19435   0.14253   0.72556   0.00000  Uiso   1.00
F137   F     0.30565   0.35748   0.27444   0.00000  Uiso   1.00
F138   F     0.35747   0.30565   0.27444   0.00000  Uiso   1.00
F139   F     0.14253   0.19435   0.72556   0.00000  Uiso   1.00
F140   F     0.30565   0.14253   0.27444   0.00000  Uiso   1.00
F141   F     0.19435   0.35748   0.72556   0.00000  Uiso   1.00
F142   F     0.14253   0.19435   0.27444   0.00000  Uiso   1.00
F143   F     0.05565   0.10747   0.22556   0.00000  Uiso   1.00
F144   F     0.35748   0.30565   0.72556   0.00000  Uiso   1.00
F145   F     0.19435   0.35747   0.27444   0.00000  Uiso   1.00
F146   F     0.30565   0.14253   0.72556   0.00000  Uiso   1.00
F147   F     0.44435   0.39253   0.77444   0.00000  Uiso   1.00
F148   F     0.39253   0.05565   0.22556   0.00000  Uiso   1.00
F149   F     0.10748   0.44435   0.77444   0.00000  Uiso   1.00
F150   F     0.44435   0.39253   0.22556   0.00000  Uiso   1.00
F151   F     0.05565   0.10748   0.77444   0.00000  Uiso   1.00
F152   F     0.10747   0.05565   0.77444   0.00000  Uiso   1.00
H153   H     0.20478   0.04592   0.99533   0.00000  Uiso   1.00
H154   H     0.04522   0.29592   0.50467   0.00000  Uiso   1.00
H155   H     0.20408   0.45478   0.49533   0.00000  Uiso   1.00
H156   H     0.20408   0.04522   0.50467   0.00000  Uiso   1.00
H157   H     0.04522   0.20408   0.49533   0.00000  Uiso   1.00
H158   H     0.45478   0.20408   0.50467   0.00000  Uiso   1.00
H159   H     0.29592   0.04523   0.49533   0.00000  Uiso   1.00
H160   H     0.29592   0.45478   0.50467   0.00000  Uiso   1.00
H161   H     0.21960   0.05800   0.12622   0.00000  Uiso   1.00
H162   H     0.28040   0.05800   0.87379   0.00000  Uiso   1.00
H163   H     0.44200   0.21960   0.12622   0.00000  Uiso   1.00
H164   H     0.29523   0.04592   0.00467   0.00000  Uiso   1.00
H165   H     0.44200   0.28040   0.87379   0.00000  Uiso   1.00
H166   H     0.28040   0.44200   0.12622   0.00000  Uiso   1.00
H167   H     0.21960   0.44200   0.87379   0.00000  Uiso   1.00
H168   H     0.05800   0.28040   0.12622   0.00000  Uiso   1.00
H169   H     0.05800   0.21960   0.87379   0.00000  Uiso   1.00
H170   H     0.46960   0.30800   0.62622   0.00000  Uiso   1.00
H171   H     0.03040   0.30800   0.37379   0.00000  Uiso   1.00
H172   H     0.19200   0.46960   0.62622   0.00000  Uiso   1.00
H173   H     0.19200   0.03040   0.37379   0.00000  Uiso   1.00
H174   H     0.03040   0.19200   0.62622   0.00000  Uiso   1.00
H175   H     0.45408   0.20478   0.99533   0.00000  Uiso   1.00
H176   H     0.46960   0.19200   0.37379   0.00000  Uiso   1.00
H177   H     0.30800   0.03040   0.62622   0.00000  Uiso   1.00
H178   H     0.30800   0.46960   0.37379   0.00000  Uiso   1.00
H179   H     0.45408   0.29523   0.00467   0.00000  Uiso   1.00
H180   H     0.29522   0.45408   0.99533   0.00000  Uiso   1.00
H181   H     0.20478   0.45408   0.00467   0.00000  Uiso   1.00
H182   H     0.04592   0.29522   0.99533   0.00000  Uiso   1.00
H183   H     0.04592   0.20478   0.00467   0.00000  Uiso   1.00
H184   H     0.45478   0.29592   0.49533   0.00000  Uiso   1.00
O185   O     0.25000   0.00000   0.25000   0.00000  Uiso   1.00
O186   O     0.25000   0.46964   0.66317   0.00000  Uiso   1.00
O187   O     0.46964   0.25000   0.33683   0.00000  Uiso   1.00
O188   O     0.03036   0.25000   0.66317   0.00000  Uiso   1.00
O189   O     0.00000   0.21964   0.83683   0.00000  Uiso   1.00
O190   O     0.00000   0.28036   0.16317   0.00000  Uiso   1.00
O191   O     0.28036   0.00000   0.83683   0.00000  Uiso   1.00
O192   O     0.21964   0.00000   0.16317   0.00000  Uiso   1.00
O193   O     0.00000   0.28036   0.83683   0.00000  Uiso   1.00
O194   O     0.00000   0.21964   0.16317   0.00000  Uiso   1.00
O195   O     0.21964   0.00000   0.83683   0.00000  Uiso   1.00
O196   O     0.25000   0.00000   0.75000   0.00000  Uiso   1.00
O197   O     0.28036   0.00000   0.16317   0.00000  Uiso   1.00
O198   O     0.20726   0.07307   0.27282   0.00000  Uiso   1.00
O199   O     0.29275   0.42693   0.72718   0.00000  Uiso   1.00
O200   O     0.42693   0.20726   0.27282   0.00000  Uiso   1.00
O201   O     0.07307   0.29274   0.72718   0.00000  Uiso   1.00
O202   O     0.29275   0.42693   0.27282   0.00000  Uiso   1.00
O203   O     0.20726   0.07307   0.72718   0.00000  Uiso   1.00
O204   O     0.07307   0.29274   0.27282   0.00000  Uiso   1.00
O205   O     0.42693   0.20726   0.72718   0.00000  Uiso   1.00
O206   O     0.20726   0.42693   0.72718   0.00000  Uiso   1.00
O207   O     0.00000   0.25000   0.25000   0.00000  Uiso   1.00
O208   O     0.29275   0.07307   0.27282   0.00000  Uiso   1.00
O209   O     0.42693   0.29275   0.72718   0.00000  Uiso   1.00
O210   O     0.07307   0.20725   0.27282   0.00000  Uiso   1.00
O211   O     0.29275   0.07307   0.72718   0.00000  Uiso   1.00
O212   O     0.20726   0.42693   0.27282   0.00000  Uiso   1.00
O213   O     0.07307   0.20725   0.72718   0.00000  Uiso   1.00
O214   O     0.42693   0.29275   0.27282   0.00000  Uiso   1.00
O215   O     0.45726   0.32307   0.77282   0.00000  Uiso   1.00
O216   O     0.04275   0.17693   0.22718   0.00000  Uiso   1.00
O217   O     0.17693   0.45725   0.77282   0.00000  Uiso   1.00
O218   O     0.00000   0.25000   0.75000   0.00000  Uiso   1.00
O219   O     0.32307   0.04275   0.22718   0.00000  Uiso   1.00
O220   O     0.04275   0.17693   0.77282   0.00000  Uiso   1.00
O221   O     0.45726   0.32307   0.22718   0.00000  Uiso   1.00
O222   O     0.32307   0.04275   0.77282   0.00000  Uiso   1.00
O223   O     0.17693   0.45725   0.22718   0.00000  Uiso   1.00
O224   O     0.45726   0.17693   0.22718   0.00000  Uiso   1.00
O225   O     0.04275   0.32307   0.77282   0.00000  Uiso   1.00
O226   O     0.17693   0.04275   0.22718   0.00000  Uiso   1.00
O227   O     0.32307   0.45726   0.77282   0.00000  Uiso   1.00
O228   O     0.04275   0.32307   0.22718   0.00000  Uiso   1.00
O229   O     0.25000   0.46964   0.33683   0.00000  Uiso   1.00
O230   O     0.45726   0.17693   0.77282   0.00000  Uiso   1.00
O231   O     0.32307   0.45726   0.22718   0.00000  Uiso   1.00
O232   O     0.17693   0.04275   0.77282   0.00000  Uiso   1.00
O233   O     0.20581   0.05052   0.02351   0.00000  Uiso   1.00
O234   O     0.29419   0.05052   0.97649   0.00000  Uiso   1.00
O235   O     0.44948   0.20581   0.02351   0.00000  Uiso   1.00
O236   O     0.44948   0.29419   0.97649   0.00000  Uiso   1.00
O237   O     0.29419   0.44948   0.02351   0.00000  Uiso   1.00
O238   O     0.20581   0.44948   0.97649   0.00000  Uiso   1.00
O239   O     0.05052   0.29419   0.02351   0.00000  Uiso   1.00
O240   O     0.25000   0.03036   0.66317   0.00000  Uiso   1.00
O241   O     0.05052   0.20581   0.97649   0.00000  Uiso   1.00
O242   O     0.45581   0.30052   0.52351   0.00000  Uiso   1.00
O243   O     0.04419   0.30052   0.47649   0.00000  Uiso   1.00
O244   O     0.19948   0.45581   0.52351   0.00000  Uiso   1.00
O245   O     0.19948   0.04419   0.47649   0.00000  Uiso   1.00
O246   O     0.04419   0.19948   0.52351   0.00000  Uiso   1.00
O247   O     0.45581   0.19948   0.47649   0.00000  Uiso   1.00
O248   O     0.30052   0.04419   0.52351   0.00000  Uiso   1.00
O249   O     0.30052   0.45581   0.47649   0.00000  Uiso   1.00
O250   O     0.20920   0.05313   0.10030   0.00000  Uiso   1.00
O251   O     0.03036   0.25000   0.33683   0.00000  Uiso   1.00
O252   O     0.29080   0.05313   0.89970   0.00000  Uiso   1.00
O253   O     0.44687   0.20920   0.10030   0.00000  Uiso   1.00
O254   O     0.44687   0.29080   0.89970   0.00000  Uiso   1.00
O255   O     0.29080   0.44687   0.10030   0.00000  Uiso   1.00
O256   O     0.20920   0.44687   0.89970   0.00000  Uiso   1.00
O257   O     0.05313   0.29080   0.10030   0.00000  Uiso   1.00
O258   O     0.05313   0.20920   0.89970   0.00000  Uiso   1.00
O259   O     0.45920   0.30313   0.60030   0.00000  Uiso   1.00
O260   O     0.04080   0.30313   0.39970   0.00000  Uiso   1.00
O261   O     0.19687   0.45920   0.60030   0.00000  Uiso   1.00
O262   O     0.46964   0.25000   0.66317   0.00000  Uiso   1.00
O263   O     0.19687   0.04080   0.39970   0.00000  Uiso   1.00
O264   O     0.04080   0.19687   0.60030   0.00000  Uiso   1.00
O265   O     0.45920   0.19687   0.39970   0.00000  Uiso   1.00
O266   O     0.30313   0.04080   0.60030   0.00000  Uiso   1.00
O267   O     0.30313   0.45920   0.39970   0.00000  Uiso   1.00
O268   O     0.25000   0.03036   0.33683   0.00000  Uiso   1.00
Zn269  Zn    0.20660   0.00000   0.21760   0.00000  Uiso   1.00
Zn270  Zn    0.04340   0.25000   0.28240   0.00000  Uiso   1.00
Zn271  Zn    0.25000   0.45660   0.71760   0.00000  Uiso   1.00
Zn272  Zn    0.25000   0.04340   0.28240   0.00000  Uiso   1.00
Zn273  Zn    0.04340   0.25000   0.71760   0.00000  Uiso   1.00
Zn274  Zn    0.45660   0.25000   0.28240   0.00000  Uiso   1.00
Zn275  Zn    0.25000   0.04340   0.71760   0.00000  Uiso   1.00
Zn276  Zn    0.25000   0.45660   0.28240   0.00000  Uiso   1.00
Zn277  Zn    0.29340   0.00000   0.78240   0.00000  Uiso   1.00
Zn278  Zn    0.00000   0.20660   0.21760   0.00000  Uiso   1.00
Zn279  Zn    0.00000   0.29340   0.78240   0.00000  Uiso   1.00
Zn280  Zn    0.29340   0.00000   0.21760   0.00000  Uiso   1.00
Zn281  Zn    0.20660   0.00000   0.78240   0.00000  Uiso   1.00
Zn282  Zn    0.00000   0.29340   0.21760   0.00000  Uiso   1.00
Zn283  Zn    0.00000   0.20660   0.78240   0.00000  Uiso   1.00
Zn284  Zn    0.45660   0.25000   0.71760   0.00000  Uiso   1.00
C285   C     0.72802   0.02527   0.04170   0.00000  Uiso   1.00
C286   C     0.52198   0.27527   0.45830   0.00000  Uiso   1.00
C287   C     0.84812   0.40188   0.75000   0.00000  Uiso   1.00
C288   C     0.90188   0.15188   0.25000   0.00000  Uiso   1.00
C289   C     0.59812   0.34812   0.75000   0.00000  Uiso   1.00
C290   C     0.84812   0.40188   0.25000   0.00000  Uiso   1.00
C291   C     0.65188   0.09812   0.75000   0.00000  Uiso   1.00
C292   C     0.59812   0.15188   0.75000   0.00000  Uiso   1.00
C293   C     0.90188   0.34812   0.25000   0.00000  Uiso   1.00
C294   C     0.65188   0.40188   0.75000   0.00000  Uiso   1.00
C295   C     0.84812   0.09812   0.25000   0.00000  Uiso   1.00
C296   C     0.90188   0.34812   0.75000   0.00000  Uiso   1.00
C297   C     0.72473   0.47802   0.54170   0.00000  Uiso   1.00
C298   C     0.59812   0.15188   0.25000   0.00000  Uiso   1.00
C299   C     0.84812   0.09812   0.75000   0.00000  Uiso   1.00
C300   C     0.65188   0.40188   0.25000   0.00000  Uiso   1.00
C301   C     0.75000   0.00000   0.10254   0.00000  Uiso   1.00
C302   C     0.75000   0.00000   0.89746   0.00000  Uiso   1.00
C303   C     0.50000   0.25000   0.10254   0.00000  Uiso   1.00
C304   C     0.50000   0.25000   0.89746   0.00000  Uiso   1.00
C305   C     0.50000   0.25000   0.60254   0.00000  Uiso   1.00
C306   C     0.50000   0.25000   0.39746   0.00000  Uiso   1.00
C307   C     0.75000   0.00000   0.60254   0.00000  Uiso   1.00
C308   C     0.72473   0.02198   0.45830   0.00000  Uiso   1.00
C309   C     0.75000   0.00000   0.39746   0.00000  Uiso   1.00
C310   C     0.52198   0.22473   0.54170   0.00000  Uiso   1.00
C311   C     0.97802   0.22473   0.45830   0.00000  Uiso   1.00
C312   C     0.77527   0.02198   0.54170   0.00000  Uiso   1.00
C313   C     0.77527   0.47802   0.45830   0.00000  Uiso   1.00
C314   C     0.72906   0.02608   0.08207   0.00000  Uiso   1.00
C315   C     0.77094   0.02608   0.91793   0.00000  Uiso   1.00
C316   C     0.97392   0.22906   0.08207   0.00000  Uiso   1.00
C317   C     0.77198   0.02527   0.95830   0.00000  Uiso   1.00
C318   C     0.97392   0.27094   0.91793   0.00000  Uiso   1.00
C319   C     0.77094   0.47392   0.08207   0.00000  Uiso   1.00
C320   C     0.72906   0.47392   0.91793   0.00000  Uiso   1.00
C321   C     0.52608   0.27094   0.08207   0.00000  Uiso   1.00
C322   C     0.52608   0.22906   0.91793   0.00000  Uiso   1.00
C323   C     0.97906   0.27608   0.58207   0.00000  Uiso   1.00
C324   C     0.52094   0.27608   0.41793   0.00000  Uiso   1.00
C325   C     0.72392   0.47906   0.58207   0.00000  Uiso   1.00
C326   C     0.72392   0.02094   0.41793   0.00000  Uiso   1.00
C327   C     0.52094   0.22392   0.58207   0.00000  Uiso   1.00
C328   C     0.97473   0.22802   0.04170   0.00000  Uiso   1.00
C329   C     0.97906   0.22392   0.41793   0.00000  Uiso   1.00
C330   C     0.77608   0.02094   0.58207   0.00000  Uiso   1.00
C331   C     0.77608   0.47906   0.41793   0.00000  Uiso   1.00
C332   C     0.75000  -0.00000   0.02130   0.00000  Uiso   1.00
C333   C     0.75000  -0.00000   0.97870   0.00000  Uiso   1.00
C334   C     0.50000   0.25000   0.02130   0.00000  Uiso   1.00
C335   C     0.50000   0.25000   0.97870   0.00000  Uiso   1.00
C336   C     0.50000   0.25000   0.52130   0.00000  Uiso   1.00
C337   C     0.50000   0.25000   0.47870   0.00000  Uiso   1.00
C338   C     0.75000   0.00000   0.52130   0.00000  Uiso   1.00
C339   C     0.97473   0.27198   0.95830   0.00000  Uiso   1.00
C340   C     0.75000   0.00000   0.47870   0.00000  Uiso   1.00
C341   C     0.75000   0.00000   0.35509   0.00000  Uiso   1.00
C342   C     0.75000   0.00000   0.64491   0.00000  Uiso   1.00
C343   C     0.50000   0.25000   0.35509   0.00000  Uiso   1.00
C344   C     0.50000   0.25000   0.64491   0.00000  Uiso   1.00
C345   C     0.50000   0.25000   0.85509   0.00000  Uiso   1.00
C346   C     0.50000   0.25000   0.14491   0.00000  Uiso   1.00
C347   C     0.75000   0.00000   0.85509   0.00000  Uiso   1.00
C348   C     0.75000   0.00000   0.14491   0.00000  Uiso   1.00
C349   C     0.67994   0.07006   0.25000   0.00000  Uiso   1.00
C350   C     0.77198   0.47473   0.04170   0.00000  Uiso   1.00
C351   C     0.82006   0.42994   0.75000   0.00000  Uiso   1.00
C352   C     0.92994   0.17994   0.25000   0.00000  Uiso   1.00
C353   C     0.57006   0.32006   0.75000   0.00000  Uiso   1.00
C354   C     0.82006   0.42994   0.25000   0.00000  Uiso   1.00
C355   C     0.67994   0.07006   0.75000   0.00000  Uiso   1.00
C356   C     0.57006   0.32006   0.25000   0.00000  Uiso   1.00
C357   C     0.92994   0.17994   0.75000   0.00000  Uiso   1.00
C358   C     0.67994   0.42994   0.75000   0.00000  Uiso   1.00
C359   C     0.82006   0.07006   0.25000   0.00000  Uiso   1.00
C360   C     0.92994   0.32006   0.75000   0.00000  Uiso   1.00
C361   C     0.72802   0.47473   0.95830   0.00000  Uiso   1.00
C362   C     0.57006   0.17994   0.25000   0.00000  Uiso   1.00
C363   C     0.82006   0.07006   0.75000   0.00000  Uiso   1.00
C364   C     0.67994   0.42994   0.25000   0.00000  Uiso   1.00
C365   C     0.57006   0.17994   0.75000   0.00000  Uiso   1.00
C366   C     0.92994   0.32006   0.25000   0.00000  Uiso   1.00
C367   C     0.61653   0.41018   0.23721   0.00000  Uiso   1.00
C368   C     0.88347   0.08981   0.76279   0.00000  Uiso   1.00
C369   C     0.58982   0.11653   0.23721   0.00000  Uiso   1.00
C370   C     0.91019   0.38347   0.76279   0.00000  Uiso   1.00
C371   C     0.88347   0.08982   0.23721   0.00000  Uiso   1.00
C372   C     0.52527   0.27198   0.04170   0.00000  Uiso   1.00
C373   C     0.61653   0.41019   0.76279   0.00000  Uiso   1.00
C374   C     0.91018   0.38347   0.23721   0.00000  Uiso   1.00
C375   C     0.58981   0.11653   0.76279   0.00000  Uiso   1.00
C376   C     0.61653   0.08982   0.76279   0.00000  Uiso   1.00
C377   C     0.88347   0.41019   0.23721   0.00000  Uiso   1.00
C378   C     0.58982   0.38347   0.76279   0.00000  Uiso   1.00
C379   C     0.91019   0.11653   0.23721   0.00000  Uiso   1.00
C380   C     0.88347   0.41018   0.76279   0.00000  Uiso   1.00
C381   C     0.61653   0.08981   0.23721   0.00000  Uiso   1.00
C382   C     0.91018   0.11653   0.76279   0.00000  Uiso   1.00
C383   C     0.52527   0.22802   0.95830   0.00000  Uiso   1.00
C384   C     0.58981   0.38347   0.23721   0.00000  Uiso   1.00
C385   C     0.86653   0.16018   0.73721   0.00000  Uiso   1.00
C386   C     0.63347   0.33981   0.26279   0.00000  Uiso   1.00
C387   C     0.83982   0.36653   0.73721   0.00000  Uiso   1.00
C388   C     0.66019   0.13347   0.26279   0.00000  Uiso   1.00
C389   C     0.63347   0.33981   0.73721   0.00000  Uiso   1.00
C390   C     0.86653   0.16019   0.26279   0.00000  Uiso   1.00
C391   C     0.66018   0.13347   0.73721   0.00000  Uiso   1.00
C392   C     0.83981   0.36653   0.26279   0.00000  Uiso   1.00
C393   C     0.86653   0.33982   0.26279   0.00000  Uiso   1.00
C394   C     0.97802   0.27527   0.54170   0.00000  Uiso   1.00
C395   C     0.63347   0.16019   0.73721   0.00000  Uiso   1.00
C396   C     0.83982   0.13347   0.26279   0.00000  Uiso   1.00
C397   C     0.66019   0.36653   0.73721   0.00000  Uiso   1.00
C398   C     0.63347   0.16018   0.26279   0.00000  Uiso   1.00
C399   C     0.86653   0.33981   0.73721   0.00000  Uiso   1.00
C400   C     0.66018   0.36653   0.26279   0.00000  Uiso   1.00
C401   C     0.83981   0.13347   0.73721   0.00000  Uiso   1.00
C402   C     0.59812   0.34812   0.25000   0.00000  Uiso   1.00
C403   C     0.90188   0.15188   0.75000   0.00000  Uiso   1.00
C404   C     0.65188   0.09812   0.25000   0.00000  Uiso   1.00
F405   F     0.60747   0.44435   0.22556   0.00000  Uiso   1.00
F406   F     0.89253   0.44435   0.22556   0.00000  Uiso   1.00
F407   F     0.55565   0.39253   0.77444   0.00000  Uiso   1.00
F408   F     0.94435   0.10748   0.22556   0.00000  Uiso   1.00
F409   F     0.89253   0.44435   0.77444   0.00000  Uiso   1.00
F410   F     0.60748   0.05565   0.22556   0.00000  Uiso   1.00
F411   F     0.94435   0.10747   0.77444   0.00000  Uiso   1.00
F412   F     0.55565   0.39252   0.22556   0.00000  Uiso   1.00
F413   F     0.85747   0.19435   0.72556   0.00000  Uiso   1.00
F414   F     0.64253   0.30565   0.27444   0.00000  Uiso   1.00
F415   F     0.80565   0.35747   0.72556   0.00000  Uiso   1.00
F416   F     0.89253   0.05565   0.77444   0.00000  Uiso   1.00
F417   F     0.69435   0.14253   0.27444   0.00000  Uiso   1.00
F418   F     0.64253   0.30565   0.72556   0.00000  Uiso   1.00
F419   F     0.85748   0.19435   0.27445   0.00000  Uiso   1.00
F420   F     0.69435   0.14253   0.72556   0.00000  Uiso   1.00
F421   F     0.80565   0.35748   0.27444   0.00000  Uiso   1.00
F422   F     0.85747   0.30565   0.27444   0.00000  Uiso   1.00
F423   F     0.64253   0.19435   0.72556   0.00000  Uiso   1.00
F424   F     0.80565   0.14253   0.27444   0.00000  Uiso   1.00
F425   F     0.69435   0.35748   0.72556   0.00000  Uiso   1.00
F426   F     0.64253   0.19435   0.27444   0.00000  Uiso   1.00
F427   F     0.55565   0.10747   0.22556   0.00000  Uiso   1.00
F428   F     0.85748   0.30565   0.72556   0.00000  Uiso   1.00
F429   F     0.69435   0.35747   0.27444   0.00000  Uiso   1.00
F430   F     0.80565   0.14253   0.72556   0.00000  Uiso   1.00
F431   F     0.94435   0.39253   0.77444   0.00000  Uiso   1.00
F432   F     0.89253   0.05565   0.22556   0.00000  Uiso   1.00
F433   F     0.60748   0.44435   0.77444   0.00000  Uiso   1.00
F434   F     0.94435   0.39253   0.22556   0.00000  Uiso   1.00
F435   F     0.55565   0.10748   0.77444   0.00000  Uiso   1.00
F436   F     0.60747   0.05565   0.77444   0.00000  Uiso   1.00
H437   H     0.70478   0.04592   0.99533   0.00000  Uiso   1.00
H438   H     0.54522   0.29592   0.50467   0.00000  Uiso   1.00
H439   H     0.70408   0.45478   0.49533   0.00000  Uiso   1.00
H440   H     0.70408   0.04522   0.50467   0.00000  Uiso   1.00
H441   H     0.54522   0.20408   0.49533   0.00000  Uiso   1.00
H442   H     0.95478   0.20408   0.50467   0.00000  Uiso   1.00
H443   H     0.79592   0.04523   0.49533   0.00000  Uiso   1.00
H444   H     0.79592   0.45478   0.50467   0.00000  Uiso   1.00
H445   H     0.71960   0.05800   0.12622   0.00000  Uiso   1.00
H446   H     0.78040   0.05800   0.87379   0.00000  Uiso   1.00
H447   H     0.94200   0.21960   0.12622   0.00000  Uiso   1.00
H448   H     0.79523   0.04592   0.00467   0.00000  Uiso   1.00
H449   H     0.94200   0.28040   0.87379   0.00000  Uiso   1.00
H450   H     0.78040   0.44200   0.12622   0.00000  Uiso   1.00
H451   H     0.71960   0.44200   0.87379   0.00000  Uiso   1.00
H452   H     0.55800   0.28040   0.12622   0.00000  Uiso   1.00
H453   H     0.55800   0.21960   0.87379   0.00000  Uiso   1.00
H454   H     0.96960   0.30800   0.62622   0.00000  Uiso   1.00
H455   H     0.53040   0.30800   0.37379   0.00000  Uiso   1.00
H456   H     0.69200   0.46960   0.62622   0.00000  Uiso   1.00
H457   H     0.69200   0.03040   0.37379   0.00000  Uiso   1.00
H458   H     0.53040   0.19200   0.62622   0.00000  Uiso   1.00
H459   H     0.95408   0.20478   0.99533   0.00000  Uiso   1.00
H460   H     0.96960   0.19200   0.37379   0.00000  Uiso   1.00
H461   H     0.80800   0.03040   0.62622   0.00000  Uiso   1.00
H462   H     0.80800   0.46960   0.37379   0.00000  Uiso   1.00
H463   H     0.95408   0.29523   0.00467   0.00000  Uiso   1.00
H464   H     0.79522   0.45408   0.99533   0.00000  Uiso   1.00
H465   H     0.70478   0.45408   0.00467   0.00000  Uiso   1.00
H466   H     0.54592   0.29522   0.99533   0.00000  Uiso   1.00
H467   H     0.54592   0.20478   0.00467   0.00000  Uiso   1.00
H468   H     0.95478   0.29592   0.49533   0.00000  Uiso   1.00
O469   O     0.75000   0.00000   0.25000   0.00000  Uiso   1.00
O470   O     0.75000   0.46964   0.66317   0.00000  Uiso   1.00
O471   O     0.96964   0.25000   0.33683   0.00000  Uiso   1.00
O472   O     0.53036   0.25000   0.66317   0.00000  Uiso   1.00
O473   O     0.50000   0.21964   0.83683   0.00000  Uiso   1.00
O474   O     0.50000   0.28036   0.16317   0.00000  Uiso   1.00
O475   O     0.78036   0.00000   0.83683   0.00000  Uiso   1.00
O476   O     0.71964   0.00000   0.16317   0.00000  Uiso   1.00
O477   O     0.50000   0.28036   0.83683   0.00000  Uiso   1.00
O478   O     0.50000   0.21964   0.16317   0.00000  Uiso   1.00
O479   O     0.71964   0.00000   0.83683   0.00000  Uiso   1.00
O480   O     0.75000   0.00000   0.75000   0.00000  Uiso   1.00
O481   O     0.78036   0.00000   0.16317   0.00000  Uiso   1.00
O482   O     0.70726   0.07307   0.27282   0.00000  Uiso   1.00
O483   O     0.79275   0.42693   0.72718   0.00000  Uiso   1.00
O484   O     0.92693   0.20726   0.27282   0.00000  Uiso   1.00
O485   O     0.57307   0.29274   0.72718   0.00000  Uiso   1.00
O486   O     0.79275   0.42693   0.27282   0.00000  Uiso   1.00
O487   O     0.70726   0.07307   0.72718   0.00000  Uiso   1.00
O488   O     0.57307   0.29274   0.27282   0.00000  Uiso   1.00
O489   O     0.92693   0.20726   0.72718   0.00000  Uiso   1.00
O490   O     0.70726   0.42693   0.72718   0.00000  Uiso   1.00
O491   O     0.50000   0.25000   0.25000   0.00000  Uiso   1.00
O492   O     0.79275   0.07307   0.27282   0.00000  Uiso   1.00
O493   O     0.92693   0.29275   0.72718   0.00000  Uiso   1.00
O494   O     0.57307   0.20725   0.27282   0.00000  Uiso   1.00
O495   O     0.79275   0.07307   0.72718   0.00000  Uiso   1.00
O496   O     0.70726   0.42693   0.27282   0.00000  Uiso   1.00
O497   O     0.57307   0.20725   0.72718   0.00000  Uiso   1.00
O498   O     0.92693   0.29275   0.27282   0.00000  Uiso   1.00
O499   O     0.95726   0.32307   0.77282   0.00000  Uiso   1.00
O500   O     0.54275   0.17693   0.22718   0.00000  Uiso   1.00
O501   O     0.67693   0.45725   0.77282   0.00000  Uiso   1.00
O502   O     0.50000   0.25000   0.75000   0.00000  Uiso   1.00
O503   O     0.82307   0.04275   0.22718   0.00000  Uiso   1.00
O504   O     0.54275   0.17693   0.77282   0.00000  Uiso   1.00
O505   O     0.95726   0.32307   0.22718   0.00000  Uiso   1.00
O506   O     0.82307   0.04275   0.77282   0.00000  Uiso   1.00
O507   O     0.67693   0.45725   0.22718   0.00000  Uiso   1.00
O508   O     0.95726   0.17693   0.22718   0.00000  Uiso   1.00
O509   O     0.54275   0.32307   0.77282   0.00000  Uiso   1.00
O510   O     0.67693   0.04275   0.22718   0.00000  Uiso   1.00
O511   O     0.82307   0.45726   0.77282   0.00000  Uiso   1.00
O512   O     0.54275   0.32307   0.22718   0.00000  Uiso   1.00
O513   O     0.75000   0.46964   0.33683   0.00000  Uiso   1.00
O514   O     0.95726   0.17693   0.77282   0.00000  Uiso   1.00
O515   O     0.82307   0.45726   0.22718   0.00000  Uiso   1.00
O516   O     0.67693   0.04275   0.77282   0.00000  Uiso   1.00
O517   O     0.70581   0.05052   0.02351   0.00000  Uiso   1.00
O518   O     0.79419   0.05052   0.97649   0.00000  Uiso   1.00
O519   O     0.94948   0.20581   0.02351   0.00000  Uiso   1.00
O520   O     0.94948   0.29419   0.97649   0.00000  Uiso   1.00
O521   O     0.79419   0.44948   0.02351   0.00000  Uiso   1.00
O522   O     0.70581   0.44948   0.97649   0.00000  Uiso   1.00
O523   O     0.55052   0.29419   0.02351   0.00000  Uiso   1.00
O524   O     0.75000   0.03036   0.66317   0.00000  Uiso   1.00
O525   O     0.55052   0.20581   0.97649   0.00000  Uiso   1.00
O526   O     0.95581   0.30052   0.52351   0.00000  Uiso   1.00
O527   O     0.54419   0.30052   0.47649   0.00000  Uiso   1.00
O528   O     0.69948   0.45581   0.52351   0.00000  Uiso   1.00
O529   O     0.69948   0.04419   0.47649   0.00000  Uiso   1.00
O530   O     0.54419   0.19948   0.52351   0.00000  Uiso   1.00
O531   O     0.95581   0.19948   0.47649   0.00000  Uiso   1.00
O532   O     0.80052   0.04419   0.52351   0.00000  Uiso   1.00
O533   O     0.80052   0.45581   0.47649   0.00000  Uiso   1.00
O534   O     0.70920   0.05313   0.10030   0.00000  Uiso   1.00
O535   O     0.53036   0.25000   0.33683   0.00000  Uiso   1.00
O536   O     0.79080   0.05313   0.89970   0.00000  Uiso   1.00
O537   O     0.94687   0.20920   0.10030   0.00000  Uiso   1.00
O538   O     0.94687   0.29080   0.89970   0.00000  Uiso   1.00
O539   O     0.79080   0.44687   0.10030   0.00000  Uiso   1.00
O540   O     0.70920   0.44687   0.89970   0.00000  Uiso   1.00
O541   O     0.55313   0.29080   0.10030   0.00000  Uiso   1.00
O542   O     0.55313   0.20920   0.89970   0.00000  Uiso   1.00
O543   O     0.95920   0.30313   0.60030   0.00000  Uiso   1.00
O544   O     0.54080   0.30313   0.39970   0.00000  Uiso   1.00
O545   O     0.69687   0.45920   0.60030   0.00000  Uiso   1.00
O546   O     0.96964   0.25000   0.66317   0.00000  Uiso   1.00
O547   O     0.69687   0.04080   0.39970   0.00000  Uiso   1.00
O548   O     0.54080   0.19687   0.60030   0.00000  Uiso   1.00
O549   O     0.95920   0.19687   0.39970   0.00000  Uiso   1.00
O550   O     0.80313   0.04080   0.60030   0.00000  Uiso   1.00
O551   O     0.80313   0.45920   0.39970   0.00000  Uiso   1.00
O552   O     0.75000   0.03036   0.33683   0.00000  Uiso   1.00
Zn553  Zn    0.70660   0.00000   0.21760   0.00000  Uiso   1.00
Zn554  Zn    0.54340   0.25000   0.28240   0.00000  Uiso   1.00
Zn555  Zn    0.75000   0.45660   0.71760   0.00000  Uiso   1.00
Zn556  Zn    0.75000   0.04340   0.28240   0.00000  Uiso   1.00
Zn557  Zn    0.54340   0.25000   0.71760   0.00000  Uiso   1.00
Zn558  Zn    0.95660   0.25000   0.28240   0.00000  Uiso   1.00
Zn559  Zn    0.75000   0.04340   0.71760   0.00000  Uiso   1.00
Zn560  Zn    0.75000   0.45660   0.28240   0.00000  Uiso   1.00
Zn561  Zn    0.79340   0.00000   0.78240   0.00000  Uiso   1.00
Zn562  Zn    0.50000   0.20660   0.21760   0.00000  Uiso   1.00
Zn563  Zn    0.50000   0.29340   0.78240   0.00000  Uiso   1.00
Zn564  Zn    0.79340   0.00000   0.21760   0.00000  Uiso   1.00
Zn565  Zn    0.70660   0.00000   0.78240   0.00000  Uiso   1.00
Zn566  Zn    0.50000   0.29340   0.21760   0.00000  Uiso   1.00
Zn567  Zn    0.50000   0.20660   0.78240   0.00000  Uiso   1.00
Zn568  Zn    0.95660   0.25000   0.71760   0.00000  Uiso   1.00
C569   C     0.22802   0.52527   0.04170   0.00000  Uiso   1.00
C570   C     0.02198   0.77527   0.45830   0.00000  Uiso   1.00
C571   C     0.34812   0.90188   0.75000   0.00000  Uiso   1.00
C572   C     0.40188   0.65188   0.25000   0.00000  Uiso   1.00
C573   C     0.09812   0.84812   0.75000   0.00000  Uiso   1.00
C574   C     0.34812   0.90188   0.25000   0.00000  Uiso   1.00
C575   C     0.15188   0.59812   0.75000   0.00000  Uiso   1.00
C576   C     0.09812   0.65188   0.75000   0.00000  Uiso   1.00
C577   C     0.40188   0.84812   0.25000   0.00000  Uiso   1.00
C578   C     0.15188   0.90188   0.75000   0.00000  Uiso   1.00
C579   C     0.34812   0.59812   0.25000   0.00000  Uiso   1.00
C580   C     0.40188   0.84812   0.75000   0.00000  Uiso   1.00
C581   C     0.22473   0.97802   0.54170   0.00000  Uiso   1.00
C582   C     0.09812   0.65188   0.25000   0.00000  Uiso   1.00
C583   C     0.34812   0.59812   0.75000   0.00000  Uiso   1.00
C584   C     0.15188   0.90188   0.25000   0.00000  Uiso   1.00
C585   C     0.25000   0.50000   0.10254   0.00000  Uiso   1.00
C586   C     0.25000   0.50000   0.89746   0.00000  Uiso   1.00
C587   C     0.00000   0.75000   0.10254   0.00000  Uiso   1.00
C588   C     0.00000   0.75000   0.89746   0.00000  Uiso   1.00
C589   C     0.00000   0.75000   0.60254   0.00000  Uiso   1.00
C590   C     0.00000   0.75000   0.39746   0.00000  Uiso   1.00
C591   C     0.25000   0.50000   0.60254   0.00000  Uiso   1.00
C592   C     0.22473   0.52198   0.45830   0.00000  Uiso   1.00
C593   C     0.25000   0.50000   0.39746   0.00000  Uiso   1.00
C594   C     0.02198   0.72473   0.54170   0.00000  Uiso   1.00
C595   C     0.47802   0.72473   0.45830   0.00000  Uiso   1.00
C596   C     0.27527   0.52198   0.54170   0.00000  Uiso   1.00
C597   C     0.27527   0.97802   0.45830   0.00000  Uiso   1.00
C598   C     0.22906   0.52608   0.08207   0.00000  Uiso   1.00
C599   C     0.27094   0.52608   0.91793   0.00000  Uiso   1.00
C600   C     0.47392   0.72906   0.08207   0.00000  Uiso   1.00
C601   C     0.27198   0.52527   0.95830   0.00000  Uiso   1.00
C602   C     0.47392   0.77094   0.91793   0.00000  Uiso   1.00
C603   C     0.27094   0.97392   0.08207   0.00000  Uiso   1.00
C604   C     0.22906   0.97392   0.91793   0.00000  Uiso   1.00
C605   C     0.02608   0.77094   0.08207   0.00000  Uiso   1.00
C606   C     0.02608   0.72906   0.91793   0.00000  Uiso   1.00
C607   C     0.47906   0.77608   0.58207   0.00000  Uiso   1.00
C608   C     0.02094   0.77608   0.41793   0.00000  Uiso   1.00
C609   C     0.22392   0.97906   0.58207   0.00000  Uiso   1.00
C610   C     0.22392   0.52094   0.41793   0.00000  Uiso   1.00
C611   C     0.02094   0.72392   0.58207   0.00000  Uiso   1.00
C612   C     0.47473   0.72802   0.04170   0.00000  Uiso   1.00
C613   C     0.47906   0.72392   0.41793   0.00000  Uiso   1.00
C614   C     0.27608   0.52094   0.58207   0.00000  Uiso   1.00
C615   C     0.27608   0.97906   0.41793   0.00000  Uiso   1.00
C616   C     0.25000   0.50000   0.02130   0.00000  Uiso   1.00
C617   C     0.25000   0.50000   0.97870   0.00000  Uiso   1.00
C618   C     0.00000   0.75000   0.02130   0.00000  Uiso   1.00
C619   C     0.00000   0.75000   0.97870   0.00000  Uiso   1.00
C620   C     0.00000   0.75000   0.52130   0.00000  Uiso   1.00
C621   C     0.00000   0.75000   0.47870   0.00000  Uiso   1.00
C622   C     0.25000   0.50000   0.52130   0.00000  Uiso   1.00
C623   C     0.47473   0.77198   0.95830   0.00000  Uiso   1.00
C624   C     0.25000   0.50000   0.47870   0.00000  Uiso   1.00
C625   C     0.25000   0.50000   0.35509   0.00000  Uiso   1.00
C626   C     0.25000   0.50000   0.64491   0.00000  Uiso   1.00
C627   C     0.00000   0.75000   0.35509   0.00000  Uiso   1.00
C628   C     0.00000   0.75000   0.64491   0.00000  Uiso   1.00
C629   C     0.00000   0.75000   0.85509   0.00000  Uiso   1.00
C630   C     0.00000   0.75000   0.14491   0.00000  Uiso   1.00
C631   C     0.25000   0.50000   0.85509   0.00000  Uiso   1.00
C632   C     0.25000   0.50000   0.14491   0.00000  Uiso   1.00
C633   C     0.17994   0.57006   0.25000   0.00000  Uiso   1.00
C634   C     0.27198   0.97473   0.04170   0.00000  Uiso   1.00
C635   C     0.32006   0.92994   0.75000   0.00000  Uiso   1.00
C636   C     0.42994   0.67994   0.25000   0.00000  Uiso   1.00
C637   C     0.07006   0.82006   0.75000   0.00000  Uiso   1.00
C638   C     0.32006   0.92994   0.25000   0.00000  Uiso   1.00
C639   C     0.17994   0.57006   0.75000   0.00000  Uiso   1.00
C640   C     0.07006   0.82006   0.25000   0.00000  Uiso   1.00
C641   C     0.42994   0.67994   0.75000   0.00000  Uiso   1.00
C642   C     0.17994   0.92994   0.75000   0.00000  Uiso   1.00
C643   C     0.32006   0.57006   0.25000   0.00000  Uiso   1.00
C644   C     0.42994   0.82006   0.75000   0.00000  Uiso   1.00
C645   C     0.22802   0.97473   0.95830   0.00000  Uiso   1.00
C646   C     0.07006   0.67994   0.25000   0.00000  Uiso   1.00
C647   C     0.32006   0.57006   0.75000   0.00000  Uiso   1.00
C648   C     0.17994   0.92994   0.25000   0.00000  Uiso   1.00
C649   C     0.07006   0.67994   0.75000   0.00000  Uiso   1.00
C650   C     0.42994   0.82006   0.25000   0.00000  Uiso   1.00
C651   C     0.11653   0.91018   0.23721   0.00000  Uiso   1.00
C652   C     0.38347   0.58981   0.76279   0.00000  Uiso   1.00
C653   C     0.08982   0.61653   0.23721   0.00000  Uiso   1.00
C654   C     0.41019   0.88347   0.76279   0.00000  Uiso   1.00
C655   C     0.38347   0.58982   0.23721   0.00000  Uiso   1.00
C656   C     0.02527   0.77198   0.04170   0.00000  Uiso   1.00
C657   C     0.11653   0.91019   0.76279   0.00000  Uiso   1.00
C658   C     0.41018   0.88347   0.23721   0.00000  Uiso   1.00
C659   C     0.08981   0.61653   0.76279   0.00000  Uiso   1.00
C660   C     0.11653   0.58982   0.76279   0.00000  Uiso   1.00
C661   C     0.38347   0.91019   0.23721   0.00000  Uiso   1.00
C662   C     0.08982   0.88347   0.76279   0.00000  Uiso   1.00
C663   C     0.41019   0.61653   0.23721   0.00000  Uiso   1.00
C664   C     0.38347   0.91018   0.76279   0.00000  Uiso   1.00
C665   C     0.11653   0.58981   0.23721   0.00000  Uiso   1.00
C666   C     0.41018   0.61653   0.76279   0.00000  Uiso   1.00
C667   C     0.02527   0.72802   0.95830   0.00000  Uiso   1.00
C668   C     0.08981   0.88347   0.23721   0.00000  Uiso   1.00
C669   C     0.36653   0.66018   0.73721   0.00000  Uiso   1.00
C670   C     0.13347   0.83981   0.26279   0.00000  Uiso   1.00
C671   C     0.33982   0.86653   0.73721   0.00000  Uiso   1.00
C672   C     0.16019   0.63347   0.26279   0.00000  Uiso   1.00
C673   C     0.13347   0.83981   0.73721   0.00000  Uiso   1.00
C674   C     0.36653   0.66019   0.26279   0.00000  Uiso   1.00
C675   C     0.16018   0.63347   0.73721   0.00000  Uiso   1.00
C676   C     0.33981   0.86653   0.26279   0.00000  Uiso   1.00
C677   C     0.36653   0.83982   0.26279   0.00000  Uiso   1.00
C678   C     0.47802   0.77527   0.54170   0.00000  Uiso   1.00
C679   C     0.13347   0.66019   0.73721   0.00000  Uiso   1.00
C680   C     0.33982   0.63347   0.26279   0.00000  Uiso   1.00
C681   C     0.16019   0.86653   0.73721   0.00000  Uiso   1.00
C682   C     0.13347   0.66018   0.26279   0.00000  Uiso   1.00
C683   C     0.36653   0.83981   0.73721   0.00000  Uiso   1.00
C684   C     0.16018   0.86653   0.26279   0.00000  Uiso   1.00
C685   C     0.33981   0.63347   0.73721   0.00000  Uiso   1.00
C686   C     0.09812   0.84812   0.25000   0.00000  Uiso   1.00
C687   C     0.40188   0.65188   0.75000   0.00000  Uiso   1.00
C688   C     0.15188   0.59812   0.25000   0.00000  Uiso   1.00
F689   F     0.10747   0.94435   0.22556   0.00000  Uiso   1.00
F690   F     0.39253   0.94435   0.22556   0.00000  Uiso   1.00
F691   F     0.05565   0.89253   0.77444   0.00000  Uiso   1.00
F692   F     0.44435   0.60748   0.22556   0.00000  Uiso   1.00
F693   F     0.39253   0.94435   0.77444   0.00000  Uiso   1.00
F694   F     0.10748   0.55565   0.22556   0.00000  Uiso   1.00
F695   F     0.44435   0.60747   0.77444   0.00000  Uiso   1.00
F696   F     0.05565   0.89252   0.22556   0.00000  Uiso   1.00
F697   F     0.35747   0.69435   0.72556   0.00000  Uiso   1.00
F698   F     0.14253   0.80565   0.27444   0.00000  Uiso   1.00
F699   F     0.30565   0.85747   0.72556   0.00000  Uiso   1.00
F700   F     0.39253   0.55565   0.77444   0.00000  Uiso   1.00
F701   F     0.19435   0.64253   0.27444   0.00000  Uiso   1.00
F702   F     0.14253   0.80565   0.72556   0.00000  Uiso   1.00
F703   F     0.35748   0.69435   0.27445   0.00000  Uiso   1.00
F704   F     0.19435   0.64253   0.72556   0.00000  Uiso   1.00
F705   F     0.30565   0.85748   0.27444   0.00000  Uiso   1.00
F706   F     0.35747   0.80565   0.27444   0.00000  Uiso   1.00
F707   F     0.14253   0.69435   0.72556   0.00000  Uiso   1.00
F708   F     0.30565   0.64253   0.27444   0.00000  Uiso   1.00
F709   F     0.19435   0.85748   0.72556   0.00000  Uiso   1.00
F710   F     0.14253   0.69435   0.27444   0.00000  Uiso   1.00
F711   F     0.05565   0.60747   0.22556   0.00000  Uiso   1.00
F712   F     0.35748   0.80565   0.72556   0.00000  Uiso   1.00
F713   F     0.19435   0.85747   0.27444   0.00000  Uiso   1.00
F714   F     0.30565   0.64253   0.72556   0.00000  Uiso   1.00
F715   F     0.44435   0.89253   0.77444   0.00000  Uiso   1.00
F716   F     0.39253   0.55565   0.22556   0.00000  Uiso   1.00
F717   F     0.10748   0.94435   0.77444   0.00000  Uiso   1.00
F718   F     0.44435   0.89253   0.22556   0.00000  Uiso   1.00
F719   F     0.05565   0.60748   0.77444   0.00000  Uiso   1.00
F720   F     0.10747   0.55565   0.77444   0.00000  Uiso   1.00
H721   H     0.20478   0.54592   0.99533   0.00000  Uiso   1.00
H722   H     0.04522   0.79592   0.50467   0.00000  Uiso   1.00
H723   H     0.20408   0.95478   0.49533   0.00000  Uiso   1.00
H724   H     0.20408   0.54522   0.50467   0.00000  Uiso   1.00
H725   H     0.04522   0.70408   0.49533   0.00000  Uiso   1.00
H726   H     0.45478   0.70408   0.50467   0.00000  Uiso   1.00
H727   H     0.29592   0.54523   0.49533   0.00000  Uiso   1.00
H728   H     0.29592   0.95478   0.50467   0.00000  Uiso   1.00
H729   H     0.21960   0.55800   0.12622   0.00000  Uiso   1.00
H730   H     0.28040   0.55800   0.87379   0.00000  Uiso   1.00
H731   H     0.44200   0.71960   0.12622   0.00000  Uiso   1.00
H732   H     0.29523   0.54592   0.00467   0.00000  Uiso   1.00
H733   H     0.44200   0.78040   0.87379   0.00000  Uiso   1.00
H734   H     0.28040   0.94200   0.12622   0.00000  Uiso   1.00
H735   H     0.21960   0.94200   0.87379   0.00000  Uiso   1.00
H736   H     0.05800   0.78040   0.12622   0.00000  Uiso   1.00
H737   H     0.05800   0.71960   0.87379   0.00000  Uiso   1.00
H738   H     0.46960   0.80800   0.62622   0.00000  Uiso   1.00
H739   H     0.03040   0.80800   0.37379   0.00000  Uiso   1.00
H740   H     0.19200   0.96960   0.62622   0.00000  Uiso   1.00
H741   H     0.19200   0.53040   0.37379   0.00000  Uiso   1.00
H742   H     0.03040   0.69200   0.62622   0.00000  Uiso   1.00
H743   H     0.45408   0.70478   0.99533   0.00000  Uiso   1.00
H744   H     0.46960   0.69200   0.37379   0.00000  Uiso   1.00
H745   H     0.30800   0.53040   0.62622   0.00000  Uiso   1.00
H746   H     0.30800   0.96960   0.37379   0.00000  Uiso   1.00
H747   H     0.45408   0.79523   0.00467   0.00000  Uiso   1.00
H748   H     0.29522   0.95408   0.99533   0.00000  Uiso   1.00
H749   H     0.20478   0.95408   0.00467   0.00000  Uiso   1.00
H750   H     0.04592   0.79522   0.99533   0.00000  Uiso   1.00
H751   H     0.04592   0.70478   0.00467   0.00000  Uiso   1.00
H752   H     0.45478   0.79592   0.49533   0.00000  Uiso   1.00
O753   O     0.25000   0.50000   0.25000   0.00000  Uiso   1.00
O754   O     0.25000   0.96964   0.66317   0.00000  Uiso   1.00
O755   O     0.46964   0.75000   0.33683   0.00000  Uiso   1.00
O756   O     0.03036   0.75000   0.66317   0.00000  Uiso   1.00
O757   O     0.00000   0.71964   0.83683   0.00000  Uiso   1.00
O758   O     0.00000   0.78036   0.16317   0.00000  Uiso   1.00
O759   O     0.28036   0.50000   0.83683   0.00000  Uiso   1.00
O760   O     0.21964   0.50000   0.16317   0.00000  Uiso   1.00
O761   O     0.00000   0.78036   0.83683   0.00000  Uiso   1.00
O762   O     0.00000   0.71964   0.16317   0.00000  Uiso   1.00
O763   O     0.21964   0.50000   0.83683   0.00000  Uiso   1.00
O764   O     0.25000   0.50000   0.75000   0.00000  Uiso   1.00
O765   O     0.28036   0.50000   0.16317   0.00000  Uiso   1.00
O766   O     0.20726   0.57307   0.27282   0.00000  Uiso   1.00
O767   O     0.29275   0.92693   0.72718   0.00000  Uiso   1.00
O768   O     0.42693   0.70726   0.27282   0.00000  Uiso   1.00
O769   O     0.07307   0.79274   0.72718   0.00000  Uiso   1.00
O770   O     0.29275   0.92693   0.27282   0.00000  Uiso   1.00
O771   O     0.20726   0.57307   0.72718   0.00000  Uiso   1.00
O772   O     0.07307   0.79274   0.27282   0.00000  Uiso   1.00
O773   O     0.42693   0.70726   0.72718   0.00000  Uiso   1.00
O774   O     0.20726   0.92693   0.72718   0.00000  Uiso   1.00
O775   O     0.00000   0.75000   0.25000   0.00000  Uiso   1.00
O776   O     0.29275   0.57307   0.27282   0.00000  Uiso   1.00
O777   O     0.42693   0.79275   0.72718   0.00000  Uiso   1.00
O778   O     0.07307   0.70725   0.27282   0.00000  Uiso   1.00
O779   O     0.29275   0.57307   0.72718   0.00000  Uiso   1.00
O780   O     0.20726   0.92693   0.27282   0.00000  Uiso   1.00
O781   O     0.07307   0.70725   0.72718   0.00000  Uiso   1.00
O782   O     0.42693   0.79275   0.27282   0.00000  Uiso   1.00
O783   O     0.45726   0.82307   0.77282   0.00000  Uiso   1.00
O784   O     0.04275   0.67693   0.22718   0.00000  Uiso   1.00
O785   O     0.17693   0.95725   0.77282   0.00000  Uiso   1.00
O786   O     0.00000   0.75000   0.75000   0.00000  Uiso   1.00
O787   O     0.32307   0.54275   0.22718   0.00000  Uiso   1.00
O788   O     0.04275   0.67693   0.77282   0.00000  Uiso   1.00
O789   O     0.45726   0.82307   0.22718   0.00000  Uiso   1.00
O790   O     0.32307   0.54275   0.77282   0.00000  Uiso   1.00
O791   O     0.17693   0.95725   0.22718   0.00000  Uiso   1.00
O792   O     0.45726   0.67693   0.22718   0.00000  Uiso   1.00
O793   O     0.04275   0.82307   0.77282   0.00000  Uiso   1.00
O794   O     0.17693   0.54275   0.22718   0.00000  Uiso   1.00
O795   O     0.32307   0.95726   0.77282   0.00000  Uiso   1.00
O796   O     0.04275   0.82307   0.22718   0.00000  Uiso   1.00
O797   O     0.25000   0.96964   0.33683   0.00000  Uiso   1.00
O798   O     0.45726   0.67693   0.77282   0.00000  Uiso   1.00
O799   O     0.32307   0.95726   0.22718   0.00000  Uiso   1.00
O800   O     0.17693   0.54275   0.77282   0.00000  Uiso   1.00
O801   O     0.20581   0.55052   0.02351   0.00000  Uiso   1.00
O802   O     0.29419   0.55052   0.97649   0.00000  Uiso   1.00
O803   O     0.44948   0.70581   0.02351   0.00000  Uiso   1.00
O804   O     0.44948   0.79419   0.97649   0.00000  Uiso   1.00
O805   O     0.29419   0.94948   0.02351   0.00000  Uiso   1.00
O806   O     0.20581   0.94948   0.97649   0.00000  Uiso   1.00
O807   O     0.05052   0.79419   0.02351   0.00000  Uiso   1.00
O808   O     0.25000   0.53036   0.66317   0.00000  Uiso   1.00
O809   O     0.05052   0.70581   0.97649   0.00000  Uiso   1.00
O810   O     0.45581   0.80052   0.52351   0.00000  Uiso   1.00
O811   O     0.04419   0.80052   0.47649   0.00000  Uiso   1.00
O812   O     0.19948   0.95581   0.52351   0.00000  Uiso   1.00
O813   O     0.19948   0.54419   0.47649   0.00000  Uiso   1.00
O814   O     0.04419   0.69948   0.52351   0.00000  Uiso   1.00
O815   O     0.45581   0.69948   0.47649   0.00000  Uiso   1.00
O816   O     0.30052   0.54419   0.52351   0.00000  Uiso   1.00
O817   O     0.30052   0.95581   0.47649   0.00000  Uiso   1.00
O818   O     0.20920   0.55313   0.10030   0.00000  Uiso   1.00
O819   O     0.03036   0.75000   0.33683   0.00000  Uiso   1.00
O820   O     0.29080   0.55313   0.89970   0.00000  Uiso   1.00
O821   O     0.44687   0.70920   0.10030   0.00000  Uiso   1.00
O822   O     0.44687   0.79080   0.89970   0.00000  Uiso   1.00
O823   O     0.29080   0.94687   0.10030   0.00000  Uiso   1.00
O824   O     0.20920   0.94687   0.89970   0.00000  Uiso   1.00
O825   O     0.05313   0.79080   0.10030   0.00000  Uiso   1.00
O826   O     0.05313   0.70920   0.89970   0.00000  Uiso   1.00
O827   O     0.45920   0.80313   0.60030   0.00000  Uiso   1.00
O828   O     0.04080   0.80313   0.39970   0.00000  Uiso   1.00
O829   O     0.19687   0.95920   0.60030   0.00000  Uiso   1.00
O830   O     0.46964   0.75000   0.66317   0.00000  Uiso   1.00
O831   O     0.19687   0.54080   0.39970   0.00000  Uiso   1.00
O832   O     0.04080   0.69687   0.60030   0.00000  Uiso   1.00
O833   O     0.45920   0.69687   0.39970   0.00000  Uiso   1.00
O834   O     0.30313   0.54080   0.60030   0.00000  Uiso   1.00
O835   O     0.30313   0.95920   0.39970   0.00000  Uiso   1.00
O836   O     0.25000   0.53036   0.33683   0.00000  Uiso   1.00
Zn837  Zn    0.20660   0.50000   0.21760   0.00000  Uiso   1.00
Zn838  Zn    0.04340   0.75000   0.28240   0.00000  Uiso   1.00
Zn839  Zn    0.25000   0.95660   0.71760   0.00000  Uiso   1.00
Zn840  Zn    0.25000   0.54340   0.28240   0.00000  Uiso   1.00
Zn841  Zn    0.04340   0.75000   0.71760   0.00000  Uiso   1.00
Zn842  Zn    0.45660   0.75000   0.28240   0.00000  Uiso   1.00
Zn843  Zn    0.25000   0.54340   0.71760   0.00000  Uiso   1.00
Zn844  Zn    0.25000   0.95660   0.28240   0.00000  Uiso   1.00
Zn845  Zn    0.29340   0.50000   0.78240   0.00000  Uiso   1.00
Zn846  Zn    0.00000   0.70660   0.21760   0.00000  Uiso   1.00
Zn847  Zn    0.00000   0.79340   0.78240   0.00000  Uiso   1.00
Zn848  Zn    0.29340   0.50000   0.21760   0.00000  Uiso   1.00
Zn849  Zn    0.20660   0.50000   0.78240   0.00000  Uiso   1.00
Zn850  Zn    0.00000   0.79340   0.21760   0.00000  Uiso   1.00
Zn851  Zn    0.00000   0.70660   0.78240   0.00000  Uiso   1.00
Zn852  Zn    0.45660   0.75000   0.71760   0.00000  Uiso   1.00
C853   C     0.72802   0.52527   0.04170   0.00000  Uiso   1.00
C854   C     0.52198   0.77527   0.45830   0.00000  Uiso   1.00
C855   C     0.84812   0.90188   0.75000   0.00000  Uiso   1.00
C856   C     0.90188   0.65188   0.25000   0.00000  Uiso   1.00
C857   C     0.59812   0.84812   0.75000   0.00000  Uiso   1.00
C858   C     0.84812   0.90188   0.25000   0.00000  Uiso   1.00
C859   C     0.65188   0.59812   0.75000   0.00000  Uiso   1.00
C860   C     0.59812   0.65188   0.75000   0.00000  Uiso   1.00
C861   C     0.90188   0.84812   0.25000   0.00000  Uiso   1.00
C862   C     0.65188   0.90188   0.75000   0.00000  Uiso   1.00
C863   C     0.84812   0.59812   0.25000   0.00000  Uiso   1.00
C864   C     0.90188   0.84812   0.75000   0.00000  Uiso   1.00
C865   C     0.72473   0.97802   0.54170   0.00000  Uiso   1.00
C866   C     0.59812   0.65188   0.25000   0.00000  Uiso   1.00
C867   C     0.84812   0.59812   0.75000   0.00000  Uiso   1.00
C868   C     0.65188   0.90188   0.25000   0.00000  Uiso   1.00
C869   C     0.75000   0.50000   0.10254   0.00000  Uiso   1.00
C870   C     0.75000   0.50000   0.89746   0.00000  Uiso   1.00
C871   C     0.50000   0.75000   0.10254   0.00000  Uiso   1.00
C872   C     0.50000   0.75000   0.89746   0.00000  Uiso   1.00
C873   C     0.50000   0.75000   0.60254   0.00000  Uiso   1.00
C874   C     0.50000   0.75000   0.39746   0.00000  Uiso   1.00
C875   C     0.75000   0.50000   0.60254   0.00000  Uiso   1.00
C876   C     0.72473   0.52198   0.45830   0.00000  Uiso   1.00
C877   C     0.75000   0.50000   0.39746   0.00000  Uiso   1.00
C878   C     0.52198   0.72473   0.54170   0.00000  Uiso   1.00
C879   C     0.97802   0.72473   0.45830   0.00000  Uiso   1.00
C880   C     0.77527   0.52198   0.54170   0.00000  Uiso   1.00
C881   C     0.77527   0.97802   0.45830   0.00000  Uiso   1.00
C882   C     0.72906   0.52608   0.08207   0.00000  Uiso   1.00
C883   C     0.77094   0.52608   0.91793   0.00000  Uiso   1.00
C884   C     0.97392   0.72906   0.08207   0.00000  Uiso   1.00
C885   C     0.77198   0.52527   0.95830   0.00000  Uiso   1.00
C886   C     0.97392   0.77094   0.91793   0.00000  Uiso   1.00
C887   C     0.77094   0.97392   0.08207   0.00000  Uiso   1.00
C888   C     0.72906   0.97392   0.91793   0.00000  Uiso   1.00
C889   C     0.52608   0.77094   0.08207   0.00000  Uiso   1.00
C890   C     0.52608   0.72906   0.91793   0.00000  Uiso   1.00
C891   C     0.97906   0.77608   0.58207   0.00000  Uiso   1.00
C892   C     0.52094   0.77608   0.41793   0.00000  Uiso   1.00
C893   C     0.72392   0.97906   0.58207   0.00000  Uiso   1.00
C894   C     0.72392   0.52094   0.41793   0.00000  Uiso   1.00
C895   C     0.52094   0.72392   0.58207   0.00000  Uiso   1.00
C896   C     0.97473   0.72802   0.04170   0.00000  Uiso   1.00
C897   C     0.97906   0.72392   0.41793   0.00000  Uiso   1.00
C898   C     0.77608   0.52094   0.58207   0.00000  Uiso   1.00
C899   C     0.77608   0.97906   0.41793   0.00000  Uiso   1.00
C900   C     0.75000   0.50000   0.02130   0.00000  Uiso   1.00
C901   C     0.75000   0.50000   0.97870   0.00000  Uiso   1.00
C902   C     0.50000   0.75000   0.02130   0.00000  Uiso   1.00
C903   C     0.50000   0.75000   0.97870   0.00000  Uiso   1.00
C904   C     0.50000   0.75000   0.52130   0.00000  Uiso   1.00
C905   C     0.50000   0.75000   0.47870   0.00000  Uiso   1.00
C906   C     0.75000   0.50000   0.52130   0.00000  Uiso   1.00
C907   C     0.97473   0.77198   0.95830   0.00000  Uiso   1.00
C908   C     0.75000   0.50000   0.47870   0.00000  Uiso   1.00
C909   C     0.75000   0.50000   0.35509   0.00000  Uiso   1.00
C910   C     0.75000   0.50000   0.64491   0.00000  Uiso   1.00
C911   C     0.50000   0.75000   0.35509   0.00000  Uiso   1.00
C912   C     0.50000   0.75000   0.64491   0.00000  Uiso   1.00
C913   C     0.50000   0.75000   0.85509   0.00000  Uiso   1.00
C914   C     0.50000   0.75000   0.14491   0.00000  Uiso   1.00
C915   C     0.75000   0.50000   0.85509   0.00000  Uiso   1.00
C916   C     0.75000   0.50000   0.14491   0.00000  Uiso   1.00
C917   C     0.67994   0.57006   0.25000   0.00000  Uiso   1.00
C918   C     0.77198   0.97473   0.04170   0.00000  Uiso   1.00
C919   C     0.82006   0.92994   0.75000   0.00000  Uiso   1.00
C920   C     0.92994   0.67994   0.25000   0.00000  Uiso   1.00
C921   C     0.57006   0.82006   0.75000   0.00000  Uiso   1.00
C922   C     0.82006   0.92994   0.25000   0.00000  Uiso   1.00
C923   C     0.67994   0.57006   0.75000   0.00000  Uiso   1.00
C924   C     0.57006   0.82006   0.25000   0.00000  Uiso   1.00
C925   C     0.92994   0.67994   0.75000   0.00000  Uiso   1.00
C926   C     0.67994   0.92994   0.75000   0.00000  Uiso   1.00
C927   C     0.82006   0.57006   0.25000   0.00000  Uiso   1.00
C928   C     0.92994   0.82006   0.75000   0.00000  Uiso   1.00
C929   C     0.72802   0.97473   0.95830   0.00000  Uiso   1.00
C930   C     0.57006   0.67994   0.25000   0.00000  Uiso   1.00
C931   C     0.82006   0.57006   0.75000   0.00000  Uiso   1.00
C932   C     0.67994   0.92994   0.25000   0.00000  Uiso   1.00
C933   C     0.57006   0.67994   0.75000   0.00000  Uiso   1.00
C934   C     0.92994   0.82006   0.25000   0.00000  Uiso   1.00
C935   C     0.61653   0.91018   0.23721   0.00000  Uiso   1.00
C936   C     0.88347   0.58981   0.76279   0.00000  Uiso   1.00
C937   C     0.58982   0.61653   0.23721   0.00000  Uiso   1.00
C938   C     0.91019   0.88347   0.76279   0.00000  Uiso   1.00
C939   C     0.88347   0.58982   0.23721   0.00000  Uiso   1.00
C940   C     0.52527   0.77198   0.04170   0.00000  Uiso   1.00
C941   C     0.61653   0.91019   0.76279   0.00000  Uiso   1.00
C942   C     0.91018   0.88347   0.23721   0.00000  Uiso   1.00
C943   C     0.58981   0.61653   0.76279   0.00000  Uiso   1.00
C944   C     0.61653   0.58982   0.76279   0.00000  Uiso   1.00
C945   C     0.88347   0.91019   0.23721   0.00000  Uiso   1.00
C946   C     0.58982   0.88347   0.76279   0.00000  Uiso   1.00
C947   C     0.91019   0.61653   0.23721   0.00000  Uiso   1.00
C948   C     0.88347   0.91018   0.76279   0.00000  Uiso   1.00
C949   C     0.61653   0.58981   0.23721   0.00000  Uiso   1.00
C950   C     0.91018   0.61653   0.76279   0.00000  Uiso   1.00
C951   C     0.52527   0.72802   0.95830   0.00000  Uiso   1.00
C952   C     0.58981   0.88347   0.23721   0.00000  Uiso   1.00
C953   C     0.86653   0.66018   0.73721   0.00000  Uiso   1.00
C954   C     0.63347   0.83981   0.26279   0.00000  Uiso   1.00
C955   C     0.83982   0.86653   0.73721   0.00000  Uiso   1.00
C956   C     0.66019   0.63347   0.26279   0.00000  Uiso   1.00
C957   C     0.63347   0.83981   0.73721   0.00000  Uiso   1.00
C958   C     0.86653   0.66019   0.26279   0.00000  Uiso   1.00
C959   C     0.66018   0.63347   0.73721   0.00000  Uiso   1.00
C960   C     0.83981   0.86653   0.26279   0.00000  Uiso   1.00
C961   C     0.86653   0.83982   0.26279   0.00000  Uiso   1.00
C962   C     0.97802   0.77527   0.54170   0.00000  Uiso   1.00
C963   C     0.63347   0.66019   0.73721   0.00000  Uiso   1.00
C964   C     0.83982   0.63347   0.26279   0.00000  Uiso   1.00
C965   C     0.66019   0.86653   0.73721   0.00000  Uiso   1.00
C966   C     0.63347   0.66018   0.26279   0.00000  Uiso   1.00
C967   C     0.86653   0.83981   0.73721   0.00000  Uiso   1.00
C968   C     0.66018   0.86653   0.26279   0.00000  Uiso   1.00
C969   C     0.83981   0.63347   0.73721   0.00000  Uiso   1.00
C970   C     0.59812   0.84812   0.25000   0.00000  Uiso   1.00
C971   C     0.90188   0.65188   0.75000   0.00000  Uiso   1.00
C972   C     0.65188   0.59812   0.25000   0.00000  Uiso   1.00
F973   F     0.60747   0.94435   0.22556   0.00000  Uiso   1.00
F974   F     0.89253   0.94435   0.22556   0.00000  Uiso   1.00
F975   F     0.55565   0.89253   0.77444   0.00000  Uiso   1.00
F976   F     0.94435   0.60748   0.22556   0.00000  Uiso   1.00
F977   F     0.89253   0.94435   0.77444   0.00000  Uiso   1.00
F978   F     0.60748   0.55565   0.22556   0.00000  Uiso   1.00
F979   F     0.94435   0.60747   0.77444   0.00000  Uiso   1.00
F980   F     0.55565   0.89252   0.22556   0.00000  Uiso   1.00
F981   F     0.85747   0.69435   0.72556   0.00000  Uiso   1.00
F982   F     0.64253   0.80565   0.27444   0.00000  Uiso   1.00
F983   F     0.80565   0.85747   0.72556   0.00000  Uiso   1.00
F984   F     0.89253   0.55565   0.77444   0.00000  Uiso   1.00
F985   F     0.69435   0.64253   0.27444   0.00000  Uiso   1.00
F986   F     0.64253   0.80565   0.72556   0.00000  Uiso   1.00
F987   F     0.85748   0.69435   0.27445   0.00000  Uiso   1.00
F988   F     0.69435   0.64253   0.72556   0.00000  Uiso   1.00
F989   F     0.80565   0.85748   0.27444   0.00000  Uiso   1.00
F990   F     0.85747   0.80565   0.27444   0.00000  Uiso   1.00
F991   F     0.64253   0.69435   0.72556   0.00000  Uiso   1.00
F992   F     0.80565   0.64253   0.27444   0.00000  Uiso   1.00
F993   F     0.69435   0.85748   0.72556   0.00000  Uiso   1.00
F994   F     0.64253   0.69435   0.27444   0.00000  Uiso   1.00
F995   F     0.55565   0.60747   0.22556   0.00000  Uiso   1.00
F996   F     0.85748   0.80565   0.72556   0.00000  Uiso   1.00
F997   F     0.69435   0.85747   0.27444   0.00000  Uiso   1.00
F998   F     0.80565   0.64253   0.72556   0.00000  Uiso   1.00
F999   F     0.94435   0.89253   0.77444   0.00000  Uiso   1.00
F1000  F     0.89253   0.55565   0.22556   0.00000  Uiso   1.00
F1001  F     0.60748   0.94435   0.77444   0.00000  Uiso   1.00
F1002  F     0.94435   0.89253   0.22556   0.00000  Uiso   1.00
F1003  F     0.55565   0.60748   0.77444   0.00000  Uiso   1.00
F1004  F     0.60747   0.55565   0.77444   0.00000  Uiso   1.00
H1005  H     0.70478   0.54592   0.99533   0.00000  Uiso   1.00
H1006  H     0.54522   0.79592   0.50467   0.00000  Uiso   1.00
H1007  H     0.70408   0.95478   0.49533   0.00000  Uiso   1.00
H1008  H     0.70408   0.54522   0.50467   0.00000  Uiso   1.00
H1009  H     0.54522   0.70408   0.49533   0.00000  Uiso   1.00
H1010  H     0.95478   0.70408   0.50467   0.00000  Uiso   1.00
H1011  H     0.79592   0.54523   0.49533   0.00000  Uiso   1.00
H1012  H     0.79592   0.95478   0.50467   0.00000  Uiso   1.00
H1013  H     0.71960   0.55800   0.12622   0.00000  Uiso   1.00
H1014  H     0.78040   0.55800   0.87379   0.00000  Uiso   1.00
H1015  H     0.94200   0.71960   0.12622   0.00000  Uiso   1.00
H1016  H     0.79523   0.54592   0.00467   0.00000  Uiso   1.00
H1017  H     0.94200   0.78040   0.87379   0.00000  Uiso   1.00
H1018  H     0.78040   0.94200   0.12622   0.00000  Uiso   1.00
H1019  H     0.71960   0.94200   0.87379   0.00000  Uiso   1.00
H1020  H     0.55800   0.78040   0.12622   0.00000  Uiso   1.00
H1021  H     0.55800   0.71960   0.87379   0.00000  Uiso   1.00
H1022  H     0.96960   0.80800   0.62622   0.00000  Uiso   1.00
H1023  H     0.53040   0.80800   0.37379   0.00000  Uiso   1.00
H1024  H     0.69200   0.96960   0.62622   0.00000  Uiso   1.00
H1025  H     0.69200   0.53040   0.37379   0.00000  Uiso   1.00
H1026  H     0.53040   0.69200   0.62622   0.00000  Uiso   1.00
H1027  H     0.95408   0.70478   0.99533   0.00000  Uiso   1.00
H1028  H     0.96960   0.69200   0.37379   0.00000  Uiso   1.00
H1029  H     0.80800   0.53040   0.62622   0.00000  Uiso   1.00
H1030  H     0.80800   0.96960   0.37379   0.00000  Uiso   1.00
H1031  H     0.95408   0.79523   0.00467   0.00000  Uiso   1.00
H1032  H     0.79522   0.95408   0.99533   0.00000  Uiso   1.00
H1033  H     0.70478   0.95408   0.00467   0.00000  Uiso   1.00
H1034  H     0.54592   0.79522   0.99533   0.00000  Uiso   1.00
H1035  H     0.54592   0.70478   0.00467   0.00000  Uiso   1.00
H1036  H     0.95478   0.79592   0.49533   0.00000  Uiso   1.00
O1037  O     0.75000   0.50000   0.25000   0.00000  Uiso   1.00
O1038  O     0.75000   0.96964   0.66317   0.00000  Uiso   1.00
O1039  O     0.96964   0.75000   0.33683   0.00000  Uiso   1.00
O1040  O     0.53036   0.75000   0.66317   0.00000  Uiso   1.00
O1041  O     0.50000   0.71964   0.83683   0.00000  Uiso   1.00
O1042  O     0.50000   0.78036   0.16317   0.00000  Uiso   1.00
O1043  O     0.78036   0.50000   0.83683   0.00000  Uiso   1.00
O1044  O     0.71964   0.50000   0.16317   0.00000  Uiso   1.00
O1045  O     0.50000   0.78036   0.83683   0.00000  Uiso   1.00
O1046  O     0.50000   0.71964   0.16317   0.00000  Uiso   1.00
O1047  O     0.71964   0.50000   0.83683   0.00000  Uiso   1.00
O1048  O     0.75000   0.50000   0.75000   0.00000  Uiso   1.00
O1049  O     0.78036   0.50000   0.16317   0.00000  Uiso   1.00
O1050  O     0.70726   0.57307   0.27282   0.00000  Uiso   1.00
O1051  O     0.79275   0.92693   0.72718   0.00000  Uiso   1.00
O1052  O     0.92693   0.70726   0.27282   0.00000  Uiso   1.00
O1053  O     0.57307   0.79274   0.72718   0.00000  Uiso   1.00
O1054  O     0.79275   0.92693   0.27282   0.00000  Uiso   1.00
O1055  O     0.70726   0.57307   0.72718   0.00000  Uiso   1.00
O1056  O     0.57307   0.79274   0.27282   0.00000  Uiso   1.00
O1057  O     0.92693   0.70726   0.72718   0.00000  Uiso   1.00
O1058  O     0.70726   0.92693   0.72718   0.00000  Uiso   1.00
O1059  O     0.50000   0.75000   0.25000   0.00000  Uiso   1.00
O1060  O     0.79275   0.57307   0.27282   0.00000  Uiso   1.00
O1061  O     0.92693   0.79275   0.72718   0.00000  Uiso   1.00
O1062  O     0.57307   0.70725   0.27282   0.00000  Uiso   1.00
O1063  O     0.79275   0.57307   0.72718   0.00000  Uiso   1.00
O1064  O     0.70726   0.92693   0.27282   0.00000  Uiso   1.00
O1065  O     0.57307   0.70725   0.72718   0.00000  Uiso   1.00
O1066  O     0.92693   0.79275   0.27282   0.00000  Uiso   1.00
O1067  O     0.95726   0.82307   0.77282   0.00000  Uiso   1.00
O1068  O     0.54275   0.67693   0.22718   0.00000  Uiso   1.00
O1069  O     0.67693   0.95725   0.77282   0.00000  Uiso   1.00
O1070  O     0.50000   0.75000   0.75000   0.00000  Uiso   1.00
O1071  O     0.82307   0.54275   0.22718   0.00000  Uiso   1.00
O1072  O     0.54275   0.67693   0.77282   0.00000  Uiso   1.00
O1073  O     0.95726   0.82307   0.22718   0.00000  Uiso   1.00
O1074  O     0.82307   0.54275   0.77282   0.00000  Uiso   1.00
O1075  O     0.67693   0.95725   0.22718   0.00000  Uiso   1.00
O1076  O     0.95726   0.67693   0.22718   0.00000  Uiso   1.00
O1077  O     0.54275   0.82307   0.77282   0.00000  Uiso   1.00
O1078  O     0.67693   0.54275   0.22718   0.00000  Uiso   1.00
O1079  O     0.82307   0.95726   0.77282   0.00000  Uiso   1.00
O1080  O     0.54275   0.82307   0.22718   0.00000  Uiso   1.00
O1081  O     0.75000   0.96964   0.33683   0.00000  Uiso   1.00
O1082  O     0.95726   0.67693   0.77282   0.00000  Uiso   1.00
O1083  O     0.82307   0.95726   0.22718   0.00000  Uiso   1.00
O1084  O     0.67693   0.54275   0.77282   0.00000  Uiso   1.00
O1085  O     0.70581   0.55052   0.02351   0.00000  Uiso   1.00
O1086  O     0.79419   0.55052   0.97649   0.00000  Uiso   1.00
O1087  O     0.94948   0.70581   0.02351   0.00000  Uiso   1.00
O1088  O     0.94948   0.79419   0.97649   0.00000  Uiso   1.00
O1089  O     0.79419   0.94948   0.02351   0.00000  Uiso   1.00
O1090  O     0.70581   0.94948   0.97649   0.00000  Uiso   1.00
O1091  O     0.55052   0.79419   0.02351   0.00000  Uiso   1.00
O1092  O     0.75000   0.53036   0.66317   0.00000  Uiso   1.00
O1093  O     0.55052   0.70581   0.97649   0.00000  Uiso   1.00
O1094  O     0.95581   0.80052   0.52351   0.00000  Uiso   1.00
O1095  O     0.54419   0.80052   0.47649   0.00000  Uiso   1.00
O1096  O     0.69948   0.95581   0.52351   0.00000  Uiso   1.00
O1097  O     0.69948   0.54419   0.47649   0.00000  Uiso   1.00
O1098  O     0.54419   0.69948   0.52351   0.00000  Uiso   1.00
O1099  O     0.95581   0.69948   0.47649   0.00000  Uiso   1.00
O1100  O     0.80052   0.54419   0.52351   0.00000  Uiso   1.00
O1101  O     0.80052   0.95581   0.47649   0.00000  Uiso   1.00
O1102  O     0.70920   0.55313   0.10030   0.00000  Uiso   1.00
O1103  O     0.53036   0.75000   0.33683   0.00000  Uiso   1.00
O1104  O     0.79080   0.55313   0.89970   0.00000  Uiso   1.00
O1105  O     0.94687   0.70920   0.10030   0.00000  Uiso   1.00
O1106  O     0.94687   0.79080   0.89970   0.00000  Uiso   1.00
O1107  O     0.79080   0.94687   0.10030   0.00000  Uiso   1.00
O1108  O     0.70920   0.94687   0.89970   0.00000  Uiso   1.00
O1109  O     0.55313   0.79080   0.10030   0.00000  Uiso   1.00
O1110  O     0.55313   0.70920   0.89970   0.00000  Uiso   1.00
O1111  O     0.95920   0.80313   0.60030   0.00000  Uiso   1.00
O1112  O     0.54080   0.80313   0.39970   0.00000  Uiso   1.00
O1113  O     0.69687   0.95920   0.60030   0.00000  Uiso   1.00
O1114  O     0.96964   0.75000   0.66317   0.00000  Uiso   1.00
O1115  O     0.69687   0.54080   0.39970   0.00000  Uiso   1.00
O1116  O     0.54080   0.69687   0.60030   0.00000  Uiso   1.00
O1117  O     0.95920   0.69687   0.39970   0.00000  Uiso   1.00
O1118  O     0.80313   0.54080   0.60030   0.00000  Uiso   1.00
O1119  O     0.80313   0.95920   0.39970   0.00000  Uiso   1.00
O1120  O     0.75000   0.53036   0.33683   0.00000  Uiso   1.00
Zn1121 Zn    0.70660   0.50000   0.21760   0.00000  Uiso   1.00
Zn1122 Zn    0.54340   0.75000   0.28240   0.00000  Uiso   1.00
Zn1123 Zn    0.75000   0.95660   0.71760   0.00000  Uiso   1.00
Zn1124 Zn    0.75000   0.54340   0.28240   0.00000  Uiso   1.00
Zn1125 Zn    0.54340   0.75000   0.71760   0.00000  Uiso   1.00
Zn1126 Zn    0.95660   0.75000   0.28240   0.00000  Uiso   1.00
Zn1127 Zn    0.75000   0.54340   0.71760   0.00000  Uiso   1.00
Zn1128 Zn    0.75000   0.95660   0.28240   0.00000  Uiso   1.00
Zn1129 Zn    0.79340   0.50000   0.78240   0.00000  Uiso   1.00
Zn1130 Zn    0.50000   0.70660   0.21760   0.00000  Uiso   1.00
Zn1131 Zn    0.50000   0.79340   0.78240   0.00000  Uiso   1.00
Zn1132 Zn    0.79340   0.50000   0.21760   0.00000  Uiso   1.00
Zn1133 Zn    0.70660   0.50000   0.78240   0.00000  Uiso   1.00
Zn1134 Zn    0.50000   0.79340   0.21760   0.00000  Uiso   1.00
Zn1135 Zn    0.50000   0.70660   0.78240   0.00000  Uiso   1.00
Zn1136 Zn    0.95660   0.75000   0.71760   0.00000  Uiso   1.00
loop_
_geom_bond_atom_site_label_1
_geom_bond_atom_site_label_2
_geom_bond_distance
_geom_bond_site_symmetry_2
_ccdc_geom_bond_type
C1     O233    1.385   .     S
C1     C30     1.394   .     A
C1     C48     1.417   .     S
C2     O243    1.385   .     S
C2     C40     1.394   .     A
C2     C53     1.417   .     S
C3     C96     1.405   .     A
C3     C103    1.405   .     A
C3     C67     1.457   .     S
C4     C68     1.457   .     S
C4     C95     1.405   .     A
C4     C106    1.405   .     A
C5     C94     1.405   .     A
C5     C105    1.405   .     A
C5     C69     1.457   .     S
C6     C93     1.405   .     A
C6     C70     1.457   .     S
C6     C108    1.405   .     A
C7     C71     1.457   .     S
C7     C92     1.405   .     A
C7     C107    1.405   .     A
C8     C111    1.405   .     A
C8     C81     1.457   .     S
C8     C91     1.405   .     A
C9     C82     1.457   .     S
C9     C109    1.405   .     A
C9     C90     1.405   .     A
C10    C74     1.457   .     S
C10    C89     1.405   .     A
C10    C113    1.405   .     A
C11    C112    1.405   .     A
C11    C87     1.405   .     A
C11    C75     1.457   .     S
C12    C115    1.405   .     A
C12    C76     1.457   .     S
C12    C86     1.405   .     A
C13    C41     1.394   .     A
C13    O244    1.385   .     S
C13    C622    1.417   .     S
C14    C114    1.405   .     A
C14    C85     1.405   .     A
C14    C78     1.457   .     S
C15    C79     1.457   .     S
C15    C117    1.405   .     A
C15    C84     1.405   .     A
C16    C116    1.405   .     A
C16    C83     1.405   .     A
C16    C80     1.457   .     S
C17    C603    1.417   1_545 A
C17    C64     1.463   .     S
C17    C30     1.417   .     S
C18    C63     1.463   .     S
C18    C604    1.417   1_545 A
C18    C31     1.417   .     S
C19    C62     1.463   .     S
C19    C37     1.417   .     A
C19    C316    1.417   1_455 S
C20    C61     1.463   .     S
C20    C38     1.417   .     A
C20    C318    1.417   1_455 S
C21    C60     1.463   .     S
C21    C323    1.417   1_455 A
C21    C43     1.417   .     S
C22    C40     1.417   .     A
C22    C59     1.463   .     S
C22    C329    1.417   1_455 S
C23    C58     1.463   .     S
C23    C609    1.417   1_545 A
C23    C46     1.417   .     S
C24    C42     1.394   .     A
C24    O245    1.385   .     S
C24    C56     1.417   .     S
C25    C42     1.417   .     A
C25    C57     1.463   .     S
C25    C615    1.417   1_545 S
C26    C43     1.394   .     A
C26    O246    1.385   .     S
C26    C52     1.417   .     S
C27    C45     1.394   .     A
C27    O247    1.385   .     S
C27    C337    1.417   .     A
C28    C46     1.394   .     A
C28    O248    1.385   .     S
C28    C54     1.417   .     A
C29    C47     1.394   .     A
C29    O249    1.385   .     S
C29    C624    1.417   .     A
C30    O250    1.383   .     S
C31    C33     1.394   .     A
C31    O252    1.383   .     S
C32    O253    1.383   .     S
C32    C44     1.394   .     A
C32    C303    1.417   .     S
C33    O234    1.385   .     S
C33    C49     1.417   .     S
C34    C55     1.394   .     A
C34    O254    1.383   .     S
C34    C304    1.417   .     S
C35    C585    1.417   .     A
C35    C66     1.394   .     A
C35    O255    1.383   .     S
C36    O256    1.383   .     S
C36    C77     1.394   .     A
C36    C586    1.417   .     A
C37    C88     1.394   .     A
C37    O257    1.383   .     S
C38    O258    1.383   .     S
C38    C99     1.394   .     A
C39    C110    1.394   .     A
C39    C305    1.417   .     A
C39    O259    1.383   .     S
C40    O260    1.383   .     S
C41    C591    1.417   .     A
C41    O261    1.383   .     S
C42    O263    1.383   .     S
C43    O264    1.383   .     S
C44    O235    1.385   .     S
C44    C334    1.417   .     S
C45    O265    1.383   .     S
C45    C306    1.417   .     S
C46    O266    1.383   .     S
C47    O267    1.383   .     S
C47    C593    1.417   .     S
C48    C634    1.417   1_545 A
C48    C49     1.470   1_554 S
C49    C645    1.417   1_545 A
C49    C48     1.470   1_556 S
C50    C88     1.417   .     A
C50    C328    1.417   1_455 S
C50    C51     1.470   1_554 S
C51    C99     1.417   .     A
C51    C50     1.470   1_556 S
C51    C339    1.417   1_455 S
C52    C394    1.417   1_455 A
C52    C53     1.470   .     S
C53    C311    1.417   1_455 A
C54    C581    1.417   1_545 S
C54    C56     1.470   .     S
C55    O236    1.385   .     S
C55    C335    1.417   .     S
C56    C597    1.417   1_545 A
C57    O268    1.281   .     A
C57    O797    1.281   1_545 S
C58    O754    1.281   1_545 A
C58    O240    1.281   .     S
C59    O251    1.281   .     A
C59    O471    1.281   1_455 S
C60    O546    1.281   1_455 A
C60    O188    1.281   .     S
C61    O189    1.281   .     A
C61    O193    1.281   .     S
C62    O190    1.281   .     A
C62    O194    1.281   .     A
C63    O191    1.281   .     S
C63    O195    1.281   .     S
C64    O192    1.281   .     S
C64    O197    1.281   .     S
C65    O226    1.280   .     A
C65    C120    1.457   .     S
C65    O198    1.280   .     A
C66    O237    1.385   .     S
C66    C616    1.417   .     A
C67    O227    1.280   .     A
C67    O199    1.280   .     A
C68    O200    1.280   .     A
C68    O224    1.280   .     A
C69    O201    1.280   .     A
C69    O225    1.280   .     A
C70    O231    1.280   .     A
C70    O202    1.280   .     A
C71    O232    1.280   .     A
C71    O203    1.280   .     A
C72    O204    1.280   .     A
C72    C118    1.457   .     S
C72    O228    1.280   .     A
C73    C119    1.457   .     S
C73    O230    1.280   .     A
C73    O205    1.280   .     A
C74    O206    1.280   .     A
C74    O217    1.280   .     A
C75    O219    1.280   .     A
C75    O208    1.280   .     A
C76    O215    1.280   .     A
C76    O209    1.280   .     A
C77    O238    1.385   .     S
C77    C617    1.417   .     A
C78    O210    1.280   .     A
C78    O216    1.280   .     A
C79    O222    1.280   .     A
C79    O211    1.280   .     A
C80    O212    1.280   .     A
C80    O223    1.280   .     A
C81    O213    1.280   .     A
C81    O220    1.280   .     A
C82    O221    1.280   .     A
C82    O214    1.280   .     A
C83    F121    1.359   .     S
C83    C100    1.387   .     A
C84    F132    1.358   .     S
C84    C98     1.387   .     A
C85    F143    1.358   .     S
C85    C97     1.387   .     A
C86    F147    1.358   .     S
C86    C96     1.387   .     A
C87    C95     1.387   .     A
C87    F148    1.359   .     S
C88    O239    1.385   .     S
C89    C94     1.387   .     A
C89    F149    1.358   .     S
C90    F150    1.359   .     S
C90    C93     1.387   .     A
C91    F151    1.358   .     S
C91    C92     1.387   .     A
C92    F152    1.358   .     S
C93    F122    1.358   .     S
C94    F123    1.358   .     S
C95    F124    1.358   .     S
C96    F125    1.359   .     S
C97    F126    1.358   .     S
C97    C120    1.405   .     A
C98    C119    1.405   .     A
C98    F127    1.359   .     S
C99    O241    1.385   .     S
C100   C118    1.405   .     A
C100   F128    1.358   .     S
C101   C119    1.405   .     A
C101   C117    1.387   .     A
C101   F129    1.359   .     S
C102   C118    1.405   .     A
C102   C116    1.387   .     A
C102   F130    1.358   .     S
C103   C115    1.387   .     A
C103   F131    1.358   .     S
C104   C120    1.405   .     A
C104   F133    1.358   .     S
C104   C114    1.387   .     A
C105   C113    1.387   .     A
C105   F134    1.358   .     S
C106   C112    1.387   .     A
C106   F135    1.358   .     S
C107   C111    1.387   .     A
C107   F136    1.359   .     S
C108   C109    1.387   .     A
C108   F137    1.358   .     S
C109   F138    1.358   .     S
C110   C336    1.417   .     A
C110   O242    1.385   .     S
C111   F139    1.358   .     S
C112   F140    1.359   .     S
C113   F141    1.358   .     S
C114   F142    1.359   .     S
C115   F144    1.358   .     S
C116   F145    1.359   .     S
C117   F146    1.358   .     S
H153   O233    0.988   1_556 S
H154   O243    0.988   .     S
H155   O244    0.988   .     S
H156   O245    0.988   .     S
H157   O246    0.988   .     S
H158   O247    0.988   .     S
H159   O248    0.988   .     S
H160   O249    0.988   .     S
H161   O250    0.989   .     S
H162   O252    0.989   .     S
H163   O253    0.989   .     S
H164   O234    0.988   1_554 S
H165   O254    0.989   .     S
H166   O255    0.989   .     S
H167   O256    0.989   .     S
H168   O257    0.989   .     S
H169   O258    0.989   .     S
H170   O259    0.989   .     S
H171   O260    0.989   .     S
H172   O261    0.989   .     S
H173   O263    0.989   .     S
H174   O264    0.989   .     S
H175   O235    0.988   1_556 S
H176   O265    0.989   .     S
H177   O266    0.989   .     S
H178   O267    0.989   .     S
H179   O236    0.988   1_554 S
H180   O237    0.988   1_556 S
H181   O238    0.988   1_554 S
H182   O239    0.988   1_556 S
H183   O241    0.988   1_554 S
H184   O242    0.988   .     S
O185   Zn272   1.947   .     S
O185   Zn280   1.947   .     S
O185   Zn269   1.947   .     S
O185   Zn844   1.947   1_545 S
O186   C626    1.281   .     A
O186   Zn271   1.939   .     S
O187   Zn274   1.939   .     S
O187   C343    1.281   .     S
O188   Zn273   1.939   .     S
O189   Zn283   1.939   .     S
O190   Zn282   1.939   .     S
O191   Zn277   1.939   .     S
O192   Zn269   1.939   .     S
O193   Zn279   1.939   .     S
O194   Zn278   1.939   .     S
O195   Zn281   1.939   .     S
O196   Zn277   1.947   .     S
O196   Zn281   1.947   .     S
O196   Zn275   1.947   .     S
O196   Zn839   1.947   1_545 S
O197   Zn280   1.939   .     S
O198   Zn272   1.939   .     S
O199   Zn271   1.939   .     S
O200   Zn274   1.939   .     S
O201   Zn273   1.939   .     S
O202   Zn276   1.939   .     S
O203   Zn275   1.939   .     S
O204   Zn270   1.939   .     S
O205   Zn284   1.939   .     S
O206   Zn271   1.939   .     S
O207   Zn270   1.947   .     S
O207   Zn278   1.947   .     S
O207   Zn558   1.947   1_455 S
O207   Zn282   1.947   .     S
O208   Zn272   1.939   .     S
O209   Zn284   1.939   .     S
O210   Zn270   1.939   .     S
O211   Zn275   1.939   .     S
O212   Zn276   1.939   .     S
O213   Zn273   1.939   .     S
O214   Zn274   1.939   .     S
O215   Zn563   1.939   .     S
O216   Zn278   1.939   .     S
O217   Zn849   1.939   .     S
O218   Zn273   1.947   .     S
O218   Zn279   1.947   .     S
O218   Zn283   1.947   .     S
O218   Zn568   1.947   1_455 S
O219   Zn280   1.939   .     S
O220   Zn283   1.939   .     S
O221   Zn566   1.939   .     S
O222   Zn277   1.939   .     S
O223   Zn837   1.939   .     S
O224   Zn562   1.939   .     S
O225   Zn279   1.939   .     S
O226   Zn269   1.939   .     S
O227   Zn845   1.939   .     S
O228   Zn282   1.939   .     S
O229   Zn276   1.939   .     S
O229   C625    1.281   .     S
O230   Zn567   1.939   .     S
O231   Zn848   1.939   .     S
O232   Zn281   1.939   .     S
O233   H153    0.988   1_554 S
O234   H164    0.988   1_556 S
O235   H175    0.988   1_554 S
O236   H179    0.988   1_556 S
O237   H180    0.988   1_554 S
O238   H181    0.988   1_556 S
O239   H182    0.988   1_554 S
O240   Zn275   1.939   .     S
O241   H183    0.988   1_556 S
O251   Zn270   1.939   .     S
O262   C344    1.281   .     A
O262   Zn284   1.939   .     S
O268   Zn272   1.939   .     S
Zn269  O791    1.939   1_545 S
Zn271  O764    1.947   .     S
Zn274  O491    1.947   .     S
Zn276  O753    1.947   .     S
Zn277  O795    1.939   1_545 S
Zn278  O508    1.939   1_455 S
Zn279  O499    1.939   1_455 S
Zn280  O799    1.939   1_545 S
Zn281  O785    1.939   1_545 S
Zn282  O505    1.939   1_455 S
Zn283  O514    1.939   1_455 S
Zn284  O502    1.947   .     S
C285   O517    1.385   .     S
C285   C314    1.394   .     A
C285   C332    1.417   .     S
C286   O527    1.385   .     S
C286   C324    1.394   .     A
C286   C337    1.417   .     S
C287   C380    1.405   .     A
C287   C387    1.405   .     A
C287   C351    1.457   .     S
C288   C352    1.457   .     S
C288   C379    1.405   .     A
C288   C390    1.405   .     A
C289   C378    1.405   .     A
C289   C389    1.405   .     A
C289   C353    1.457   .     S
C290   C377    1.405   .     A
C290   C354    1.457   .     S
C290   C392    1.405   .     A
C291   C355    1.457   .     S
C291   C376    1.405   .     A
C291   C391    1.405   .     A
C292   C395    1.405   .     A
C292   C365    1.457   .     S
C292   C375    1.405   .     A
C293   C366    1.457   .     S
C293   C393    1.405   .     A
C293   C374    1.405   .     A
C294   C358    1.457   .     S
C294   C373    1.405   .     A
C294   C397    1.405   .     A
C295   C396    1.405   .     A
C295   C371    1.405   .     A
C295   C359    1.457   .     S
C296   C399    1.405   .     A
C296   C360    1.457   .     S
C296   C370    1.405   .     A
C297   C325    1.394   .     A
C297   O528    1.385   .     S
C297   C906    1.417   .     S
C298   C398    1.405   .     A
C298   C369    1.405   .     A
C298   C362    1.457   .     S
C299   C363    1.457   .     S
C299   C401    1.405   .     A
C299   C368    1.405   .     A
C300   C400    1.405   .     A
C300   C367    1.405   .     A
C300   C364    1.457   .     S
C301   C887    1.417   1_545 A
C301   C348    1.463   .     S
C301   C314    1.417   .     S
C302   C347    1.463   .     S
C302   C888    1.417   1_545 A
C302   C315    1.417   .     S
C303   C346    1.463   .     S
C303   C321    1.417   .     A
C304   C345    1.463   .     S
C304   C322    1.417   .     A
C305   C344    1.463   .     S
C305   C327    1.417   .     S
C306   C324    1.417   .     A
C306   C343    1.463   .     S
C307   C342    1.463   .     S
C307   C893    1.417   1_545 A
C307   C330    1.417   .     S
C308   C326    1.394   .     A
C308   O529    1.385   .     S
C308   C340    1.417   .     S
C309   C326    1.417   .     A
C309   C341    1.463   .     S
C309   C899    1.417   1_545 S
C310   C327    1.394   .     A
C310   O530    1.385   .     S
C310   C336    1.417   .     S
C311   C329    1.394   .     A
C311   O531    1.385   .     S
C311   C53     1.417   1_655 A
C312   C330    1.394   .     A
C312   O532    1.385   .     S
C312   C338    1.417   .     A
C313   C331    1.394   .     A
C313   O533    1.385   .     S
C313   C908    1.417   .     A
C314   O534    1.383   .     S
C315   C317    1.394   .     A
C315   O536    1.383   .     S
C316   O537    1.383   .     S
C316   C328    1.394   .     A
C316   C19     1.417   1_655 S
C317   O518    1.385   .     S
C317   C333    1.417   .     S
C318   C339    1.394   .     A
C318   O538    1.383   .     S
C318   C20     1.417   1_655 S
C319   C869    1.417   .     A
C319   C350    1.394   .     A
C319   O539    1.383   .     S
C320   O540    1.383   .     S
C320   C361    1.394   .     A
C320   C870    1.417   .     A
C321   C372    1.394   .     A
C321   O541    1.383   .     S
C322   O542    1.383   .     S
C322   C383    1.394   .     A
C323   C394    1.394   .     A
C323   C21     1.417   1_655 A
C323   O543    1.383   .     S
C324   O544    1.383   .     S
C325   C875    1.417   .     A
C325   O545    1.383   .     S
C326   O547    1.383   .     S
C327   O548    1.383   .     S
C328   O519    1.385   .     S
C328   C50     1.417   1_655 S
C329   O549    1.383   .     S
C329   C22     1.417   1_655 S
C330   O550    1.383   .     S
C331   O551    1.383   .     S
C331   C877    1.417   .     S
C332   C918    1.417   1_545 A
C332   C333    1.470   1_554 S
C333   C929    1.417   1_545 A
C333   C332    1.470   1_556 S
C334   C372    1.417   .     A
C334   C335    1.470   1_554 S
C335   C383    1.417   .     A
C335   C334    1.470   1_556 S
C336   C337    1.470   .     S
C338   C865    1.417   1_545 S
C338   C340    1.470   .     S
C339   O520    1.385   .     S
C339   C51     1.417   1_655 S
C340   C881    1.417   1_545 A
C341   O552    1.281   .     A
C341   O1081   1.281   1_545 S
C342   O1038   1.281   1_545 A
C342   O524    1.281   .     S
C343   O535    1.281   .     A
C344   O472    1.281   .     S
C345   O473    1.281   .     A
C345   O477    1.281   .     S
C346   O474    1.281   .     A
C346   O478    1.281   .     A
C347   O475    1.281   .     S
C347   O479    1.281   .     S
C348   O476    1.281   .     S
C348   O481    1.281   .     S
C349   O510    1.280   .     A
C349   C404    1.457   .     S
C349   O482    1.280   .     A
C350   O521    1.385   .     S
C350   C900    1.417   .     A
C351   O511    1.280   .     A
C351   O483    1.280   .     A
C352   O484    1.280   .     A
C352   O508    1.280   .     A
C353   O485    1.280   .     A
C353   O509    1.280   .     A
C354   O515    1.280   .     A
C354   O486    1.280   .     A
C355   O516    1.280   .     A
C355   O487    1.280   .     A
C356   O488    1.280   .     A
C356   C402    1.457   .     S
C356   O512    1.280   .     A
C357   C403    1.457   .     S
C357   O514    1.280   .     A
C357   O489    1.280   .     A
C358   O490    1.280   .     A
C358   O501    1.280   .     A
C359   O503    1.280   .     A
C359   O492    1.280   .     A
C360   O499    1.280   .     A
C360   O493    1.280   .     A
C361   O522    1.385   .     S
C361   C901    1.417   .     A
C362   O494    1.280   .     A
C362   O500    1.280   .     A
C363   O506    1.280   .     A
C363   O495    1.280   .     A
C364   O496    1.280   .     A
C364   O507    1.280   .     A
C365   O497    1.280   .     A
C365   O504    1.280   .     A
C366   O505    1.280   .     A
C366   O498    1.280   .     A
C367   F405    1.359   .     S
C367   C384    1.387   .     A
C368   F416    1.358   .     S
C368   C382    1.387   .     A
C369   F427    1.358   .     S
C369   C381    1.387   .     A
C370   F431    1.358   .     S
C370   C380    1.387   .     A
C371   C379    1.387   .     A
C371   F432    1.359   .     S
C372   O523    1.385   .     S
C373   C378    1.387   .     A
C373   F433    1.358   .     S
C374   F434    1.359   .     S
C374   C377    1.387   .     A
C375   F435    1.358   .     S
C375   C376    1.387   .     A
C376   F436    1.358   .     S
C377   F406    1.358   .     S
C378   F407    1.358   .     S
C379   F408    1.358   .     S
C380   F409    1.359   .     S
C381   F410    1.358   .     S
C381   C404    1.405   .     A
C382   C403    1.405   .     A
C382   F411    1.359   .     S
C383   O525    1.385   .     S
C384   C402    1.405   .     A
C384   F412    1.358   .     S
C385   C403    1.405   .     A
C385   C401    1.387   .     A
C385   F413    1.359   .     S
C386   C402    1.405   .     A
C386   C400    1.387   .     A
C386   F414    1.358   .     S
C387   C399    1.387   .     A
C387   F415    1.358   .     S
C388   C404    1.405   .     A
C388   F417    1.358   .     S
C388   C398    1.387   .     A
C389   C397    1.387   .     A
C389   F418    1.358   .     S
C390   C396    1.387   .     A
C390   F419    1.358   .     S
C391   C395    1.387   .     A
C391   F420    1.359   .     S
C392   C393    1.387   .     A
C392   F421    1.358   .     S
C393   F422    1.358   .     S
C394   C52     1.417   1_655 A
C394   O526    1.385   .     S
C395   F423    1.358   .     S
C396   F424    1.359   .     S
C397   F425    1.358   .     S
C398   F426    1.359   .     S
C399   F428    1.358   .     S
C400   F429    1.359   .     S
C401   F430    1.358   .     S
H437   O517    0.988   1_556 S
H438   O527    0.988   .     S
H439   O528    0.988   .     S
H440   O529    0.988   .     S
H441   O530    0.988   .     S
H442   O531    0.988   .     S
H443   O532    0.988   .     S
H444   O533    0.988   .     S
H445   O534    0.989   .     S
H446   O536    0.989   .     S
H447   O537    0.989   .     S
H448   O518    0.988   1_554 S
H449   O538    0.989   .     S
H450   O539    0.989   .     S
H451   O540    0.989   .     S
H452   O541    0.989   .     S
H453   O542    0.989   .     S
H454   O543    0.989   .     S
H455   O544    0.989   .     S
H456   O545    0.989   .     S
H457   O547    0.989   .     S
H458   O548    0.989   .     S
H459   O519    0.988   1_556 S
H460   O549    0.989   .     S
H461   O550    0.989   .     S
H462   O551    0.989   .     S
H463   O520    0.988   1_554 S
H464   O521    0.988   1_556 S
H465   O522    0.988   1_554 S
H466   O523    0.988   1_556 S
H467   O525    0.988   1_554 S
H468   O526    0.988   .     S
O469   Zn556   1.947   .     S
O469   Zn564   1.947   .     S
O469   Zn553   1.947   .     S
O469   Zn1128  1.947   1_545 S
O470   C910    1.281   .     A
O470   Zn555   1.939   .     S
O471   Zn558   1.939   .     S
O471   C59     1.281   1_655 S
O472   Zn557   1.939   .     S
O473   Zn567   1.939   .     S
O474   Zn566   1.939   .     S
O475   Zn561   1.939   .     S
O476   Zn553   1.939   .     S
O477   Zn563   1.939   .     S
O478   Zn562   1.939   .     S
O479   Zn565   1.939   .     S
O480   Zn561   1.947   .     S
O480   Zn565   1.947   .     S
O480   Zn559   1.947   .     S
O480   Zn1123  1.947   1_545 S
O481   Zn564   1.939   .     S
O482   Zn556   1.939   .     S
O483   Zn555   1.939   .     S
O484   Zn558   1.939   .     S
O485   Zn557   1.939   .     S
O486   Zn560   1.939   .     S
O487   Zn559   1.939   .     S
O488   Zn554   1.939   .     S
O489   Zn568   1.939   .     S
O490   Zn555   1.939   .     S
O491   Zn554   1.947   .     S
O491   Zn562   1.947   .     S
O491   Zn566   1.947   .     S
O492   Zn556   1.939   .     S
O493   Zn568   1.939   .     S
O494   Zn554   1.939   .     S
O495   Zn559   1.939   .     S
O496   Zn560   1.939   .     S
O497   Zn557   1.939   .     S
O498   Zn558   1.939   .     S
O499   Zn279   1.939   1_655 S
O500   Zn562   1.939   .     S
O501   Zn1133  1.939   .     S
O502   Zn557   1.947   .     S
O502   Zn563   1.947   .     S
O502   Zn567   1.947   .     S
O503   Zn564   1.939   .     S
O504   Zn567   1.939   .     S
O505   Zn282   1.939   1_655 S
O506   Zn561   1.939   .     S
O507   Zn1121  1.939   .     S
O508   Zn278   1.939   1_655 S
O509   Zn563   1.939   .     S
O510   Zn553   1.939   .     S
O511   Zn1129  1.939   .     S
O512   Zn566   1.939   .     S
O513   Zn560   1.939   .     S
O513   C909    1.281   .     S
O514   Zn283   1.939   1_655 S
O515   Zn1132  1.939   .     S
O516   Zn565   1.939   .     S
O517   H437    0.988   1_554 S
O518   H448    0.988   1_556 S
O519   H459    0.988   1_554 S
O520   H463    0.988   1_556 S
O521   H464    0.988   1_554 S
O522   H465    0.988   1_556 S
O523   H466    0.988   1_554 S
O524   Zn559   1.939   .     S
O525   H467    0.988   1_556 S
O535   Zn554   1.939   .     S
O546   C60     1.281   1_655 A
O546   Zn568   1.939   .     S
O552   Zn556   1.939   .     S
Zn553  O1075   1.939   1_545 S
Zn555  O1048   1.947   .     S
Zn558  O207    1.947   1_655 S
Zn560  O1037   1.947   .     S
Zn561  O1079   1.939   1_545 S
Zn564  O1083   1.939   1_545 S
Zn565  O1069   1.939   1_545 S
Zn568  O218    1.947   1_655 S
C569   O801    1.385   .     S
C569   C598    1.394   .     A
C569   C616    1.417   .     S
C570   O811    1.385   .     S
C570   C608    1.394   .     A
C570   C621    1.417   .     S
C571   C664    1.405   .     A
C571   C671    1.405   .     A
C571   C635    1.457   .     S
C572   C636    1.457   .     S
C572   C663    1.405   .     A
C572   C674    1.405   .     A
C573   C662    1.405   .     A
C573   C673    1.405   .     A
C573   C637    1.457   .     S
C574   C661    1.405   .     A
C574   C638    1.457   .     S
C574   C676    1.405   .     A
C575   C639    1.457   .     S
C575   C660    1.405   .     A
C575   C675    1.405   .     A
C576   C679    1.405   .     A
C576   C649    1.457   .     S
C576   C659    1.405   .     A
C577   C650    1.457   .     S
C577   C677    1.405   .     A
C577   C658    1.405   .     A
C578   C642    1.457   .     S
C578   C657    1.405   .     A
C578   C681    1.405   .     A
C579   C680    1.405   .     A
C579   C655    1.405   .     A
C579   C643    1.457   .     S
C580   C683    1.405   .     A
C580   C644    1.457   .     S
C580   C654    1.405   .     A
C581   C609    1.394   .     A
C581   O812    1.385   .     S
C581   C54     1.417   1_565 S
C582   C682    1.405   .     A
C582   C653    1.405   .     A
C582   C646    1.457   .     S
C583   C647    1.457   .     S
C583   C685    1.405   .     A
C583   C652    1.405   .     A
C584   C684    1.405   .     A
C584   C651    1.405   .     A
C584   C648    1.457   .     S
C585   C632    1.463   .     S
C585   C598    1.417   .     S
C586   C631    1.463   .     S
C586   C599    1.417   .     S
C587   C630    1.463   .     S
C587   C605    1.417   .     A
C587   C884    1.417   1_455 S
C588   C629    1.463   .     S
C588   C606    1.417   .     A
C588   C886    1.417   1_455 S
C589   C628    1.463   .     S
C589   C891    1.417   1_455 A
C589   C611    1.417   .     S
C590   C608    1.417   .     A
C590   C627    1.463   .     S
C590   C897    1.417   1_455 S
C591   C626    1.463   .     S
C591   C614    1.417   .     S
C592   C610    1.394   .     A
C592   O813    1.385   .     S
C592   C624    1.417   .     S
C593   C610    1.417   .     A
C593   C625    1.463   .     S
C594   C611    1.394   .     A
C594   O814    1.385   .     S
C594   C620    1.417   .     S
C595   C613    1.394   .     A
C595   O815    1.385   .     S
C595   C905    1.417   .     A
C596   C614    1.394   .     A
C596   O816    1.385   .     S
C596   C622    1.417   .     A
C597   C615    1.394   .     A
C597   O817    1.385   .     S
C597   C56     1.417   1_565 A
C598   O818    1.383   .     S
C599   C601    1.394   .     A
C599   O820    1.383   .     S
C600   O821    1.383   .     S
C600   C612    1.394   .     A
C600   C871    1.417   .     S
C601   O802    1.385   .     S
C601   C617    1.417   .     S
C602   C623    1.394   .     A
C602   O822    1.383   .     S
C602   C872    1.417   .     S
C603   C17     1.417   1_565 A
C603   C634    1.394   .     A
C603   O823    1.383   .     S
C604   O824    1.383   .     S
C604   C645    1.394   .     A
C604   C18     1.417   1_565 A
C605   C656    1.394   .     A
C605   O825    1.383   .     S
C606   O826    1.383   .     S
C606   C667    1.394   .     A
C607   C678    1.394   .     A
C607   C873    1.417   .     A
C607   O827    1.383   .     S
C608   O828    1.383   .     S
C609   C23     1.417   1_565 A
C609   O829    1.383   .     S
C610   O831    1.383   .     S
C611   O832    1.383   .     S
C612   O803    1.385   .     S
C612   C902    1.417   .     S
C613   O833    1.383   .     S
C613   C874    1.417   .     S
C614   O834    1.383   .     S
C615   O835    1.383   .     S
C615   C25     1.417   1_565 S
C616   C617    1.470   1_554 S
C617   C616    1.470   1_556 S
C618   C656    1.417   .     A
C618   C896    1.417   1_455 S
C618   C619    1.470   1_554 S
C619   C667    1.417   .     A
C619   C618    1.470   1_556 S
C619   C907    1.417   1_455 S
C620   C962    1.417   1_455 A
C620   C621    1.470   .     S
C621   C879    1.417   1_455 A
C622   C624    1.470   .     S
C623   O804    1.385   .     S
C623   C903    1.417   .     S
C625   O836    1.281   .     A
C626   O808    1.281   .     S
C627   O819    1.281   .     A
C627   O1039   1.281   1_455 S
C628   O1114   1.281   1_455 A
C628   O756    1.281   .     S
C629   O757    1.281   .     A
C629   O761    1.281   .     S
C630   O758    1.281   .     A
C630   O762    1.281   .     A
C631   O759    1.281   .     S
C631   O763    1.281   .     S
C632   O760    1.281   .     S
C632   O765    1.281   .     S
C633   O794    1.280   .     A
C633   C688    1.457   .     S
C633   O766    1.280   .     A
C634   O805    1.385   .     S
C634   C48     1.417   1_565 A
C635   O795    1.280   .     A
C635   O767    1.280   .     A
C636   O768    1.280   .     A
C636   O792    1.280   .     A
C637   O769    1.280   .     A
C637   O793    1.280   .     A
C638   O799    1.280   .     A
C638   O770    1.280   .     A
C639   O800    1.280   .     A
C639   O771    1.280   .     A
C640   O772    1.280   .     A
C640   C686    1.457   .     S
C640   O796    1.280   .     A
C641   C687    1.457   .     S
C641   O798    1.280   .     A
C641   O773    1.280   .     A
C642   O774    1.280   .     A
C642   O785    1.280   .     A
C643   O787    1.280   .     A
C643   O776    1.280   .     A
C644   O783    1.280   .     A
C644   O777    1.280   .     A
C645   O806    1.385   .     S
C645   C49     1.417   1_565 A
C646   O778    1.280   .     A
C646   O784    1.280   .     A
C647   O790    1.280   .     A
C647   O779    1.280   .     A
C648   O780    1.280   .     A
C648   O791    1.280   .     A
C649   O781    1.280   .     A
C649   O788    1.280   .     A
C650   O789    1.280   .     A
C650   O782    1.280   .     A
C651   F689    1.359   .     S
C651   C668    1.387   .     A
C652   F700    1.358   .     S
C652   C666    1.387   .     A
C653   F711    1.358   .     S
C653   C665    1.387   .     A
C654   F715    1.358   .     S
C654   C664    1.387   .     A
C655   C663    1.387   .     A
C655   F716    1.359   .     S
C656   O807    1.385   .     S
C657   C662    1.387   .     A
C657   F717    1.358   .     S
C658   F718    1.359   .     S
C658   C661    1.387   .     A
C659   F719    1.358   .     S
C659   C660    1.387   .     A
C660   F720    1.358   .     S
C661   F690    1.358   .     S
C662   F691    1.358   .     S
C663   F692    1.358   .     S
C664   F693    1.359   .     S
C665   F694    1.358   .     S
C665   C688    1.405   .     A
C666   C687    1.405   .     A
C666   F695    1.359   .     S
C667   O809    1.385   .     S
C668   C686    1.405   .     A
C668   F696    1.358   .     S
C669   C687    1.405   .     A
C669   C685    1.387   .     A
C669   F697    1.359   .     S
C670   C686    1.405   .     A
C670   C684    1.387   .     A
C670   F698    1.358   .     S
C671   C683    1.387   .     A
C671   F699    1.358   .     S
C672   C688    1.405   .     A
C672   F701    1.358   .     S
C672   C682    1.387   .     A
C673   C681    1.387   .     A
C673   F702    1.358   .     S
C674   C680    1.387   .     A
C674   F703    1.358   .     S
C675   C679    1.387   .     A
C675   F704    1.359   .     S
C676   C677    1.387   .     A
C676   F705    1.358   .     S
C677   F706    1.358   .     S
C678   C904    1.417   .     A
C678   O810    1.385   .     S
C679   F707    1.358   .     S
C680   F708    1.359   .     S
C681   F709    1.358   .     S
C682   F710    1.359   .     S
C683   F712    1.358   .     S
C684   F713    1.359   .     S
C685   F714    1.358   .     S
H721   O801    0.988   1_556 S
H722   O811    0.988   .     S
H723   O812    0.988   .     S
H724   O813    0.988   .     S
H725   O814    0.988   .     S
H726   O815    0.988   .     S
H727   O816    0.988   .     S
H728   O817    0.988   .     S
H729   O818    0.989   .     S
H730   O820    0.989   .     S
H731   O821    0.989   .     S
H732   O802    0.988   1_554 S
H733   O822    0.989   .     S
H734   O823    0.989   .     S
H735   O824    0.989   .     S
H736   O825    0.989   .     S
H737   O826    0.989   .     S
H738   O827    0.989   .     S
H739   O828    0.989   .     S
H740   O829    0.989   .     S
H741   O831    0.989   .     S
H742   O832    0.989   .     S
H743   O803    0.988   1_556 S
H744   O833    0.989   .     S
H745   O834    0.989   .     S
H746   O835    0.989   .     S
H747   O804    0.988   1_554 S
H748   O805    0.988   1_556 S
H749   O806    0.988   1_554 S
H750   O807    0.988   1_556 S
H751   O809    0.988   1_554 S
H752   O810    0.988   .     S
O753   Zn840   1.947   .     S
O753   Zn848   1.947   .     S
O753   Zn837   1.947   .     S
O754   C58     1.281   1_565 A
O754   Zn839   1.939   .     S
O755   Zn842   1.939   .     S
O755   C911    1.281   .     S
O756   Zn841   1.939   .     S
O757   Zn851   1.939   .     S
O758   Zn850   1.939   .     S
O759   Zn845   1.939   .     S
O760   Zn837   1.939   .     S
O761   Zn847   1.939   .     S
O762   Zn846   1.939   .     S
O763   Zn849   1.939   .     S
O764   Zn845   1.947   .     S
O764   Zn849   1.947   .     S
O764   Zn843   1.947   .     S
O765   Zn848   1.939   .     S
O766   Zn840   1.939   .     S
O767   Zn839   1.939   .     S
O768   Zn842   1.939   .     S
O769   Zn841   1.939   .     S
O770   Zn844   1.939   .     S
O771   Zn843   1.939   .     S
O772   Zn838   1.939   .     S
O773   Zn852   1.939   .     S
O774   Zn839   1.939   .     S
O775   Zn838   1.947   .     S
O775   Zn846   1.947   .     S
O775   Zn1126  1.947   1_455 S
O775   Zn850   1.947   .     S
O776   Zn840   1.939   .     S
O777   Zn852   1.939   .     S
O778   Zn838   1.939   .     S
O779   Zn843   1.939   .     S
O780   Zn844   1.939   .     S
O781   Zn841   1.939   .     S
O782   Zn842   1.939   .     S
O783   Zn1131  1.939   .     S
O784   Zn846   1.939   .     S
O785   Zn281   1.939   1_565 S
O786   Zn841   1.947   .     S
O786   Zn847   1.947   .     S
O786   Zn851   1.947   .     S
O786   Zn1136  1.947   1_455 S
O787   Zn848   1.939   .     S
O788   Zn851   1.939   .     S
O789   Zn1134  1.939   .     S
O790   Zn845   1.939   .     S
O791   Zn269   1.939   1_565 S
O792   Zn1130  1.939   .     S
O793   Zn847   1.939   .     S
O794   Zn837   1.939   .     S
O795   Zn277   1.939   1_565 S
O796   Zn850   1.939   .     S
O797   Zn844   1.939   .     S
O797   C57     1.281   1_565 S
O798   Zn1135  1.939   .     S
O799   Zn280   1.939   1_565 S
O800   Zn849   1.939   .     S
O801   H721    0.988   1_554 S
O802   H732    0.988   1_556 S
O803   H743    0.988   1_554 S
O804   H747    0.988   1_556 S
O805   H748    0.988   1_554 S
O806   H749    0.988   1_556 S
O807   H750    0.988   1_554 S
O808   Zn843   1.939   .     S
O809   H751    0.988   1_556 S
O819   Zn838   1.939   .     S
O830   C912    1.281   .     A
O830   Zn852   1.939   .     S
O836   Zn840   1.939   .     S
Zn839  O196    1.947   1_565 S
Zn842  O1059   1.947   .     S
Zn844  O185    1.947   1_565 S
Zn846  O1076   1.939   1_455 S
Zn847  O1067   1.939   1_455 S
Zn850  O1073   1.939   1_455 S
Zn851  O1082   1.939   1_455 S
Zn852  O1070   1.947   .     S
C853   O1085   1.385   .     S
C853   C882    1.394   .     A
C853   C900    1.417   .     S
C854   O1095   1.385   .     S
C854   C892    1.394   .     A
C854   C905    1.417   .     S
C855   C948    1.405   .     A
C855   C955    1.405   .     A
C855   C919    1.457   .     S
C856   C920    1.457   .     S
C856   C947    1.405   .     A
C856   C958    1.405   .     A
C857   C946    1.405   .     A
C857   C957    1.405   .     A
C857   C921    1.457   .     S
C858   C945    1.405   .     A
C858   C922    1.457   .     S
C858   C960    1.405   .     A
C859   C923    1.457   .     S
C859   C944    1.405   .     A
C859   C959    1.405   .     A
C860   C963    1.405   .     A
C860   C933    1.457   .     S
C860   C943    1.405   .     A
C861   C934    1.457   .     S
C861   C961    1.405   .     A
C861   C942    1.405   .     A
C862   C926    1.457   .     S
C862   C941    1.405   .     A
C862   C965    1.405   .     A
C863   C964    1.405   .     A
C863   C939    1.405   .     A
C863   C927    1.457   .     S
C864   C967    1.405   .     A
C864   C928    1.457   .     S
C864   C938    1.405   .     A
C865   C893    1.394   .     A
C865   O1096   1.385   .     S
C865   C338    1.417   1_565 S
C866   C966    1.405   .     A
C866   C937    1.405   .     A
C866   C930    1.457   .     S
C867   C931    1.457   .     S
C867   C969    1.405   .     A
C867   C936    1.405   .     A
C868   C968    1.405   .     A
C868   C935    1.405   .     A
C868   C932    1.457   .     S
C869   C916    1.463   .     S
C869   C882    1.417   .     S
C870   C915    1.463   .     S
C870   C883    1.417   .     S
C871   C914    1.463   .     S
C871   C889    1.417   .     A
C872   C913    1.463   .     S
C872   C890    1.417   .     A
C873   C912    1.463   .     S
C873   C895    1.417   .     S
C874   C892    1.417   .     A
C874   C911    1.463   .     S
C875   C910    1.463   .     S
C875   C898    1.417   .     S
C876   C894    1.394   .     A
C876   O1097   1.385   .     S
C876   C908    1.417   .     S
C877   C894    1.417   .     A
C877   C909    1.463   .     S
C878   C895    1.394   .     A
C878   O1098   1.385   .     S
C878   C904    1.417   .     S
C879   C897    1.394   .     A
C879   O1099   1.385   .     S
C879   C621    1.417   1_655 A
C880   C898    1.394   .     A
C880   O1100   1.385   .     S
C880   C906    1.417   .     A
C881   C899    1.394   .     A
C881   O1101   1.385   .     S
C881   C340    1.417   1_565 A
C882   O1102   1.383   .     S
C883   C885    1.394   .     A
C883   O1104   1.383   .     S
C884   O1105   1.383   .     S
C884   C896    1.394   .     A
C884   C587    1.417   1_655 S
C885   O1086   1.385   .     S
C885   C901    1.417   .     S
C886   C907    1.394   .     A
C886   O1106   1.383   .     S
C886   C588    1.417   1_655 S
C887   C301    1.417   1_565 A
C887   C918    1.394   .     A
C887   O1107   1.383   .     S
C888   O1108   1.383   .     S
C888   C929    1.394   .     A
C888   C302    1.417   1_565 A
C889   C940    1.394   .     A
C889   O1109   1.383   .     S
C890   O1110   1.383   .     S
C890   C951    1.394   .     A
C891   C962    1.394   .     A
C891   C589    1.417   1_655 A
C891   O1111   1.383   .     S
C892   O1112   1.383   .     S
C893   C307    1.417   1_565 A
C893   O1113   1.383   .     S
C894   O1115   1.383   .     S
C895   O1116   1.383   .     S
C896   O1087   1.385   .     S
C896   C618    1.417   1_655 S
C897   O1117   1.383   .     S
C897   C590    1.417   1_655 S
C898   O1118   1.383   .     S
C899   O1119   1.383   .     S
C899   C309    1.417   1_565 S
C900   C901    1.470   1_554 S
C901   C900    1.470   1_556 S
C902   C940    1.417   .     A
C902   C903    1.470   1_554 S
C903   C951    1.417   .     A
C903   C902    1.470   1_556 S
C904   C905    1.470   .     S
C906   C908    1.470   .     S
C907   O1088   1.385   .     S
C907   C619    1.417   1_655 S
C909   O1120   1.281   .     A
C910   O1092   1.281   .     S
C911   O1103   1.281   .     A
C912   O1040   1.281   .     S
C913   O1041   1.281   .     A
C913   O1045   1.281   .     S
C914   O1042   1.281   .     A
C914   O1046   1.281   .     A
C915   O1043   1.281   .     S
C915   O1047   1.281   .     S
C916   O1044   1.281   .     S
C916   O1049   1.281   .     S
C917   O1078   1.280   .     A
C917   C972    1.457   .     S
C917   O1050   1.280   .     A
C918   O1089   1.385   .     S
C918   C332    1.417   1_565 A
C919   O1079   1.280   .     A
C919   O1051   1.280   .     A
C920   O1052   1.280   .     A
C920   O1076   1.280   .     A
C921   O1053   1.280   .     A
C921   O1077   1.280   .     A
C922   O1083   1.280   .     A
C922   O1054   1.280   .     A
C923   O1084   1.280   .     A
C923   O1055   1.280   .     A
C924   O1056   1.280   .     A
C924   C970    1.457   .     S
C924   O1080   1.280   .     A
C925   C971    1.457   .     S
C925   O1082   1.280   .     A
C925   O1057   1.280   .     A
C926   O1058   1.280   .     A
C926   O1069   1.280   .     A
C927   O1071   1.280   .     A
C927   O1060   1.280   .     A
C928   O1067   1.280   .     A
C928   O1061   1.280   .     A
C929   O1090   1.385   .     S
C929   C333    1.417   1_565 A
C930   O1062   1.280   .     A
C930   O1068   1.280   .     A
C931   O1074   1.280   .     A
C931   O1063   1.280   .     A
C932   O1064   1.280   .     A
C932   O1075   1.280   .     A
C933   O1065   1.280   .     A
C933   O1072   1.280   .     A
C934   O1073   1.280   .     A
C934   O1066   1.280   .     A
C935   F973    1.359   .     S
C935   C952    1.387   .     A
C936   F984    1.358   .     S
C936   C950    1.387   .     A
C937   F995    1.358   .     S
C937   C949    1.387   .     A
C938   F999    1.358   .     S
C938   C948    1.387   .     A
C939   C947    1.387   .     A
C939   F1000   1.359   .     S
C940   O1091   1.385   .     S
C941   C946    1.387   .     A
C941   F1001   1.358   .     S
C942   F1002   1.359   .     S
C942   C945    1.387   .     A
C943   F1003   1.358   .     S
C943   C944    1.387   .     A
C944   F1004   1.358   .     S
C945   F974    1.358   .     S
C946   F975    1.358   .     S
C947   F976    1.358   .     S
C948   F977    1.359   .     S
C949   F978    1.358   .     S
C949   C972    1.405   .     A
C950   C971    1.405   .     A
C950   F979    1.359   .     S
C951   O1093   1.385   .     S
C952   C970    1.405   .     A
C952   F980    1.358   .     S
C953   C971    1.405   .     A
C953   C969    1.387   .     A
C953   F981    1.359   .     S
C954   C970    1.405   .     A
C954   C968    1.387   .     A
C954   F982    1.358   .     S
C955   C967    1.387   .     A
C955   F983    1.358   .     S
C956   C972    1.405   .     A
C956   F985    1.358   .     S
C956   C966    1.387   .     A
C957   C965    1.387   .     A
C957   F986    1.358   .     S
C958   C964    1.387   .     A
C958   F987    1.358   .     S
C959   C963    1.387   .     A
C959   F988    1.359   .     S
C960   C961    1.387   .     A
C960   F989    1.358   .     S
C961   F990    1.358   .     S
C962   C620    1.417   1_655 A
C962   O1094   1.385   .     S
C963   F991    1.358   .     S
C964   F992    1.359   .     S
C965   F993    1.358   .     S
C966   F994    1.359   .     S
C967   F996    1.358   .     S
C968   F997    1.359   .     S
C969   F998    1.358   .     S
H1005  O1085   0.988   1_556 S
H1006  O1095   0.988   .     S
H1007  O1096   0.988   .     S
H1008  O1097   0.988   .     S
H1009  O1098   0.988   .     S
H1010  O1099   0.988   .     S
H1011  O1100   0.988   .     S
H1012  O1101   0.988   .     S
H1013  O1102   0.989   .     S
H1014  O1104   0.989   .     S
H1015  O1105   0.989   .     S
H1016  O1086   0.988   1_554 S
H1017  O1106   0.989   .     S
H1018  O1107   0.989   .     S
H1019  O1108   0.989   .     S
H1020  O1109   0.989   .     S
H1021  O1110   0.989   .     S
H1022  O1111   0.989   .     S
H1023  O1112   0.989   .     S
H1024  O1113   0.989   .     S
H1025  O1115   0.989   .     S
H1026  O1116   0.989   .     S
H1027  O1087   0.988   1_556 S
H1028  O1117   0.989   .     S
H1029  O1118   0.989   .     S
H1030  O1119   0.989   .     S
H1031  O1088   0.988   1_554 S
H1032  O1089   0.988   1_556 S
H1033  O1090   0.988   1_554 S
H1034  O1091   0.988   1_556 S
H1035  O1093   0.988   1_554 S
H1036  O1094   0.988   .     S
O1037  Zn1124  1.947   .     S
O1037  Zn1132  1.947   .     S
O1037  Zn1121  1.947   .     S
O1038  C342    1.281   1_565 A
O1038  Zn1123  1.939   .     S
O1039  Zn1126  1.939   .     S
O1039  C627    1.281   1_655 S
O1040  Zn1125  1.939   .     S
O1041  Zn1135  1.939   .     S
O1042  Zn1134  1.939   .     S
O1043  Zn1129  1.939   .     S
O1044  Zn1121  1.939   .     S
O1045  Zn1131  1.939   .     S
O1046  Zn1130  1.939   .     S
O1047  Zn1133  1.939   .     S
O1048  Zn1129  1.947   .     S
O1048  Zn1133  1.947   .     S
O1048  Zn1127  1.947   .     S
O1049  Zn1132  1.939   .     S
O1050  Zn1124  1.939   .     S
O1051  Zn1123  1.939   .     S
O1052  Zn1126  1.939   .     S
O1053  Zn1125  1.939   .     S
O1054  Zn1128  1.939   .     S
O1055  Zn1127  1.939   .     S
O1056  Zn1122  1.939   .     S
O1057  Zn1136  1.939   .     S
O1058  Zn1123  1.939   .     S
O1059  Zn1122  1.947   .     S
O1059  Zn1130  1.947   .     S
O1059  Zn1134  1.947   .     S
O1060  Zn1124  1.939   .     S
O1061  Zn1136  1.939   .     S
O1062  Zn1122  1.939   .     S
O1063  Zn1127  1.939   .     S
O1064  Zn1128  1.939   .     S
O1065  Zn1125  1.939   .     S
O1066  Zn1126  1.939   .     S
O1067  Zn847   1.939   1_655 S
O1068  Zn1130  1.939   .     S
O1069  Zn565   1.939   1_565 S
O1070  Zn1125  1.947   .     S
O1070  Zn1131  1.947   .     S
O1070  Zn1135  1.947   .     S
O1071  Zn1132  1.939   .     S
O1072  Zn1135  1.939   .     S
O1073  Zn850   1.939   1_655 S
O1074  Zn1129  1.939   .     S
O1075  Zn553   1.939   1_565 S
O1076  Zn846   1.939   1_655 S
O1077  Zn1131  1.939   .     S
O1078  Zn1121  1.939   .     S
O1079  Zn561   1.939   1_565 S
O1080  Zn1134  1.939   .     S
O1081  Zn1128  1.939   .     S
O1081  C341    1.281   1_565 S
O1082  Zn851   1.939   1_655 S
O1083  Zn564   1.939   1_565 S
O1084  Zn1133  1.939   .     S
O1085  H1005   0.988   1_554 S
O1086  H1016   0.988   1_556 S
O1087  H1027   0.988   1_554 S
O1088  H1031   0.988   1_556 S
O1089  H1032   0.988   1_554 S
O1090  H1033   0.988   1_556 S
O1091  H1034   0.988   1_554 S
O1092  Zn1127  1.939   .     S
O1093  H1035   0.988   1_556 S
O1103  Zn1122  1.939   .     S
O1114  C628    1.281   1_655 A
O1114  Zn1136  1.939   .     S
O1120  Zn1124  1.939   .     S
Zn1123 O480    1.947   1_565 S
Zn1126 O775    1.947   1_655 S
Zn1128 O469    1.947   1_565 S
Zn1136 O786    1.947   1_655 S
