data_str_m2_o10_o18_pcu_sym.104
_audit_creation_date              2020-01-03
_audit_creation_method            'Materials Studio'
_symmetry_space_group_name_H-M    'P1'
_symmetry_Int_Tables_number       1
_symmetry_cell_setting            triclinic
loop_
_symmetry_equiv_pos_as_xyz
  x,y,z
_cell_length_a                    22.4579
_cell_length_b                    26.0379
_cell_length_c                    31.6657
_cell_angle_alpha                 95.5606
_cell_angle_beta                  75.3849
_cell_angle_gamma                 103.7337
loop_
_atom_site_label
_atom_site_type_symbol
_atom_site_fract_x
_atom_site_fract_y
_atom_site_fract_z
_atom_site_U_iso_or_equiv
_atom_site_adp_type
_atom_site_occupancy
C1     C     0.18155   0.26675   0.25186   0.00000  Uiso   1.00
C2     C     0.15159   0.06657   0.24846   0.00000  Uiso   1.00
C3     C     0.08892   0.15202   0.04206   0.00000  Uiso   1.00
C4     C     0.23670   0.21382   0.46351   0.00000  Uiso   1.00
C5     C     0.04557   0.13635   0.01548   0.00000  Uiso   1.00
C6     C     0.27923   0.22959   0.49015   0.00000  Uiso   1.00
C7     C     0.18874   0.32286   0.25431   0.00000  Uiso   1.00
C8     C     0.14394   0.01042   0.24659   0.00000  Uiso   1.00
C9     C     0.12838   0.16330   0.33301   0.00000  Uiso   1.00
C10    C     0.20502   0.17194   0.16709   0.00000  Uiso   1.00
C11    C     0.10532   0.16010   0.38056   0.00000  Uiso   1.00
C12    C     0.22729   0.18333   0.12045   0.00000  Uiso   1.00
C13    C     0.02264   0.13156   0.44411   0.00000  Uiso   1.00
C14    C     0.30434   0.22937   0.06054   0.00000  Uiso   1.00
C15    C     0.04202   0.13904   0.39947   0.00000  Uiso   1.00
C16    C     0.28757   0.21357   0.10354   0.00000  Uiso   1.00
C17    C     0.14846   0.17591   0.40693   0.00000  Uiso   1.00
C18    C     0.18394   0.16926   0.09403   0.00000  Uiso   1.00
C19    C     0.13004   0.17007   0.45246   0.00000  Uiso   1.00
C20    C     0.19853   0.18659   0.05111   0.00000  Uiso   1.00
C21    C     0.06602   0.14608   0.47088   0.00000  Uiso   1.00
C22    C     0.26083   0.21555   0.03387   0.00000  Uiso   1.00
C23    C     0.17369   0.18608   0.47970   0.00000  Uiso   1.00
C24    C     0.15355   0.17445   0.02466   0.00000  Uiso   1.00
Cu25   Cu    0.10737   0.16108   0.24517   0.00000  Uiso   1.00
Cu26   Cu    0.22596   0.17225   0.25484   0.00000  Uiso   1.00
N27    N     0.31506   0.18068   0.26212   0.00000  Uiso   1.00
N28    N     0.01827   0.15265   0.23788   0.00000  Uiso   1.00
O29    O     0.12815   0.23809   0.24686   0.00000  Uiso   1.00
O30    O     0.20518   0.09524   0.25314   0.00000  Uiso   1.00
O31    O     0.22829   0.24753   0.25503   0.00000  Uiso   1.00
O32    O     0.10504   0.08580   0.24498   0.00000  Uiso   1.00
O33    O     0.08851   0.15930   0.30855   0.00000  Uiso   1.00
O34    O     0.24482   0.17403   0.19146   0.00000  Uiso   1.00
O35    O     0.18866   0.16874   0.31671   0.00000  Uiso   1.00
O36    O     0.14468   0.16460   0.18329   0.00000  Uiso   1.00
O37    O     0.31480   0.11558   0.03222   0.00000  Uiso   1.00
C38    C     0.30357   0.07914   0.06500   0.00000  Uiso   1.00
H39    H     0.30195   0.10097   0.09701   0.00000  Uiso   1.00
H40    H     0.00671   0.05498   0.05843   0.00000  Uiso   1.00
C41    C     0.23963   0.04156   0.06730   0.00000  Uiso   1.00
H42    H     0.23804   0.02095   0.03510   0.00000  Uiso   1.00
H43    H     0.23131   0.01157   0.09204   0.00000  Uiso   1.00
H44    H     0.20150   0.06380   0.07666   0.00000  Uiso   1.00
O45    O     0.00838   0.25206   0.47156   0.00000  Uiso   1.00
C46    C     0.01448   0.30616   0.46546   0.00000  Uiso   1.00
H47    H     0.00040   0.32727   0.49730   0.00000  Uiso   1.00
H48    H     0.31873   0.31186   0.44327   0.00000  Uiso   1.00
C49    C     0.08324   0.33058   0.44515   0.00000  Uiso   1.00
H50    H     0.11321   0.32709   0.46732   0.00000  Uiso   1.00
H51    H     0.08875   0.03972   0.43956   0.00000  Uiso   1.00
H52    H     0.09916   0.30994   0.41337   0.00000  Uiso   1.00
H53    H     0.13919   0.14362   0.10766   0.00000  Uiso   1.00
H54    H     0.19669   0.19129   0.39062   0.00000  Uiso   1.00
H55    H     0.32133   0.22566   0.12370   0.00000  Uiso   1.00
H56    H     0.00789   0.12668   0.37961   0.00000  Uiso   1.00
H57    H     0.30677   0.11375   0.45742   0.00000  Uiso   1.00
H58    H     0.01835   0.25229   0.04819   0.00000  Uiso   1.00
H59    H     0.07027   0.14865   0.07671   0.00000  Uiso   1.00
H60    H     0.25507   0.22483   0.43014   0.00000  Uiso   1.00
H61    H     0.23084   0.01371   0.26288   0.00000  Uiso   1.00
H62    H     0.10165   0.31957   0.23822   0.00000  Uiso   1.00
O63    O     0.33300   0.20047   0.29898   0.00000  Uiso   1.00
C64    C     0.31952   0.25094   0.30854   0.00000  Uiso   1.00
H65    H     0.26867   0.24780   0.32353   0.00000  Uiso   1.00
H66    H     0.00069   0.27485   0.27886   0.00000  Uiso   1.00
C67    C     0.02260   0.27999   0.34152   0.00000  Uiso   1.00
H68    H     0.07411   0.28572   0.32739   0.00000  Uiso   1.00
H69    H     0.01086   0.31930   0.35074   0.00000  Uiso   1.00
H70    H     0.01022   0.25661   0.37121   0.00000  Uiso   1.00
O71    O     0.33067   0.12764   0.20331   0.00000  Uiso   1.00
C72    C     0.01254   0.07758   0.19759   0.00000  Uiso   1.00
H73    H     0.00012   0.05809   0.22941   0.00000  Uiso   1.00
H74    H     0.06331   0.08131   0.18180   0.00000  Uiso   1.00
C75    C     0.30890   0.04139   0.16784   0.00000  Uiso   1.00
H76    H     0.26178   0.05025   0.17176   0.00000  Uiso   1.00
H77    H     0.00263   0.04607   0.13353   0.00000  Uiso   1.00
H78    H     0.30254   0.33274   0.17554   0.00000  Uiso   1.00
C79    C     0.51488   0.26675   0.25186   0.00000  Uiso   1.00
C80    C     0.48493   0.06657   0.24846   0.00000  Uiso   1.00
C81    C     0.42226   0.15202   0.04206   0.00000  Uiso   1.00
C82    C     0.57003   0.21382   0.46351   0.00000  Uiso   1.00
C83    C     0.37891   0.13635   0.01548   0.00000  Uiso   1.00
C84    C     0.61257   0.22959   0.49015   0.00000  Uiso   1.00
C85    C     0.52207   0.32286   0.25431   0.00000  Uiso   1.00
C86    C     0.47728   0.01042   0.24659   0.00000  Uiso   1.00
C87    C     0.46171   0.16330   0.33301   0.00000  Uiso   1.00
C88    C     0.53835   0.17194   0.16709   0.00000  Uiso   1.00
C89    C     0.43865   0.16010   0.38056   0.00000  Uiso   1.00
C90    C     0.56062   0.18333   0.12045   0.00000  Uiso   1.00
C91    C     0.35597   0.13156   0.44411   0.00000  Uiso   1.00
C92    C     0.63768   0.22937   0.06054   0.00000  Uiso   1.00
C93    C     0.37535   0.13904   0.39947   0.00000  Uiso   1.00
C94    C     0.62091   0.21357   0.10354   0.00000  Uiso   1.00
C95    C     0.48179   0.17591   0.40693   0.00000  Uiso   1.00
C96    C     0.51727   0.16926   0.09403   0.00000  Uiso   1.00
C97    C     0.46338   0.17007   0.45246   0.00000  Uiso   1.00
C98    C     0.53187   0.18659   0.05111   0.00000  Uiso   1.00
C99    C     0.39935   0.14608   0.47088   0.00000  Uiso   1.00
C100   C     0.59416   0.21555   0.03387   0.00000  Uiso   1.00
C101   C     0.50702   0.18608   0.47970   0.00000  Uiso   1.00
C102   C     0.48689   0.17445   0.02466   0.00000  Uiso   1.00
Cu103  Cu    0.44071   0.16108   0.24517   0.00000  Uiso   1.00
Cu104  Cu    0.55929   0.17225   0.25484   0.00000  Uiso   1.00
N105   N     0.64839   0.18068   0.26212   0.00000  Uiso   1.00
N106   N     0.35161   0.15265   0.23788   0.00000  Uiso   1.00
O107   O     0.46148   0.23809   0.24686   0.00000  Uiso   1.00
O108   O     0.53852   0.09524   0.25314   0.00000  Uiso   1.00
O109   O     0.56163   0.24753   0.25503   0.00000  Uiso   1.00
O110   O     0.43837   0.08580   0.24498   0.00000  Uiso   1.00
O111   O     0.42185   0.15930   0.30855   0.00000  Uiso   1.00
O112   O     0.57815   0.17403   0.19146   0.00000  Uiso   1.00
O113   O     0.52199   0.16874   0.31671   0.00000  Uiso   1.00
O114   O     0.47801   0.16460   0.18329   0.00000  Uiso   1.00
O115   O     0.64813   0.11558   0.03222   0.00000  Uiso   1.00
C116   C     0.63690   0.07914   0.06500   0.00000  Uiso   1.00
H117   H     0.63528   0.10097   0.09701   0.00000  Uiso   1.00
H118   H     0.34004   0.05498   0.05843   0.00000  Uiso   1.00
C119   C     0.57296   0.04156   0.06730   0.00000  Uiso   1.00
H120   H     0.57137   0.02095   0.03510   0.00000  Uiso   1.00
H121   H     0.56464   0.01157   0.09204   0.00000  Uiso   1.00
H122   H     0.53483   0.06380   0.07666   0.00000  Uiso   1.00
O123   O     0.34172   0.25206   0.47156   0.00000  Uiso   1.00
C124   C     0.34781   0.30616   0.46546   0.00000  Uiso   1.00
H125   H     0.33373   0.32727   0.49730   0.00000  Uiso   1.00
H126   H     0.65207   0.31186   0.44327   0.00000  Uiso   1.00
C127   C     0.41657   0.33058   0.44515   0.00000  Uiso   1.00
H128   H     0.44654   0.32709   0.46732   0.00000  Uiso   1.00
H129   H     0.42209   0.03972   0.43956   0.00000  Uiso   1.00
H130   H     0.43249   0.30994   0.41337   0.00000  Uiso   1.00
H131   H     0.47252   0.14362   0.10766   0.00000  Uiso   1.00
H132   H     0.53002   0.19129   0.39062   0.00000  Uiso   1.00
H133   H     0.65467   0.22566   0.12370   0.00000  Uiso   1.00
H134   H     0.34122   0.12668   0.37961   0.00000  Uiso   1.00
H135   H     0.64010   0.11375   0.45742   0.00000  Uiso   1.00
H136   H     0.35168   0.25229   0.04819   0.00000  Uiso   1.00
H137   H     0.40360   0.14865   0.07671   0.00000  Uiso   1.00
H138   H     0.58840   0.22483   0.43014   0.00000  Uiso   1.00
H139   H     0.56418   0.01371   0.26288   0.00000  Uiso   1.00
H140   H     0.43499   0.31957   0.23822   0.00000  Uiso   1.00
O141   O     0.66633   0.20047   0.29898   0.00000  Uiso   1.00
C142   C     0.65285   0.25094   0.30854   0.00000  Uiso   1.00
H143   H     0.60200   0.24780   0.32353   0.00000  Uiso   1.00
H144   H     0.33403   0.27485   0.27886   0.00000  Uiso   1.00
C145   C     0.35594   0.27999   0.34152   0.00000  Uiso   1.00
H146   H     0.40744   0.28572   0.32739   0.00000  Uiso   1.00
H147   H     0.34420   0.31930   0.35074   0.00000  Uiso   1.00
H148   H     0.34355   0.25661   0.37121   0.00000  Uiso   1.00
O149   O     0.66400   0.12764   0.20331   0.00000  Uiso   1.00
C150   C     0.34587   0.07758   0.19759   0.00000  Uiso   1.00
H151   H     0.33346   0.05809   0.22941   0.00000  Uiso   1.00
H152   H     0.39664   0.08131   0.18180   0.00000  Uiso   1.00
C153   C     0.64223   0.04139   0.16784   0.00000  Uiso   1.00
H154   H     0.59512   0.05025   0.17176   0.00000  Uiso   1.00
H155   H     0.33597   0.04607   0.13353   0.00000  Uiso   1.00
H156   H     0.63587   0.33274   0.17554   0.00000  Uiso   1.00
C157   C     0.84821   0.26675   0.25186   0.00000  Uiso   1.00
C158   C     0.81826   0.06657   0.24846   0.00000  Uiso   1.00
C159   C     0.75559   0.15202   0.04206   0.00000  Uiso   1.00
C160   C     0.90336   0.21382   0.46351   0.00000  Uiso   1.00
C161   C     0.71224   0.13635   0.01548   0.00000  Uiso   1.00
C162   C     0.94590   0.22959   0.49015   0.00000  Uiso   1.00
C163   C     0.85541   0.32286   0.25431   0.00000  Uiso   1.00
C164   C     0.81061   0.01042   0.24659   0.00000  Uiso   1.00
C165   C     0.79504   0.16330   0.33301   0.00000  Uiso   1.00
C166   C     0.87168   0.17194   0.16709   0.00000  Uiso   1.00
C167   C     0.77198   0.16010   0.38056   0.00000  Uiso   1.00
C168   C     0.89395   0.18333   0.12045   0.00000  Uiso   1.00
C169   C     0.68930   0.13156   0.44411   0.00000  Uiso   1.00
C170   C     0.97101   0.22937   0.06054   0.00000  Uiso   1.00
C171   C     0.70868   0.13904   0.39947   0.00000  Uiso   1.00
C172   C     0.95424   0.21357   0.10354   0.00000  Uiso   1.00
C173   C     0.81512   0.17591   0.40693   0.00000  Uiso   1.00
C174   C     0.85060   0.16926   0.09403   0.00000  Uiso   1.00
C175   C     0.79671   0.17007   0.45246   0.00000  Uiso   1.00
C176   C     0.86520   0.18659   0.05111   0.00000  Uiso   1.00
C177   C     0.73268   0.14608   0.47088   0.00000  Uiso   1.00
C178   C     0.92750   0.21555   0.03387   0.00000  Uiso   1.00
C179   C     0.84036   0.18608   0.47970   0.00000  Uiso   1.00
C180   C     0.82022   0.17445   0.02466   0.00000  Uiso   1.00
Cu181  Cu    0.77404   0.16108   0.24517   0.00000  Uiso   1.00
Cu182  Cu    0.89263   0.17225   0.25484   0.00000  Uiso   1.00
N183   N     0.98173   0.18068   0.26212   0.00000  Uiso   1.00
N184   N     0.68494   0.15265   0.23788   0.00000  Uiso   1.00
O185   O     0.79482   0.23809   0.24686   0.00000  Uiso   1.00
O186   O     0.87185   0.09524   0.25314   0.00000  Uiso   1.00
O187   O     0.89496   0.24753   0.25503   0.00000  Uiso   1.00
O188   O     0.77171   0.08580   0.24498   0.00000  Uiso   1.00
O189   O     0.75518   0.15930   0.30855   0.00000  Uiso   1.00
O190   O     0.91149   0.17403   0.19146   0.00000  Uiso   1.00
O191   O     0.85532   0.16874   0.31671   0.00000  Uiso   1.00
O192   O     0.81134   0.16460   0.18329   0.00000  Uiso   1.00
O193   O     0.98146   0.11558   0.03222   0.00000  Uiso   1.00
C194   C     0.97024   0.07914   0.06500   0.00000  Uiso   1.00
H195   H     0.96862   0.10097   0.09701   0.00000  Uiso   1.00
H196   H     0.67338   0.05498   0.05843   0.00000  Uiso   1.00
C197   C     0.90630   0.04156   0.06730   0.00000  Uiso   1.00
H198   H     0.90471   0.02095   0.03510   0.00000  Uiso   1.00
H199   H     0.89797   0.01157   0.09204   0.00000  Uiso   1.00
H200   H     0.86817   0.06380   0.07666   0.00000  Uiso   1.00
O201   O     0.67505   0.25206   0.47156   0.00000  Uiso   1.00
C202   C     0.68115   0.30616   0.46546   0.00000  Uiso   1.00
H203   H     0.66706   0.32727   0.49730   0.00000  Uiso   1.00
H204   H     0.98540   0.31186   0.44327   0.00000  Uiso   1.00
C205   C     0.74990   0.33058   0.44515   0.00000  Uiso   1.00
H206   H     0.77988   0.32709   0.46732   0.00000  Uiso   1.00
H207   H     0.75542   0.03972   0.43956   0.00000  Uiso   1.00
H208   H     0.76583   0.30994   0.41337   0.00000  Uiso   1.00
H209   H     0.80585   0.14362   0.10766   0.00000  Uiso   1.00
H210   H     0.86336   0.19129   0.39062   0.00000  Uiso   1.00
H211   H     0.98800   0.22566   0.12370   0.00000  Uiso   1.00
H212   H     0.67455   0.12668   0.37961   0.00000  Uiso   1.00
H213   H     0.97343   0.11375   0.45742   0.00000  Uiso   1.00
H214   H     0.68501   0.25229   0.04819   0.00000  Uiso   1.00
H215   H     0.73694   0.14865   0.07671   0.00000  Uiso   1.00
H216   H     0.92173   0.22483   0.43014   0.00000  Uiso   1.00
H217   H     0.89751   0.01371   0.26288   0.00000  Uiso   1.00
H218   H     0.76832   0.31957   0.23822   0.00000  Uiso   1.00
O219   O     0.99967   0.20047   0.29898   0.00000  Uiso   1.00
C220   C     0.98619   0.25094   0.30854   0.00000  Uiso   1.00
H221   H     0.93534   0.24780   0.32353   0.00000  Uiso   1.00
H222   H     0.66736   0.27485   0.27886   0.00000  Uiso   1.00
C223   C     0.68927   0.27999   0.34152   0.00000  Uiso   1.00
H224   H     0.74077   0.28572   0.32739   0.00000  Uiso   1.00
H225   H     0.67753   0.31930   0.35074   0.00000  Uiso   1.00
H226   H     0.67689   0.25661   0.37121   0.00000  Uiso   1.00
O227   O     0.99733   0.12764   0.20331   0.00000  Uiso   1.00
C228   C     0.67921   0.07758   0.19759   0.00000  Uiso   1.00
H229   H     0.66679   0.05809   0.22941   0.00000  Uiso   1.00
H230   H     0.72997   0.08131   0.18180   0.00000  Uiso   1.00
C231   C     0.97557   0.04139   0.16784   0.00000  Uiso   1.00
H232   H     0.92845   0.05025   0.17176   0.00000  Uiso   1.00
H233   H     0.66930   0.04607   0.13353   0.00000  Uiso   1.00
H234   H     0.96920   0.33274   0.17554   0.00000  Uiso   1.00
C235   C     0.18155   0.60008   0.25186   0.00000  Uiso   1.00
C236   C     0.15159   0.39991   0.24846   0.00000  Uiso   1.00
C237   C     0.08892   0.48535   0.04206   0.00000  Uiso   1.00
C238   C     0.23670   0.54715   0.46351   0.00000  Uiso   1.00
C239   C     0.04557   0.46968   0.01548   0.00000  Uiso   1.00
C240   C     0.27923   0.56292   0.49015   0.00000  Uiso   1.00
C241   C     0.18874   0.65620   0.25431   0.00000  Uiso   1.00
C242   C     0.14394   0.34375   0.24659   0.00000  Uiso   1.00
C243   C     0.12838   0.49664   0.33301   0.00000  Uiso   1.00
C244   C     0.20502   0.50527   0.16709   0.00000  Uiso   1.00
C245   C     0.10532   0.49343   0.38056   0.00000  Uiso   1.00
C246   C     0.22729   0.51666   0.12045   0.00000  Uiso   1.00
C247   C     0.02264   0.46490   0.44411   0.00000  Uiso   1.00
C248   C     0.30434   0.56271   0.06054   0.00000  Uiso   1.00
C249   C     0.04202   0.47238   0.39947   0.00000  Uiso   1.00
C250   C     0.28757   0.54690   0.10354   0.00000  Uiso   1.00
C251   C     0.14846   0.50924   0.40693   0.00000  Uiso   1.00
C252   C     0.18394   0.50260   0.09403   0.00000  Uiso   1.00
C253   C     0.13004   0.50341   0.45246   0.00000  Uiso   1.00
C254   C     0.19853   0.51993   0.05111   0.00000  Uiso   1.00
C255   C     0.06602   0.47942   0.47088   0.00000  Uiso   1.00
C256   C     0.26083   0.54888   0.03387   0.00000  Uiso   1.00
C257   C     0.17369   0.51941   0.47970   0.00000  Uiso   1.00
C258   C     0.15355   0.50778   0.02466   0.00000  Uiso   1.00
Cu259  Cu    0.10737   0.49441   0.24517   0.00000  Uiso   1.00
Cu260  Cu    0.22596   0.50559   0.25484   0.00000  Uiso   1.00
N261   N     0.31506   0.51401   0.26212   0.00000  Uiso   1.00
N262   N     0.01827   0.48599   0.23788   0.00000  Uiso   1.00
O263   O     0.12815   0.57142   0.24686   0.00000  Uiso   1.00
O264   O     0.20518   0.42858   0.25314   0.00000  Uiso   1.00
O265   O     0.22829   0.58086   0.25503   0.00000  Uiso   1.00
O266   O     0.10504   0.41914   0.24498   0.00000  Uiso   1.00
O267   O     0.08851   0.49263   0.30855   0.00000  Uiso   1.00
O268   O     0.24482   0.50737   0.19146   0.00000  Uiso   1.00
O269   O     0.18866   0.50207   0.31671   0.00000  Uiso   1.00
O270   O     0.14468   0.49793   0.18329   0.00000  Uiso   1.00
O271   O     0.31480   0.44891   0.03222   0.00000  Uiso   1.00
C272   C     0.30357   0.41247   0.06500   0.00000  Uiso   1.00
H273   H     0.30195   0.43430   0.09701   0.00000  Uiso   1.00
H274   H     0.00671   0.38831   0.05843   0.00000  Uiso   1.00
C275   C     0.23963   0.37489   0.06730   0.00000  Uiso   1.00
H276   H     0.23804   0.35428   0.03510   0.00000  Uiso   1.00
H277   H     0.23131   0.34491   0.09204   0.00000  Uiso   1.00
H278   H     0.20150   0.39713   0.07666   0.00000  Uiso   1.00
O279   O     0.00838   0.58539   0.47156   0.00000  Uiso   1.00
C280   C     0.01448   0.63949   0.46546   0.00000  Uiso   1.00
H281   H     0.00040   0.66061   0.49730   0.00000  Uiso   1.00
H282   H     0.31873   0.64519   0.44327   0.00000  Uiso   1.00
C283   C     0.08324   0.66391   0.44515   0.00000  Uiso   1.00
H284   H     0.11321   0.66042   0.46732   0.00000  Uiso   1.00
H285   H     0.08875   0.37305   0.43956   0.00000  Uiso   1.00
H286   H     0.09916   0.64327   0.41337   0.00000  Uiso   1.00
H287   H     0.13919   0.47695   0.10766   0.00000  Uiso   1.00
H288   H     0.19669   0.52462   0.39062   0.00000  Uiso   1.00
H289   H     0.32133   0.55899   0.12370   0.00000  Uiso   1.00
H290   H     0.00789   0.46002   0.37961   0.00000  Uiso   1.00
H291   H     0.30677   0.44708   0.45742   0.00000  Uiso   1.00
H292   H     0.01835   0.58562   0.04819   0.00000  Uiso   1.00
H293   H     0.07027   0.48198   0.07671   0.00000  Uiso   1.00
H294   H     0.25507   0.55816   0.43014   0.00000  Uiso   1.00
H295   H     0.23084   0.34704   0.26288   0.00000  Uiso   1.00
H296   H     0.10165   0.65290   0.23822   0.00000  Uiso   1.00
O297   O     0.33300   0.53380   0.29898   0.00000  Uiso   1.00
C298   C     0.31952   0.58428   0.30854   0.00000  Uiso   1.00
H299   H     0.26867   0.58113   0.32353   0.00000  Uiso   1.00
H300   H     0.00069   0.60819   0.27886   0.00000  Uiso   1.00
C301   C     0.02260   0.61333   0.34152   0.00000  Uiso   1.00
H302   H     0.07411   0.61905   0.32739   0.00000  Uiso   1.00
H303   H     0.01086   0.65263   0.35074   0.00000  Uiso   1.00
H304   H     0.01022   0.58995   0.37121   0.00000  Uiso   1.00
O305   O     0.33067   0.46097   0.20331   0.00000  Uiso   1.00
C306   C     0.01254   0.41091   0.19759   0.00000  Uiso   1.00
H307   H     0.00012   0.39142   0.22941   0.00000  Uiso   1.00
H308   H     0.06331   0.41464   0.18180   0.00000  Uiso   1.00
C309   C     0.30890   0.37472   0.16784   0.00000  Uiso   1.00
H310   H     0.26178   0.38359   0.17176   0.00000  Uiso   1.00
H311   H     0.00263   0.37941   0.13353   0.00000  Uiso   1.00
H312   H     0.30254   0.66607   0.17554   0.00000  Uiso   1.00
C313   C     0.51488   0.60008   0.25186   0.00000  Uiso   1.00
C314   C     0.48493   0.39991   0.24846   0.00000  Uiso   1.00
C315   C     0.42226   0.48535   0.04206   0.00000  Uiso   1.00
C316   C     0.57003   0.54715   0.46351   0.00000  Uiso   1.00
C317   C     0.37891   0.46968   0.01548   0.00000  Uiso   1.00
C318   C     0.61257   0.56292   0.49015   0.00000  Uiso   1.00
C319   C     0.52207   0.65620   0.25431   0.00000  Uiso   1.00
C320   C     0.47728   0.34375   0.24659   0.00000  Uiso   1.00
C321   C     0.46171   0.49664   0.33301   0.00000  Uiso   1.00
C322   C     0.53835   0.50527   0.16709   0.00000  Uiso   1.00
C323   C     0.43865   0.49343   0.38056   0.00000  Uiso   1.00
C324   C     0.56062   0.51666   0.12045   0.00000  Uiso   1.00
C325   C     0.35597   0.46490   0.44411   0.00000  Uiso   1.00
C326   C     0.63768   0.56271   0.06054   0.00000  Uiso   1.00
C327   C     0.37535   0.47238   0.39947   0.00000  Uiso   1.00
C328   C     0.62091   0.54690   0.10354   0.00000  Uiso   1.00
C329   C     0.48179   0.50924   0.40693   0.00000  Uiso   1.00
C330   C     0.51727   0.50260   0.09403   0.00000  Uiso   1.00
C331   C     0.46338   0.50341   0.45246   0.00000  Uiso   1.00
C332   C     0.53187   0.51993   0.05111   0.00000  Uiso   1.00
C333   C     0.39935   0.47942   0.47088   0.00000  Uiso   1.00
C334   C     0.59416   0.54888   0.03387   0.00000  Uiso   1.00
C335   C     0.50702   0.51941   0.47970   0.00000  Uiso   1.00
C336   C     0.48689   0.50778   0.02466   0.00000  Uiso   1.00
Cu337  Cu    0.44071   0.49441   0.24517   0.00000  Uiso   1.00
Cu338  Cu    0.55929   0.50559   0.25484   0.00000  Uiso   1.00
N339   N     0.64839   0.51401   0.26212   0.00000  Uiso   1.00
N340   N     0.35161   0.48599   0.23788   0.00000  Uiso   1.00
O341   O     0.46148   0.57142   0.24686   0.00000  Uiso   1.00
O342   O     0.53852   0.42858   0.25314   0.00000  Uiso   1.00
O343   O     0.56163   0.58086   0.25503   0.00000  Uiso   1.00
O344   O     0.43837   0.41914   0.24498   0.00000  Uiso   1.00
O345   O     0.42185   0.49263   0.30855   0.00000  Uiso   1.00
O346   O     0.57815   0.50737   0.19146   0.00000  Uiso   1.00
O347   O     0.52199   0.50207   0.31671   0.00000  Uiso   1.00
O348   O     0.47801   0.49793   0.18329   0.00000  Uiso   1.00
O349   O     0.64813   0.44891   0.03222   0.00000  Uiso   1.00
C350   C     0.63690   0.41247   0.06500   0.00000  Uiso   1.00
H351   H     0.63528   0.43430   0.09701   0.00000  Uiso   1.00
H352   H     0.34004   0.38831   0.05843   0.00000  Uiso   1.00
C353   C     0.57296   0.37489   0.06730   0.00000  Uiso   1.00
H354   H     0.57137   0.35428   0.03510   0.00000  Uiso   1.00
H355   H     0.56464   0.34491   0.09204   0.00000  Uiso   1.00
H356   H     0.53483   0.39713   0.07666   0.00000  Uiso   1.00
O357   O     0.34172   0.58539   0.47156   0.00000  Uiso   1.00
C358   C     0.34781   0.63949   0.46546   0.00000  Uiso   1.00
H359   H     0.33373   0.66061   0.49730   0.00000  Uiso   1.00
H360   H     0.65207   0.64519   0.44327   0.00000  Uiso   1.00
C361   C     0.41657   0.66391   0.44515   0.00000  Uiso   1.00
H362   H     0.44654   0.66042   0.46732   0.00000  Uiso   1.00
H363   H     0.42209   0.37305   0.43956   0.00000  Uiso   1.00
H364   H     0.43249   0.64327   0.41337   0.00000  Uiso   1.00
H365   H     0.47252   0.47695   0.10766   0.00000  Uiso   1.00
H366   H     0.53002   0.52462   0.39062   0.00000  Uiso   1.00
H367   H     0.65467   0.55899   0.12370   0.00000  Uiso   1.00
H368   H     0.34122   0.46002   0.37961   0.00000  Uiso   1.00
H369   H     0.64010   0.44708   0.45742   0.00000  Uiso   1.00
H370   H     0.35168   0.58562   0.04819   0.00000  Uiso   1.00
H371   H     0.40360   0.48198   0.07671   0.00000  Uiso   1.00
H372   H     0.58840   0.55816   0.43014   0.00000  Uiso   1.00
H373   H     0.56418   0.34704   0.26288   0.00000  Uiso   1.00
H374   H     0.43499   0.65290   0.23822   0.00000  Uiso   1.00
O375   O     0.66633   0.53380   0.29898   0.00000  Uiso   1.00
C376   C     0.65285   0.58428   0.30854   0.00000  Uiso   1.00
H377   H     0.60200   0.58113   0.32353   0.00000  Uiso   1.00
H378   H     0.33403   0.60819   0.27886   0.00000  Uiso   1.00
C379   C     0.35594   0.61333   0.34152   0.00000  Uiso   1.00
H380   H     0.40744   0.61905   0.32739   0.00000  Uiso   1.00
H381   H     0.34420   0.65263   0.35074   0.00000  Uiso   1.00
H382   H     0.34355   0.58995   0.37121   0.00000  Uiso   1.00
O383   O     0.66400   0.46097   0.20331   0.00000  Uiso   1.00
C384   C     0.34587   0.41091   0.19759   0.00000  Uiso   1.00
H385   H     0.33346   0.39142   0.22941   0.00000  Uiso   1.00
H386   H     0.39664   0.41464   0.18180   0.00000  Uiso   1.00
C387   C     0.64223   0.37472   0.16784   0.00000  Uiso   1.00
H388   H     0.59512   0.38359   0.17176   0.00000  Uiso   1.00
H389   H     0.33597   0.37941   0.13353   0.00000  Uiso   1.00
H390   H     0.63587   0.66607   0.17554   0.00000  Uiso   1.00
C391   C     0.84821   0.60008   0.25186   0.00000  Uiso   1.00
C392   C     0.81826   0.39991   0.24846   0.00000  Uiso   1.00
C393   C     0.75559   0.48535   0.04206   0.00000  Uiso   1.00
C394   C     0.90336   0.54715   0.46351   0.00000  Uiso   1.00
C395   C     0.71224   0.46968   0.01548   0.00000  Uiso   1.00
C396   C     0.94590   0.56292   0.49015   0.00000  Uiso   1.00
C397   C     0.85541   0.65620   0.25431   0.00000  Uiso   1.00
C398   C     0.81061   0.34375   0.24659   0.00000  Uiso   1.00
C399   C     0.79504   0.49664   0.33301   0.00000  Uiso   1.00
C400   C     0.87168   0.50527   0.16709   0.00000  Uiso   1.00
C401   C     0.77198   0.49343   0.38056   0.00000  Uiso   1.00
C402   C     0.89395   0.51666   0.12045   0.00000  Uiso   1.00
C403   C     0.68930   0.46490   0.44411   0.00000  Uiso   1.00
C404   C     0.97101   0.56271   0.06054   0.00000  Uiso   1.00
C405   C     0.70868   0.47238   0.39947   0.00000  Uiso   1.00
C406   C     0.95424   0.54690   0.10354   0.00000  Uiso   1.00
C407   C     0.81512   0.50924   0.40693   0.00000  Uiso   1.00
C408   C     0.85060   0.50260   0.09403   0.00000  Uiso   1.00
C409   C     0.79671   0.50341   0.45246   0.00000  Uiso   1.00
C410   C     0.86520   0.51993   0.05111   0.00000  Uiso   1.00
C411   C     0.73268   0.47942   0.47088   0.00000  Uiso   1.00
C412   C     0.92750   0.54888   0.03387   0.00000  Uiso   1.00
C413   C     0.84036   0.51941   0.47970   0.00000  Uiso   1.00
C414   C     0.82022   0.50778   0.02466   0.00000  Uiso   1.00
Cu415  Cu    0.77404   0.49441   0.24517   0.00000  Uiso   1.00
Cu416  Cu    0.89263   0.50559   0.25484   0.00000  Uiso   1.00
N417   N     0.98173   0.51401   0.26212   0.00000  Uiso   1.00
N418   N     0.68494   0.48599   0.23788   0.00000  Uiso   1.00
O419   O     0.79482   0.57142   0.24686   0.00000  Uiso   1.00
O420   O     0.87185   0.42858   0.25314   0.00000  Uiso   1.00
O421   O     0.89496   0.58086   0.25503   0.00000  Uiso   1.00
O422   O     0.77171   0.41914   0.24498   0.00000  Uiso   1.00
O423   O     0.75518   0.49263   0.30855   0.00000  Uiso   1.00
O424   O     0.91149   0.50737   0.19146   0.00000  Uiso   1.00
O425   O     0.85532   0.50207   0.31671   0.00000  Uiso   1.00
O426   O     0.81134   0.49793   0.18329   0.00000  Uiso   1.00
O427   O     0.98146   0.44891   0.03222   0.00000  Uiso   1.00
C428   C     0.97024   0.41247   0.06500   0.00000  Uiso   1.00
H429   H     0.96862   0.43430   0.09701   0.00000  Uiso   1.00
H430   H     0.67338   0.38831   0.05843   0.00000  Uiso   1.00
C431   C     0.90630   0.37489   0.06730   0.00000  Uiso   1.00
H432   H     0.90471   0.35428   0.03510   0.00000  Uiso   1.00
H433   H     0.89797   0.34491   0.09204   0.00000  Uiso   1.00
H434   H     0.86817   0.39713   0.07666   0.00000  Uiso   1.00
O435   O     0.67505   0.58539   0.47156   0.00000  Uiso   1.00
C436   C     0.68115   0.63949   0.46546   0.00000  Uiso   1.00
H437   H     0.66706   0.66061   0.49730   0.00000  Uiso   1.00
H438   H     0.98540   0.64519   0.44327   0.00000  Uiso   1.00
C439   C     0.74990   0.66391   0.44515   0.00000  Uiso   1.00
H440   H     0.77988   0.66042   0.46732   0.00000  Uiso   1.00
H441   H     0.75542   0.37305   0.43956   0.00000  Uiso   1.00
H442   H     0.76583   0.64327   0.41337   0.00000  Uiso   1.00
H443   H     0.80585   0.47695   0.10766   0.00000  Uiso   1.00
H444   H     0.86336   0.52462   0.39062   0.00000  Uiso   1.00
H445   H     0.98800   0.55899   0.12370   0.00000  Uiso   1.00
H446   H     0.67455   0.46002   0.37961   0.00000  Uiso   1.00
H447   H     0.97343   0.44708   0.45742   0.00000  Uiso   1.00
H448   H     0.68501   0.58562   0.04819   0.00000  Uiso   1.00
H449   H     0.73694   0.48198   0.07671   0.00000  Uiso   1.00
H450   H     0.92173   0.55816   0.43014   0.00000  Uiso   1.00
H451   H     0.89751   0.34704   0.26288   0.00000  Uiso   1.00
H452   H     0.76832   0.65290   0.23822   0.00000  Uiso   1.00
O453   O     0.99967   0.53380   0.29898   0.00000  Uiso   1.00
C454   C     0.98619   0.58428   0.30854   0.00000  Uiso   1.00
H455   H     0.93534   0.58113   0.32353   0.00000  Uiso   1.00
H456   H     0.66736   0.60819   0.27886   0.00000  Uiso   1.00
C457   C     0.68927   0.61333   0.34152   0.00000  Uiso   1.00
H458   H     0.74077   0.61905   0.32739   0.00000  Uiso   1.00
H459   H     0.67753   0.65263   0.35074   0.00000  Uiso   1.00
H460   H     0.67689   0.58995   0.37121   0.00000  Uiso   1.00
O461   O     0.99733   0.46097   0.20331   0.00000  Uiso   1.00
C462   C     0.67921   0.41091   0.19759   0.00000  Uiso   1.00
H463   H     0.66679   0.39142   0.22941   0.00000  Uiso   1.00
H464   H     0.72997   0.41464   0.18180   0.00000  Uiso   1.00
C465   C     0.97557   0.37472   0.16784   0.00000  Uiso   1.00
H466   H     0.92845   0.38359   0.17176   0.00000  Uiso   1.00
H467   H     0.66930   0.37941   0.13353   0.00000  Uiso   1.00
H468   H     0.96920   0.66607   0.17554   0.00000  Uiso   1.00
C469   C     0.18155   0.93341   0.25186   0.00000  Uiso   1.00
C470   C     0.15159   0.73324   0.24846   0.00000  Uiso   1.00
C471   C     0.08892   0.81868   0.04206   0.00000  Uiso   1.00
C472   C     0.23670   0.88049   0.46351   0.00000  Uiso   1.00
C473   C     0.04557   0.80301   0.01548   0.00000  Uiso   1.00
C474   C     0.27923   0.89625   0.49015   0.00000  Uiso   1.00
C475   C     0.18874   0.98953   0.25431   0.00000  Uiso   1.00
C476   C     0.14394   0.67709   0.24659   0.00000  Uiso   1.00
C477   C     0.12838   0.82997   0.33301   0.00000  Uiso   1.00
C478   C     0.20502   0.83861   0.16709   0.00000  Uiso   1.00
C479   C     0.10532   0.82676   0.38056   0.00000  Uiso   1.00
C480   C     0.22729   0.85000   0.12045   0.00000  Uiso   1.00
C481   C     0.02264   0.79823   0.44411   0.00000  Uiso   1.00
C482   C     0.30434   0.89604   0.06054   0.00000  Uiso   1.00
C483   C     0.04202   0.80571   0.39947   0.00000  Uiso   1.00
C484   C     0.28757   0.88023   0.10354   0.00000  Uiso   1.00
C485   C     0.14846   0.84257   0.40693   0.00000  Uiso   1.00
C486   C     0.18394   0.83593   0.09403   0.00000  Uiso   1.00
C487   C     0.13004   0.83674   0.45246   0.00000  Uiso   1.00
C488   C     0.19853   0.85326   0.05111   0.00000  Uiso   1.00
C489   C     0.06602   0.81275   0.47088   0.00000  Uiso   1.00
C490   C     0.26083   0.88222   0.03387   0.00000  Uiso   1.00
C491   C     0.17369   0.85275   0.47970   0.00000  Uiso   1.00
C492   C     0.15355   0.84112   0.02466   0.00000  Uiso   1.00
Cu493  Cu    0.10737   0.82775   0.24517   0.00000  Uiso   1.00
Cu494  Cu    0.22596   0.83892   0.25484   0.00000  Uiso   1.00
N495   N     0.31506   0.84735   0.26212   0.00000  Uiso   1.00
N496   N     0.01827   0.81932   0.23788   0.00000  Uiso   1.00
O497   O     0.12815   0.90476   0.24686   0.00000  Uiso   1.00
O498   O     0.20518   0.76191   0.25314   0.00000  Uiso   1.00
O499   O     0.22829   0.91420   0.25503   0.00000  Uiso   1.00
O500   O     0.10504   0.75247   0.24498   0.00000  Uiso   1.00
O501   O     0.08851   0.82597   0.30855   0.00000  Uiso   1.00
O502   O     0.24482   0.84070   0.19146   0.00000  Uiso   1.00
O503   O     0.18866   0.83540   0.31671   0.00000  Uiso   1.00
O504   O     0.14468   0.83126   0.18329   0.00000  Uiso   1.00
O505   O     0.31480   0.78224   0.03222   0.00000  Uiso   1.00
C506   C     0.30357   0.74580   0.06500   0.00000  Uiso   1.00
H507   H     0.30195   0.76763   0.09701   0.00000  Uiso   1.00
H508   H     0.00671   0.72164   0.05843   0.00000  Uiso   1.00
C509   C     0.23963   0.70822   0.06730   0.00000  Uiso   1.00
H510   H     0.23804   0.68762   0.03510   0.00000  Uiso   1.00
H511   H     0.23131   0.67824   0.09204   0.00000  Uiso   1.00
H512   H     0.20150   0.73047   0.07666   0.00000  Uiso   1.00
O513   O     0.00838   0.91873   0.47156   0.00000  Uiso   1.00
C514   C     0.01448   0.97283   0.46546   0.00000  Uiso   1.00
H515   H     0.00040   0.99394   0.49730   0.00000  Uiso   1.00
H516   H     0.31873   0.97853   0.44327   0.00000  Uiso   1.00
C517   C     0.08324   0.99724   0.44515   0.00000  Uiso   1.00
H518   H     0.11321   0.99375   0.46732   0.00000  Uiso   1.00
H519   H     0.08875   0.70639   0.43956   0.00000  Uiso   1.00
H520   H     0.09916   0.97661   0.41337   0.00000  Uiso   1.00
H521   H     0.13919   0.81029   0.10766   0.00000  Uiso   1.00
H522   H     0.19669   0.85795   0.39062   0.00000  Uiso   1.00
H523   H     0.32133   0.89233   0.12370   0.00000  Uiso   1.00
H524   H     0.00789   0.79335   0.37961   0.00000  Uiso   1.00
H525   H     0.30677   0.78041   0.45742   0.00000  Uiso   1.00
H526   H     0.01835   0.91896   0.04819   0.00000  Uiso   1.00
H527   H     0.07027   0.81532   0.07671   0.00000  Uiso   1.00
H528   H     0.25507   0.89149   0.43014   0.00000  Uiso   1.00
H529   H     0.23084   0.68037   0.26288   0.00000  Uiso   1.00
H530   H     0.10165   0.98623   0.23822   0.00000  Uiso   1.00
O531   O     0.33300   0.86713   0.29898   0.00000  Uiso   1.00
C532   C     0.31952   0.91761   0.30854   0.00000  Uiso   1.00
H533   H     0.26867   0.91447   0.32353   0.00000  Uiso   1.00
H534   H     0.00069   0.94152   0.27886   0.00000  Uiso   1.00
C535   C     0.02260   0.94666   0.34152   0.00000  Uiso   1.00
H536   H     0.07411   0.95239   0.32739   0.00000  Uiso   1.00
H537   H     0.01086   0.98596   0.35074   0.00000  Uiso   1.00
H538   H     0.01022   0.92328   0.37121   0.00000  Uiso   1.00
O539   O     0.33067   0.79430   0.20331   0.00000  Uiso   1.00
C540   C     0.01254   0.74424   0.19759   0.00000  Uiso   1.00
H541   H     0.00012   0.72475   0.22941   0.00000  Uiso   1.00
H542   H     0.06331   0.74797   0.18180   0.00000  Uiso   1.00
C543   C     0.30890   0.70805   0.16784   0.00000  Uiso   1.00
H544   H     0.26178   0.71692   0.17176   0.00000  Uiso   1.00
H545   H     0.00263   0.71274   0.13353   0.00000  Uiso   1.00
H546   H     0.30254   0.99940   0.17554   0.00000  Uiso   1.00
C547   C     0.51488   0.93341   0.25186   0.00000  Uiso   1.00
C548   C     0.48493   0.73324   0.24846   0.00000  Uiso   1.00
C549   C     0.42226   0.81868   0.04206   0.00000  Uiso   1.00
C550   C     0.57003   0.88049   0.46351   0.00000  Uiso   1.00
C551   C     0.37891   0.80301   0.01548   0.00000  Uiso   1.00
C552   C     0.61257   0.89625   0.49015   0.00000  Uiso   1.00
C553   C     0.52207   0.98953   0.25431   0.00000  Uiso   1.00
C554   C     0.47728   0.67709   0.24659   0.00000  Uiso   1.00
C555   C     0.46171   0.82997   0.33301   0.00000  Uiso   1.00
C556   C     0.53835   0.83861   0.16709   0.00000  Uiso   1.00
C557   C     0.43865   0.82676   0.38056   0.00000  Uiso   1.00
C558   C     0.56062   0.85000   0.12045   0.00000  Uiso   1.00
C559   C     0.35597   0.79823   0.44411   0.00000  Uiso   1.00
C560   C     0.63768   0.89604   0.06054   0.00000  Uiso   1.00
C561   C     0.37535   0.80571   0.39947   0.00000  Uiso   1.00
C562   C     0.62091   0.88023   0.10354   0.00000  Uiso   1.00
C563   C     0.48179   0.84257   0.40693   0.00000  Uiso   1.00
C564   C     0.51727   0.83593   0.09403   0.00000  Uiso   1.00
C565   C     0.46338   0.83674   0.45246   0.00000  Uiso   1.00
C566   C     0.53187   0.85326   0.05111   0.00000  Uiso   1.00
C567   C     0.39935   0.81275   0.47088   0.00000  Uiso   1.00
C568   C     0.59416   0.88222   0.03387   0.00000  Uiso   1.00
C569   C     0.50702   0.85275   0.47970   0.00000  Uiso   1.00
C570   C     0.48689   0.84112   0.02466   0.00000  Uiso   1.00
Cu571  Cu    0.44071   0.82775   0.24517   0.00000  Uiso   1.00
Cu572  Cu    0.55929   0.83892   0.25484   0.00000  Uiso   1.00
N573   N     0.64839   0.84735   0.26212   0.00000  Uiso   1.00
N574   N     0.35161   0.81932   0.23788   0.00000  Uiso   1.00
O575   O     0.46148   0.90476   0.24686   0.00000  Uiso   1.00
O576   O     0.53852   0.76191   0.25314   0.00000  Uiso   1.00
O577   O     0.56163   0.91420   0.25503   0.00000  Uiso   1.00
O578   O     0.43837   0.75247   0.24498   0.00000  Uiso   1.00
O579   O     0.42185   0.82597   0.30855   0.00000  Uiso   1.00
O580   O     0.57815   0.84070   0.19146   0.00000  Uiso   1.00
O581   O     0.52199   0.83540   0.31671   0.00000  Uiso   1.00
O582   O     0.47801   0.83126   0.18329   0.00000  Uiso   1.00
O583   O     0.64813   0.78224   0.03222   0.00000  Uiso   1.00
C584   C     0.63690   0.74580   0.06500   0.00000  Uiso   1.00
H585   H     0.63528   0.76763   0.09701   0.00000  Uiso   1.00
H586   H     0.34004   0.72164   0.05843   0.00000  Uiso   1.00
C587   C     0.57296   0.70822   0.06730   0.00000  Uiso   1.00
H588   H     0.57137   0.68762   0.03510   0.00000  Uiso   1.00
H589   H     0.56464   0.67824   0.09204   0.00000  Uiso   1.00
H590   H     0.53483   0.73047   0.07666   0.00000  Uiso   1.00
O591   O     0.34172   0.91873   0.47156   0.00000  Uiso   1.00
C592   C     0.34781   0.97283   0.46546   0.00000  Uiso   1.00
H593   H     0.33373   0.99394   0.49730   0.00000  Uiso   1.00
H594   H     0.65207   0.97853   0.44327   0.00000  Uiso   1.00
C595   C     0.41657   0.99724   0.44515   0.00000  Uiso   1.00
H596   H     0.44654   0.99375   0.46732   0.00000  Uiso   1.00
H597   H     0.42209   0.70639   0.43956   0.00000  Uiso   1.00
H598   H     0.43249   0.97661   0.41337   0.00000  Uiso   1.00
H599   H     0.47252   0.81029   0.10766   0.00000  Uiso   1.00
H600   H     0.53002   0.85795   0.39062   0.00000  Uiso   1.00
H601   H     0.65467   0.89233   0.12370   0.00000  Uiso   1.00
H602   H     0.34122   0.79335   0.37961   0.00000  Uiso   1.00
H603   H     0.64010   0.78041   0.45742   0.00000  Uiso   1.00
H604   H     0.35168   0.91896   0.04819   0.00000  Uiso   1.00
H605   H     0.40360   0.81532   0.07671   0.00000  Uiso   1.00
H606   H     0.58840   0.89149   0.43014   0.00000  Uiso   1.00
H607   H     0.56418   0.68037   0.26288   0.00000  Uiso   1.00
H608   H     0.43499   0.98623   0.23822   0.00000  Uiso   1.00
O609   O     0.66633   0.86713   0.29898   0.00000  Uiso   1.00
C610   C     0.65285   0.91761   0.30854   0.00000  Uiso   1.00
H611   H     0.60200   0.91447   0.32353   0.00000  Uiso   1.00
H612   H     0.33403   0.94152   0.27886   0.00000  Uiso   1.00
C613   C     0.35594   0.94666   0.34152   0.00000  Uiso   1.00
H614   H     0.40744   0.95239   0.32739   0.00000  Uiso   1.00
H615   H     0.34420   0.98596   0.35074   0.00000  Uiso   1.00
H616   H     0.34355   0.92328   0.37121   0.00000  Uiso   1.00
O617   O     0.66400   0.79430   0.20331   0.00000  Uiso   1.00
C618   C     0.34587   0.74424   0.19759   0.00000  Uiso   1.00
H619   H     0.33346   0.72475   0.22941   0.00000  Uiso   1.00
H620   H     0.39664   0.74797   0.18180   0.00000  Uiso   1.00
C621   C     0.64223   0.70805   0.16784   0.00000  Uiso   1.00
H622   H     0.59512   0.71692   0.17176   0.00000  Uiso   1.00
H623   H     0.33597   0.71274   0.13353   0.00000  Uiso   1.00
H624   H     0.63587   0.99940   0.17554   0.00000  Uiso   1.00
C625   C     0.84821   0.93341   0.25186   0.00000  Uiso   1.00
C626   C     0.81826   0.73324   0.24846   0.00000  Uiso   1.00
C627   C     0.75559   0.81868   0.04206   0.00000  Uiso   1.00
C628   C     0.90336   0.88049   0.46351   0.00000  Uiso   1.00
C629   C     0.71224   0.80301   0.01548   0.00000  Uiso   1.00
C630   C     0.94590   0.89625   0.49015   0.00000  Uiso   1.00
C631   C     0.85541   0.98953   0.25431   0.00000  Uiso   1.00
C632   C     0.81061   0.67709   0.24659   0.00000  Uiso   1.00
C633   C     0.79504   0.82997   0.33301   0.00000  Uiso   1.00
C634   C     0.87168   0.83861   0.16709   0.00000  Uiso   1.00
C635   C     0.77198   0.82676   0.38056   0.00000  Uiso   1.00
C636   C     0.89395   0.85000   0.12045   0.00000  Uiso   1.00
C637   C     0.68930   0.79823   0.44411   0.00000  Uiso   1.00
C638   C     0.97101   0.89604   0.06054   0.00000  Uiso   1.00
C639   C     0.70868   0.80571   0.39947   0.00000  Uiso   1.00
C640   C     0.95424   0.88023   0.10354   0.00000  Uiso   1.00
C641   C     0.81512   0.84257   0.40693   0.00000  Uiso   1.00
C642   C     0.85060   0.83593   0.09403   0.00000  Uiso   1.00
C643   C     0.79671   0.83674   0.45246   0.00000  Uiso   1.00
C644   C     0.86520   0.85326   0.05111   0.00000  Uiso   1.00
C645   C     0.73268   0.81275   0.47088   0.00000  Uiso   1.00
C646   C     0.92750   0.88222   0.03387   0.00000  Uiso   1.00
C647   C     0.84036   0.85275   0.47970   0.00000  Uiso   1.00
C648   C     0.82022   0.84112   0.02466   0.00000  Uiso   1.00
Cu649  Cu    0.77404   0.82775   0.24517   0.00000  Uiso   1.00
Cu650  Cu    0.89263   0.83892   0.25484   0.00000  Uiso   1.00
N651   N     0.98173   0.84735   0.26212   0.00000  Uiso   1.00
N652   N     0.68494   0.81932   0.23788   0.00000  Uiso   1.00
O653   O     0.79482   0.90476   0.24686   0.00000  Uiso   1.00
O654   O     0.87185   0.76191   0.25314   0.00000  Uiso   1.00
O655   O     0.89496   0.91420   0.25503   0.00000  Uiso   1.00
O656   O     0.77171   0.75247   0.24498   0.00000  Uiso   1.00
O657   O     0.75518   0.82597   0.30855   0.00000  Uiso   1.00
O658   O     0.91149   0.84070   0.19146   0.00000  Uiso   1.00
O659   O     0.85532   0.83540   0.31671   0.00000  Uiso   1.00
O660   O     0.81134   0.83126   0.18329   0.00000  Uiso   1.00
O661   O     0.98146   0.78224   0.03222   0.00000  Uiso   1.00
C662   C     0.97024   0.74580   0.06500   0.00000  Uiso   1.00
H663   H     0.96862   0.76763   0.09701   0.00000  Uiso   1.00
H664   H     0.67338   0.72164   0.05843   0.00000  Uiso   1.00
C665   C     0.90630   0.70822   0.06730   0.00000  Uiso   1.00
H666   H     0.90471   0.68762   0.03510   0.00000  Uiso   1.00
H667   H     0.89797   0.67824   0.09204   0.00000  Uiso   1.00
H668   H     0.86817   0.73047   0.07666   0.00000  Uiso   1.00
O669   O     0.67505   0.91873   0.47156   0.00000  Uiso   1.00
C670   C     0.68115   0.97283   0.46546   0.00000  Uiso   1.00
H671   H     0.66706   0.99394   0.49730   0.00000  Uiso   1.00
H672   H     0.98540   0.97853   0.44327   0.00000  Uiso   1.00
C673   C     0.74990   0.99724   0.44515   0.00000  Uiso   1.00
H674   H     0.77988   0.99375   0.46732   0.00000  Uiso   1.00
H675   H     0.75542   0.70639   0.43956   0.00000  Uiso   1.00
H676   H     0.76583   0.97661   0.41337   0.00000  Uiso   1.00
H677   H     0.80585   0.81029   0.10766   0.00000  Uiso   1.00
H678   H     0.86336   0.85795   0.39062   0.00000  Uiso   1.00
H679   H     0.98800   0.89233   0.12370   0.00000  Uiso   1.00
H680   H     0.67455   0.79335   0.37961   0.00000  Uiso   1.00
H681   H     0.97343   0.78041   0.45742   0.00000  Uiso   1.00
H682   H     0.68501   0.91896   0.04819   0.00000  Uiso   1.00
H683   H     0.73694   0.81532   0.07671   0.00000  Uiso   1.00
H684   H     0.92173   0.89149   0.43014   0.00000  Uiso   1.00
H685   H     0.89751   0.68037   0.26288   0.00000  Uiso   1.00
H686   H     0.76832   0.98623   0.23822   0.00000  Uiso   1.00
O687   O     0.99967   0.86713   0.29898   0.00000  Uiso   1.00
C688   C     0.98619   0.91761   0.30854   0.00000  Uiso   1.00
H689   H     0.93534   0.91447   0.32353   0.00000  Uiso   1.00
H690   H     0.66736   0.94152   0.27886   0.00000  Uiso   1.00
C691   C     0.68927   0.94666   0.34152   0.00000  Uiso   1.00
H692   H     0.74077   0.95239   0.32739   0.00000  Uiso   1.00
H693   H     0.67753   0.98596   0.35074   0.00000  Uiso   1.00
H694   H     0.67689   0.92328   0.37121   0.00000  Uiso   1.00
O695   O     0.99733   0.79430   0.20331   0.00000  Uiso   1.00
C696   C     0.67921   0.74424   0.19759   0.00000  Uiso   1.00
H697   H     0.66679   0.72475   0.22941   0.00000  Uiso   1.00
H698   H     0.72997   0.74797   0.18180   0.00000  Uiso   1.00
C699   C     0.97557   0.70805   0.16784   0.00000  Uiso   1.00
H700   H     0.92845   0.71692   0.17176   0.00000  Uiso   1.00
H701   H     0.66930   0.71274   0.13353   0.00000  Uiso   1.00
H702   H     0.96920   0.99940   0.17554   0.00000  Uiso   1.00
C703   C     0.18155   0.26675   0.75186   0.00000  Uiso   1.00
C704   C     0.15159   0.06657   0.74846   0.00000  Uiso   1.00
C705   C     0.08892   0.15202   0.54206   0.00000  Uiso   1.00
C706   C     0.23670   0.21382   0.96351   0.00000  Uiso   1.00
C707   C     0.04557   0.13635   0.51548   0.00000  Uiso   1.00
C708   C     0.27923   0.22959   0.99015   0.00000  Uiso   1.00
C709   C     0.18874   0.32286   0.75431   0.00000  Uiso   1.00
C710   C     0.14394   0.01042   0.74659   0.00000  Uiso   1.00
C711   C     0.12838   0.16330   0.83301   0.00000  Uiso   1.00
C712   C     0.20502   0.17194   0.66709   0.00000  Uiso   1.00
C713   C     0.10532   0.16010   0.88056   0.00000  Uiso   1.00
C714   C     0.22729   0.18333   0.62045   0.00000  Uiso   1.00
C715   C     0.02264   0.13156   0.94411   0.00000  Uiso   1.00
C716   C     0.30434   0.22937   0.56054   0.00000  Uiso   1.00
C717   C     0.04202   0.13904   0.89947   0.00000  Uiso   1.00
C718   C     0.28757   0.21357   0.60354   0.00000  Uiso   1.00
C719   C     0.14846   0.17591   0.90693   0.00000  Uiso   1.00
C720   C     0.18394   0.16926   0.59403   0.00000  Uiso   1.00
C721   C     0.13004   0.17007   0.95246   0.00000  Uiso   1.00
C722   C     0.19853   0.18659   0.55111   0.00000  Uiso   1.00
C723   C     0.06602   0.14608   0.97088   0.00000  Uiso   1.00
C724   C     0.26083   0.21555   0.53387   0.00000  Uiso   1.00
C725   C     0.17369   0.18608   0.97970   0.00000  Uiso   1.00
C726   C     0.15355   0.17445   0.52466   0.00000  Uiso   1.00
Cu727  Cu    0.10737   0.16108   0.74517   0.00000  Uiso   1.00
Cu728  Cu    0.22596   0.17225   0.75484   0.00000  Uiso   1.00
N729   N     0.31506   0.18068   0.76212   0.00000  Uiso   1.00
N730   N     0.01827   0.15265   0.73788   0.00000  Uiso   1.00
O731   O     0.12815   0.23809   0.74686   0.00000  Uiso   1.00
O732   O     0.20518   0.09524   0.75314   0.00000  Uiso   1.00
O733   O     0.22829   0.24753   0.75503   0.00000  Uiso   1.00
O734   O     0.10504   0.08580   0.74498   0.00000  Uiso   1.00
O735   O     0.08851   0.15930   0.80855   0.00000  Uiso   1.00
O736   O     0.24482   0.17403   0.69146   0.00000  Uiso   1.00
O737   O     0.18866   0.16874   0.81671   0.00000  Uiso   1.00
O738   O     0.14468   0.16460   0.68329   0.00000  Uiso   1.00
O739   O     0.31480   0.11558   0.53222   0.00000  Uiso   1.00
C740   C     0.30357   0.07914   0.56500   0.00000  Uiso   1.00
H741   H     0.30195   0.10097   0.59701   0.00000  Uiso   1.00
H742   H     0.00671   0.05498   0.55843   0.00000  Uiso   1.00
C743   C     0.23963   0.04156   0.56730   0.00000  Uiso   1.00
H744   H     0.23804   0.02095   0.53510   0.00000  Uiso   1.00
H745   H     0.23131   0.01157   0.59204   0.00000  Uiso   1.00
H746   H     0.20150   0.06380   0.57666   0.00000  Uiso   1.00
O747   O     0.00838   0.25206   0.97156   0.00000  Uiso   1.00
C748   C     0.01448   0.30616   0.96546   0.00000  Uiso   1.00
H749   H     0.00040   0.32727   0.99730   0.00000  Uiso   1.00
H750   H     0.31873   0.31186   0.94327   0.00000  Uiso   1.00
C751   C     0.08324   0.33058   0.94515   0.00000  Uiso   1.00
H752   H     0.11321   0.32709   0.96732   0.00000  Uiso   1.00
H753   H     0.08875   0.03972   0.93956   0.00000  Uiso   1.00
H754   H     0.09916   0.30994   0.91337   0.00000  Uiso   1.00
H755   H     0.13919   0.14362   0.60766   0.00000  Uiso   1.00
H756   H     0.19669   0.19129   0.89062   0.00000  Uiso   1.00
H757   H     0.32133   0.22566   0.62370   0.00000  Uiso   1.00
H758   H     0.00789   0.12668   0.87961   0.00000  Uiso   1.00
H759   H     0.30677   0.11375   0.95742   0.00000  Uiso   1.00
H760   H     0.01835   0.25229   0.54819   0.00000  Uiso   1.00
H761   H     0.07027   0.14865   0.57671   0.00000  Uiso   1.00
H762   H     0.25507   0.22483   0.93014   0.00000  Uiso   1.00
H763   H     0.23084   0.01371   0.76288   0.00000  Uiso   1.00
H764   H     0.10165   0.31957   0.73822   0.00000  Uiso   1.00
O765   O     0.33300   0.20047   0.79898   0.00000  Uiso   1.00
C766   C     0.31952   0.25094   0.80854   0.00000  Uiso   1.00
H767   H     0.26867   0.24780   0.82353   0.00000  Uiso   1.00
H768   H     0.00069   0.27485   0.77886   0.00000  Uiso   1.00
C769   C     0.02260   0.27999   0.84152   0.00000  Uiso   1.00
H770   H     0.07411   0.28572   0.82739   0.00000  Uiso   1.00
H771   H     0.01086   0.31930   0.85074   0.00000  Uiso   1.00
H772   H     0.01022   0.25661   0.87121   0.00000  Uiso   1.00
O773   O     0.33067   0.12764   0.70331   0.00000  Uiso   1.00
C774   C     0.01254   0.07758   0.69759   0.00000  Uiso   1.00
H775   H     0.00012   0.05809   0.72941   0.00000  Uiso   1.00
H776   H     0.06331   0.08131   0.68180   0.00000  Uiso   1.00
C777   C     0.30890   0.04139   0.66784   0.00000  Uiso   1.00
H778   H     0.26178   0.05025   0.67176   0.00000  Uiso   1.00
H779   H     0.00263   0.04607   0.63353   0.00000  Uiso   1.00
H780   H     0.30254   0.33274   0.67554   0.00000  Uiso   1.00
C781   C     0.51488   0.26675   0.75186   0.00000  Uiso   1.00
C782   C     0.48493   0.06657   0.74846   0.00000  Uiso   1.00
C783   C     0.42226   0.15202   0.54206   0.00000  Uiso   1.00
C784   C     0.57003   0.21382   0.96351   0.00000  Uiso   1.00
C785   C     0.37891   0.13635   0.51548   0.00000  Uiso   1.00
C786   C     0.61257   0.22959   0.99015   0.00000  Uiso   1.00
C787   C     0.52207   0.32286   0.75431   0.00000  Uiso   1.00
C788   C     0.47728   0.01042   0.74659   0.00000  Uiso   1.00
C789   C     0.46171   0.16330   0.83301   0.00000  Uiso   1.00
C790   C     0.53835   0.17194   0.66709   0.00000  Uiso   1.00
C791   C     0.43865   0.16010   0.88056   0.00000  Uiso   1.00
C792   C     0.56062   0.18333   0.62045   0.00000  Uiso   1.00
C793   C     0.35597   0.13156   0.94411   0.00000  Uiso   1.00
C794   C     0.63768   0.22937   0.56054   0.00000  Uiso   1.00
C795   C     0.37535   0.13904   0.89947   0.00000  Uiso   1.00
C796   C     0.62091   0.21357   0.60354   0.00000  Uiso   1.00
C797   C     0.48179   0.17591   0.90693   0.00000  Uiso   1.00
C798   C     0.51727   0.16926   0.59403   0.00000  Uiso   1.00
C799   C     0.46338   0.17007   0.95246   0.00000  Uiso   1.00
C800   C     0.53187   0.18659   0.55111   0.00000  Uiso   1.00
C801   C     0.39935   0.14608   0.97088   0.00000  Uiso   1.00
C802   C     0.59416   0.21555   0.53387   0.00000  Uiso   1.00
C803   C     0.50702   0.18608   0.97970   0.00000  Uiso   1.00
C804   C     0.48689   0.17445   0.52466   0.00000  Uiso   1.00
Cu805  Cu    0.44071   0.16108   0.74517   0.00000  Uiso   1.00
Cu806  Cu    0.55929   0.17225   0.75484   0.00000  Uiso   1.00
N807   N     0.64839   0.18068   0.76212   0.00000  Uiso   1.00
N808   N     0.35161   0.15265   0.73788   0.00000  Uiso   1.00
O809   O     0.46148   0.23809   0.74686   0.00000  Uiso   1.00
O810   O     0.53852   0.09524   0.75314   0.00000  Uiso   1.00
O811   O     0.56163   0.24753   0.75503   0.00000  Uiso   1.00
O812   O     0.43837   0.08580   0.74498   0.00000  Uiso   1.00
O813   O     0.42185   0.15930   0.80855   0.00000  Uiso   1.00
O814   O     0.57815   0.17403   0.69146   0.00000  Uiso   1.00
O815   O     0.52199   0.16874   0.81671   0.00000  Uiso   1.00
O816   O     0.47801   0.16460   0.68329   0.00000  Uiso   1.00
O817   O     0.64813   0.11558   0.53222   0.00000  Uiso   1.00
C818   C     0.63690   0.07914   0.56500   0.00000  Uiso   1.00
H819   H     0.63528   0.10097   0.59701   0.00000  Uiso   1.00
H820   H     0.34004   0.05498   0.55843   0.00000  Uiso   1.00
C821   C     0.57296   0.04156   0.56730   0.00000  Uiso   1.00
H822   H     0.57137   0.02095   0.53510   0.00000  Uiso   1.00
H823   H     0.56464   0.01157   0.59204   0.00000  Uiso   1.00
H824   H     0.53483   0.06380   0.57666   0.00000  Uiso   1.00
O825   O     0.34172   0.25206   0.97156   0.00000  Uiso   1.00
C826   C     0.34781   0.30616   0.96546   0.00000  Uiso   1.00
H827   H     0.33373   0.32727   0.99730   0.00000  Uiso   1.00
H828   H     0.65207   0.31186   0.94327   0.00000  Uiso   1.00
C829   C     0.41657   0.33058   0.94515   0.00000  Uiso   1.00
H830   H     0.44654   0.32709   0.96732   0.00000  Uiso   1.00
H831   H     0.42209   0.03972   0.93956   0.00000  Uiso   1.00
H832   H     0.43249   0.30994   0.91337   0.00000  Uiso   1.00
H833   H     0.47252   0.14362   0.60766   0.00000  Uiso   1.00
H834   H     0.53002   0.19129   0.89062   0.00000  Uiso   1.00
H835   H     0.65467   0.22566   0.62370   0.00000  Uiso   1.00
H836   H     0.34122   0.12668   0.87961   0.00000  Uiso   1.00
H837   H     0.64010   0.11375   0.95742   0.00000  Uiso   1.00
H838   H     0.35168   0.25229   0.54819   0.00000  Uiso   1.00
H839   H     0.40360   0.14865   0.57671   0.00000  Uiso   1.00
H840   H     0.58840   0.22483   0.93014   0.00000  Uiso   1.00
H841   H     0.56418   0.01371   0.76288   0.00000  Uiso   1.00
H842   H     0.43499   0.31957   0.73822   0.00000  Uiso   1.00
O843   O     0.66633   0.20047   0.79898   0.00000  Uiso   1.00
C844   C     0.65285   0.25094   0.80854   0.00000  Uiso   1.00
H845   H     0.60200   0.24780   0.82353   0.00000  Uiso   1.00
H846   H     0.33403   0.27485   0.77886   0.00000  Uiso   1.00
C847   C     0.35594   0.27999   0.84152   0.00000  Uiso   1.00
H848   H     0.40744   0.28572   0.82739   0.00000  Uiso   1.00
H849   H     0.34420   0.31930   0.85074   0.00000  Uiso   1.00
H850   H     0.34355   0.25661   0.87121   0.00000  Uiso   1.00
O851   O     0.66400   0.12764   0.70331   0.00000  Uiso   1.00
C852   C     0.34587   0.07758   0.69759   0.00000  Uiso   1.00
H853   H     0.33346   0.05809   0.72941   0.00000  Uiso   1.00
H854   H     0.39664   0.08131   0.68180   0.00000  Uiso   1.00
C855   C     0.64223   0.04139   0.66784   0.00000  Uiso   1.00
H856   H     0.59512   0.05025   0.67176   0.00000  Uiso   1.00
H857   H     0.33597   0.04607   0.63353   0.00000  Uiso   1.00
H858   H     0.63587   0.33274   0.67554   0.00000  Uiso   1.00
C859   C     0.84821   0.26675   0.75186   0.00000  Uiso   1.00
C860   C     0.81826   0.06657   0.74846   0.00000  Uiso   1.00
C861   C     0.75559   0.15202   0.54206   0.00000  Uiso   1.00
C862   C     0.90336   0.21382   0.96351   0.00000  Uiso   1.00
C863   C     0.71224   0.13635   0.51548   0.00000  Uiso   1.00
C864   C     0.94590   0.22959   0.99015   0.00000  Uiso   1.00
C865   C     0.85541   0.32286   0.75431   0.00000  Uiso   1.00
C866   C     0.81061   0.01042   0.74659   0.00000  Uiso   1.00
C867   C     0.79504   0.16330   0.83301   0.00000  Uiso   1.00
C868   C     0.87168   0.17194   0.66709   0.00000  Uiso   1.00
C869   C     0.77198   0.16010   0.88056   0.00000  Uiso   1.00
C870   C     0.89395   0.18333   0.62045   0.00000  Uiso   1.00
C871   C     0.68930   0.13156   0.94411   0.00000  Uiso   1.00
C872   C     0.97101   0.22937   0.56054   0.00000  Uiso   1.00
C873   C     0.70868   0.13904   0.89947   0.00000  Uiso   1.00
C874   C     0.95424   0.21357   0.60354   0.00000  Uiso   1.00
C875   C     0.81512   0.17591   0.90693   0.00000  Uiso   1.00
C876   C     0.85060   0.16926   0.59403   0.00000  Uiso   1.00
C877   C     0.79671   0.17007   0.95246   0.00000  Uiso   1.00
C878   C     0.86520   0.18659   0.55111   0.00000  Uiso   1.00
C879   C     0.73268   0.14608   0.97088   0.00000  Uiso   1.00
C880   C     0.92750   0.21555   0.53387   0.00000  Uiso   1.00
C881   C     0.84036   0.18608   0.97970   0.00000  Uiso   1.00
C882   C     0.82022   0.17445   0.52466   0.00000  Uiso   1.00
Cu883  Cu    0.77404   0.16108   0.74517   0.00000  Uiso   1.00
Cu884  Cu    0.89263   0.17225   0.75484   0.00000  Uiso   1.00
N885   N     0.98173   0.18068   0.76212   0.00000  Uiso   1.00
N886   N     0.68494   0.15265   0.73788   0.00000  Uiso   1.00
O887   O     0.79482   0.23809   0.74686   0.00000  Uiso   1.00
O888   O     0.87185   0.09524   0.75314   0.00000  Uiso   1.00
O889   O     0.89496   0.24753   0.75503   0.00000  Uiso   1.00
O890   O     0.77171   0.08580   0.74498   0.00000  Uiso   1.00
O891   O     0.75518   0.15930   0.80855   0.00000  Uiso   1.00
O892   O     0.91149   0.17403   0.69146   0.00000  Uiso   1.00
O893   O     0.85532   0.16874   0.81671   0.00000  Uiso   1.00
O894   O     0.81134   0.16460   0.68329   0.00000  Uiso   1.00
O895   O     0.98146   0.11558   0.53222   0.00000  Uiso   1.00
C896   C     0.97024   0.07914   0.56500   0.00000  Uiso   1.00
H897   H     0.96862   0.10097   0.59701   0.00000  Uiso   1.00
H898   H     0.67338   0.05498   0.55843   0.00000  Uiso   1.00
C899   C     0.90630   0.04156   0.56730   0.00000  Uiso   1.00
H900   H     0.90471   0.02095   0.53510   0.00000  Uiso   1.00
H901   H     0.89797   0.01157   0.59204   0.00000  Uiso   1.00
H902   H     0.86817   0.06380   0.57666   0.00000  Uiso   1.00
O903   O     0.67505   0.25206   0.97156   0.00000  Uiso   1.00
C904   C     0.68115   0.30616   0.96546   0.00000  Uiso   1.00
H905   H     0.66706   0.32727   0.99730   0.00000  Uiso   1.00
H906   H     0.98540   0.31186   0.94327   0.00000  Uiso   1.00
C907   C     0.74990   0.33058   0.94515   0.00000  Uiso   1.00
H908   H     0.77988   0.32709   0.96732   0.00000  Uiso   1.00
H909   H     0.75542   0.03972   0.93956   0.00000  Uiso   1.00
H910   H     0.76583   0.30994   0.91337   0.00000  Uiso   1.00
H911   H     0.80585   0.14362   0.60766   0.00000  Uiso   1.00
H912   H     0.86336   0.19129   0.89062   0.00000  Uiso   1.00
H913   H     0.98800   0.22566   0.62370   0.00000  Uiso   1.00
H914   H     0.67455   0.12668   0.87961   0.00000  Uiso   1.00
H915   H     0.97343   0.11375   0.95742   0.00000  Uiso   1.00
H916   H     0.68501   0.25229   0.54819   0.00000  Uiso   1.00
H917   H     0.73694   0.14865   0.57671   0.00000  Uiso   1.00
H918   H     0.92173   0.22483   0.93014   0.00000  Uiso   1.00
H919   H     0.89751   0.01371   0.76288   0.00000  Uiso   1.00
H920   H     0.76832   0.31957   0.73822   0.00000  Uiso   1.00
O921   O     0.99967   0.20047   0.79898   0.00000  Uiso   1.00
C922   C     0.98619   0.25094   0.80854   0.00000  Uiso   1.00
H923   H     0.93534   0.24780   0.82353   0.00000  Uiso   1.00
H924   H     0.66736   0.27485   0.77886   0.00000  Uiso   1.00
C925   C     0.68927   0.27999   0.84152   0.00000  Uiso   1.00
H926   H     0.74077   0.28572   0.82739   0.00000  Uiso   1.00
H927   H     0.67753   0.31930   0.85074   0.00000  Uiso   1.00
H928   H     0.67689   0.25661   0.87121   0.00000  Uiso   1.00
O929   O     0.99733   0.12764   0.70331   0.00000  Uiso   1.00
C930   C     0.67921   0.07758   0.69759   0.00000  Uiso   1.00
H931   H     0.66679   0.05809   0.72941   0.00000  Uiso   1.00
H932   H     0.72997   0.08131   0.68180   0.00000  Uiso   1.00
C933   C     0.97557   0.04139   0.66784   0.00000  Uiso   1.00
H934   H     0.92845   0.05025   0.67176   0.00000  Uiso   1.00
H935   H     0.66930   0.04607   0.63353   0.00000  Uiso   1.00
H936   H     0.96920   0.33274   0.67554   0.00000  Uiso   1.00
C937   C     0.18155   0.60008   0.75186   0.00000  Uiso   1.00
C938   C     0.15159   0.39991   0.74846   0.00000  Uiso   1.00
C939   C     0.08892   0.48535   0.54206   0.00000  Uiso   1.00
C940   C     0.23670   0.54715   0.96351   0.00000  Uiso   1.00
C941   C     0.04557   0.46968   0.51548   0.00000  Uiso   1.00
C942   C     0.27923   0.56292   0.99015   0.00000  Uiso   1.00
C943   C     0.18874   0.65620   0.75431   0.00000  Uiso   1.00
C944   C     0.14394   0.34375   0.74659   0.00000  Uiso   1.00
C945   C     0.12838   0.49664   0.83301   0.00000  Uiso   1.00
C946   C     0.20502   0.50527   0.66709   0.00000  Uiso   1.00
C947   C     0.10532   0.49343   0.88056   0.00000  Uiso   1.00
C948   C     0.22729   0.51666   0.62045   0.00000  Uiso   1.00
C949   C     0.02264   0.46490   0.94411   0.00000  Uiso   1.00
C950   C     0.30434   0.56271   0.56054   0.00000  Uiso   1.00
C951   C     0.04202   0.47238   0.89947   0.00000  Uiso   1.00
C952   C     0.28757   0.54690   0.60354   0.00000  Uiso   1.00
C953   C     0.14846   0.50924   0.90693   0.00000  Uiso   1.00
C954   C     0.18394   0.50260   0.59403   0.00000  Uiso   1.00
C955   C     0.13004   0.50341   0.95246   0.00000  Uiso   1.00
C956   C     0.19853   0.51993   0.55111   0.00000  Uiso   1.00
C957   C     0.06602   0.47942   0.97088   0.00000  Uiso   1.00
C958   C     0.26083   0.54888   0.53387   0.00000  Uiso   1.00
C959   C     0.17369   0.51941   0.97970   0.00000  Uiso   1.00
C960   C     0.15355   0.50778   0.52466   0.00000  Uiso   1.00
Cu961  Cu    0.10737   0.49441   0.74517   0.00000  Uiso   1.00
Cu962  Cu    0.22596   0.50559   0.75484   0.00000  Uiso   1.00
N963   N     0.31506   0.51401   0.76212   0.00000  Uiso   1.00
N964   N     0.01827   0.48599   0.73788   0.00000  Uiso   1.00
O965   O     0.12815   0.57142   0.74686   0.00000  Uiso   1.00
O966   O     0.20518   0.42858   0.75314   0.00000  Uiso   1.00
O967   O     0.22829   0.58086   0.75503   0.00000  Uiso   1.00
O968   O     0.10504   0.41914   0.74498   0.00000  Uiso   1.00
O969   O     0.08851   0.49263   0.80855   0.00000  Uiso   1.00
O970   O     0.24482   0.50737   0.69146   0.00000  Uiso   1.00
O971   O     0.18866   0.50207   0.81671   0.00000  Uiso   1.00
O972   O     0.14468   0.49793   0.68329   0.00000  Uiso   1.00
O973   O     0.31480   0.44891   0.53222   0.00000  Uiso   1.00
C974   C     0.30357   0.41247   0.56500   0.00000  Uiso   1.00
H975   H     0.30195   0.43430   0.59701   0.00000  Uiso   1.00
H976   H     0.00671   0.38831   0.55843   0.00000  Uiso   1.00
C977   C     0.23963   0.37489   0.56730   0.00000  Uiso   1.00
H978   H     0.23804   0.35428   0.53510   0.00000  Uiso   1.00
H979   H     0.23131   0.34491   0.59204   0.00000  Uiso   1.00
H980   H     0.20150   0.39713   0.57666   0.00000  Uiso   1.00
O981   O     0.00838   0.58539   0.97156   0.00000  Uiso   1.00
C982   C     0.01448   0.63949   0.96546   0.00000  Uiso   1.00
H983   H     0.00040   0.66061   0.99730   0.00000  Uiso   1.00
H984   H     0.31873   0.64519   0.94327   0.00000  Uiso   1.00
C985   C     0.08324   0.66391   0.94515   0.00000  Uiso   1.00
H986   H     0.11321   0.66042   0.96732   0.00000  Uiso   1.00
H987   H     0.08875   0.37305   0.93956   0.00000  Uiso   1.00
H988   H     0.09916   0.64327   0.91337   0.00000  Uiso   1.00
H989   H     0.13919   0.47695   0.60766   0.00000  Uiso   1.00
H990   H     0.19669   0.52462   0.89062   0.00000  Uiso   1.00
H991   H     0.32133   0.55899   0.62370   0.00000  Uiso   1.00
H992   H     0.00789   0.46002   0.87961   0.00000  Uiso   1.00
H993   H     0.30677   0.44708   0.95742   0.00000  Uiso   1.00
H994   H     0.01835   0.58562   0.54819   0.00000  Uiso   1.00
H995   H     0.07027   0.48198   0.57671   0.00000  Uiso   1.00
H996   H     0.25507   0.55816   0.93014   0.00000  Uiso   1.00
H997   H     0.23084   0.34704   0.76288   0.00000  Uiso   1.00
H998   H     0.10165   0.65290   0.73822   0.00000  Uiso   1.00
O999   O     0.33300   0.53380   0.79898   0.00000  Uiso   1.00
C1000  C     0.31952   0.58428   0.80854   0.00000  Uiso   1.00
H1001  H     0.26867   0.58113   0.82353   0.00000  Uiso   1.00
H1002  H     0.00069   0.60819   0.77886   0.00000  Uiso   1.00
C1003  C     0.02260   0.61333   0.84152   0.00000  Uiso   1.00
H1004  H     0.07411   0.61905   0.82739   0.00000  Uiso   1.00
H1005  H     0.01086   0.65263   0.85074   0.00000  Uiso   1.00
H1006  H     0.01022   0.58995   0.87121   0.00000  Uiso   1.00
O1007  O     0.33067   0.46097   0.70331   0.00000  Uiso   1.00
C1008  C     0.01254   0.41091   0.69759   0.00000  Uiso   1.00
H1009  H     0.00012   0.39142   0.72941   0.00000  Uiso   1.00
H1010  H     0.06331   0.41464   0.68180   0.00000  Uiso   1.00
C1011  C     0.30890   0.37472   0.66784   0.00000  Uiso   1.00
H1012  H     0.26178   0.38359   0.67176   0.00000  Uiso   1.00
H1013  H     0.00263   0.37941   0.63353   0.00000  Uiso   1.00
H1014  H     0.30254   0.66607   0.67554   0.00000  Uiso   1.00
C1015  C     0.51488   0.60008   0.75186   0.00000  Uiso   1.00
C1016  C     0.48493   0.39991   0.74846   0.00000  Uiso   1.00
C1017  C     0.42226   0.48535   0.54206   0.00000  Uiso   1.00
C1018  C     0.57003   0.54715   0.96351   0.00000  Uiso   1.00
C1019  C     0.37891   0.46968   0.51548   0.00000  Uiso   1.00
C1020  C     0.61257   0.56292   0.99015   0.00000  Uiso   1.00
C1021  C     0.52207   0.65620   0.75431   0.00000  Uiso   1.00
C1022  C     0.47728   0.34375   0.74659   0.00000  Uiso   1.00
C1023  C     0.46171   0.49664   0.83301   0.00000  Uiso   1.00
C1024  C     0.53835   0.50527   0.66709   0.00000  Uiso   1.00
C1025  C     0.43865   0.49343   0.88056   0.00000  Uiso   1.00
C1026  C     0.56062   0.51666   0.62045   0.00000  Uiso   1.00
C1027  C     0.35597   0.46490   0.94411   0.00000  Uiso   1.00
C1028  C     0.63768   0.56271   0.56054   0.00000  Uiso   1.00
C1029  C     0.37535   0.47238   0.89947   0.00000  Uiso   1.00
C1030  C     0.62091   0.54690   0.60354   0.00000  Uiso   1.00
C1031  C     0.48179   0.50924   0.90693   0.00000  Uiso   1.00
C1032  C     0.51727   0.50260   0.59403   0.00000  Uiso   1.00
C1033  C     0.46338   0.50341   0.95246   0.00000  Uiso   1.00
C1034  C     0.53187   0.51993   0.55111   0.00000  Uiso   1.00
C1035  C     0.39935   0.47942   0.97088   0.00000  Uiso   1.00
C1036  C     0.59416   0.54888   0.53387   0.00000  Uiso   1.00
C1037  C     0.50702   0.51941   0.97970   0.00000  Uiso   1.00
C1038  C     0.48689   0.50778   0.52466   0.00000  Uiso   1.00
Cu1039 Cu    0.44071   0.49441   0.74517   0.00000  Uiso   1.00
Cu1040 Cu    0.55929   0.50559   0.75484   0.00000  Uiso   1.00
N1041  N     0.64839   0.51401   0.76212   0.00000  Uiso   1.00
N1042  N     0.35161   0.48599   0.73788   0.00000  Uiso   1.00
O1043  O     0.46148   0.57142   0.74686   0.00000  Uiso   1.00
O1044  O     0.53852   0.42858   0.75314   0.00000  Uiso   1.00
O1045  O     0.56163   0.58086   0.75503   0.00000  Uiso   1.00
O1046  O     0.43837   0.41914   0.74498   0.00000  Uiso   1.00
O1047  O     0.42185   0.49263   0.80855   0.00000  Uiso   1.00
O1048  O     0.57815   0.50737   0.69146   0.00000  Uiso   1.00
O1049  O     0.52199   0.50207   0.81671   0.00000  Uiso   1.00
O1050  O     0.47801   0.49793   0.68329   0.00000  Uiso   1.00
O1051  O     0.64813   0.44891   0.53222   0.00000  Uiso   1.00
C1052  C     0.63690   0.41247   0.56500   0.00000  Uiso   1.00
H1053  H     0.63528   0.43430   0.59701   0.00000  Uiso   1.00
H1054  H     0.34004   0.38831   0.55843   0.00000  Uiso   1.00
C1055  C     0.57296   0.37489   0.56730   0.00000  Uiso   1.00
H1056  H     0.57137   0.35428   0.53510   0.00000  Uiso   1.00
H1057  H     0.56464   0.34491   0.59204   0.00000  Uiso   1.00
H1058  H     0.53483   0.39713   0.57666   0.00000  Uiso   1.00
O1059  O     0.34172   0.58539   0.97156   0.00000  Uiso   1.00
C1060  C     0.34781   0.63949   0.96546   0.00000  Uiso   1.00
H1061  H     0.33373   0.66061   0.99730   0.00000  Uiso   1.00
H1062  H     0.65207   0.64519   0.94327   0.00000  Uiso   1.00
C1063  C     0.41657   0.66391   0.94515   0.00000  Uiso   1.00
H1064  H     0.44654   0.66042   0.96732   0.00000  Uiso   1.00
H1065  H     0.42209   0.37305   0.93956   0.00000  Uiso   1.00
H1066  H     0.43249   0.64327   0.91337   0.00000  Uiso   1.00
H1067  H     0.47252   0.47695   0.60766   0.00000  Uiso   1.00
H1068  H     0.53002   0.52462   0.89062   0.00000  Uiso   1.00
H1069  H     0.65467   0.55899   0.62370   0.00000  Uiso   1.00
H1070  H     0.34122   0.46002   0.87961   0.00000  Uiso   1.00
H1071  H     0.64010   0.44708   0.95742   0.00000  Uiso   1.00
H1072  H     0.35168   0.58562   0.54819   0.00000  Uiso   1.00
H1073  H     0.40360   0.48198   0.57671   0.00000  Uiso   1.00
H1074  H     0.58840   0.55816   0.93014   0.00000  Uiso   1.00
H1075  H     0.56418   0.34704   0.76288   0.00000  Uiso   1.00
H1076  H     0.43499   0.65290   0.73822   0.00000  Uiso   1.00
O1077  O     0.66633   0.53380   0.79898   0.00000  Uiso   1.00
C1078  C     0.65285   0.58428   0.80854   0.00000  Uiso   1.00
H1079  H     0.60200   0.58113   0.82353   0.00000  Uiso   1.00
H1080  H     0.33403   0.60819   0.77886   0.00000  Uiso   1.00
C1081  C     0.35594   0.61333   0.84152   0.00000  Uiso   1.00
H1082  H     0.40744   0.61905   0.82739   0.00000  Uiso   1.00
H1083  H     0.34420   0.65263   0.85074   0.00000  Uiso   1.00
H1084  H     0.34355   0.58995   0.87121   0.00000  Uiso   1.00
O1085  O     0.66400   0.46097   0.70331   0.00000  Uiso   1.00
C1086  C     0.34587   0.41091   0.69759   0.00000  Uiso   1.00
H1087  H     0.33346   0.39142   0.72941   0.00000  Uiso   1.00
H1088  H     0.39664   0.41464   0.68180   0.00000  Uiso   1.00
C1089  C     0.64223   0.37472   0.66784   0.00000  Uiso   1.00
H1090  H     0.59512   0.38359   0.67176   0.00000  Uiso   1.00
H1091  H     0.33597   0.37941   0.63353   0.00000  Uiso   1.00
H1092  H     0.63587   0.66607   0.67554   0.00000  Uiso   1.00
C1093  C     0.84821   0.60008   0.75186   0.00000  Uiso   1.00
C1094  C     0.81826   0.39991   0.74846   0.00000  Uiso   1.00
C1095  C     0.75559   0.48535   0.54206   0.00000  Uiso   1.00
C1096  C     0.90336   0.54715   0.96351   0.00000  Uiso   1.00
C1097  C     0.71224   0.46968   0.51548   0.00000  Uiso   1.00
C1098  C     0.94590   0.56292   0.99015   0.00000  Uiso   1.00
C1099  C     0.85541   0.65620   0.75431   0.00000  Uiso   1.00
C1100  C     0.81061   0.34375   0.74659   0.00000  Uiso   1.00
C1101  C     0.79504   0.49664   0.83301   0.00000  Uiso   1.00
C1102  C     0.87168   0.50527   0.66709   0.00000  Uiso   1.00
C1103  C     0.77198   0.49343   0.88056   0.00000  Uiso   1.00
C1104  C     0.89395   0.51666   0.62045   0.00000  Uiso   1.00
C1105  C     0.68930   0.46490   0.94411   0.00000  Uiso   1.00
C1106  C     0.97101   0.56271   0.56054   0.00000  Uiso   1.00
C1107  C     0.70868   0.47238   0.89947   0.00000  Uiso   1.00
C1108  C     0.95424   0.54690   0.60354   0.00000  Uiso   1.00
C1109  C     0.81512   0.50924   0.90693   0.00000  Uiso   1.00
C1110  C     0.85060   0.50260   0.59403   0.00000  Uiso   1.00
C1111  C     0.79671   0.50341   0.95246   0.00000  Uiso   1.00
C1112  C     0.86520   0.51993   0.55111   0.00000  Uiso   1.00
C1113  C     0.73268   0.47942   0.97088   0.00000  Uiso   1.00
C1114  C     0.92750   0.54888   0.53387   0.00000  Uiso   1.00
C1115  C     0.84036   0.51941   0.97970   0.00000  Uiso   1.00
C1116  C     0.82022   0.50778   0.52466   0.00000  Uiso   1.00
Cu1117 Cu    0.77404   0.49441   0.74517   0.00000  Uiso   1.00
Cu1118 Cu    0.89263   0.50559   0.75484   0.00000  Uiso   1.00
N1119  N     0.98173   0.51401   0.76212   0.00000  Uiso   1.00
N1120  N     0.68494   0.48599   0.73788   0.00000  Uiso   1.00
O1121  O     0.79482   0.57142   0.74686   0.00000  Uiso   1.00
O1122  O     0.87185   0.42858   0.75314   0.00000  Uiso   1.00
O1123  O     0.89496   0.58086   0.75503   0.00000  Uiso   1.00
O1124  O     0.77171   0.41914   0.74498   0.00000  Uiso   1.00
O1125  O     0.75518   0.49263   0.80855   0.00000  Uiso   1.00
O1126  O     0.91149   0.50737   0.69146   0.00000  Uiso   1.00
O1127  O     0.85532   0.50207   0.81671   0.00000  Uiso   1.00
O1128  O     0.81134   0.49793   0.68329   0.00000  Uiso   1.00
O1129  O     0.98146   0.44891   0.53222   0.00000  Uiso   1.00
C1130  C     0.97024   0.41247   0.56500   0.00000  Uiso   1.00
H1131  H     0.96862   0.43430   0.59701   0.00000  Uiso   1.00
H1132  H     0.67338   0.38831   0.55843   0.00000  Uiso   1.00
C1133  C     0.90630   0.37489   0.56730   0.00000  Uiso   1.00
H1134  H     0.90471   0.35428   0.53510   0.00000  Uiso   1.00
H1135  H     0.89797   0.34491   0.59204   0.00000  Uiso   1.00
H1136  H     0.86817   0.39713   0.57666   0.00000  Uiso   1.00
O1137  O     0.67505   0.58539   0.97156   0.00000  Uiso   1.00
C1138  C     0.68115   0.63949   0.96546   0.00000  Uiso   1.00
H1139  H     0.66706   0.66061   0.99730   0.00000  Uiso   1.00
H1140  H     0.98540   0.64519   0.94327   0.00000  Uiso   1.00
C1141  C     0.74990   0.66391   0.94515   0.00000  Uiso   1.00
H1142  H     0.77988   0.66042   0.96732   0.00000  Uiso   1.00
H1143  H     0.75542   0.37305   0.93956   0.00000  Uiso   1.00
H1144  H     0.76583   0.64327   0.91337   0.00000  Uiso   1.00
H1145  H     0.80585   0.47695   0.60766   0.00000  Uiso   1.00
H1146  H     0.86336   0.52462   0.89062   0.00000  Uiso   1.00
H1147  H     0.98800   0.55899   0.62370   0.00000  Uiso   1.00
H1148  H     0.67455   0.46002   0.87961   0.00000  Uiso   1.00
H1149  H     0.97343   0.44708   0.95742   0.00000  Uiso   1.00
H1150  H     0.68501   0.58562   0.54819   0.00000  Uiso   1.00
H1151  H     0.73694   0.48198   0.57671   0.00000  Uiso   1.00
H1152  H     0.92173   0.55816   0.93014   0.00000  Uiso   1.00
H1153  H     0.89751   0.34704   0.76288   0.00000  Uiso   1.00
H1154  H     0.76832   0.65290   0.73822   0.00000  Uiso   1.00
O1155  O     0.99967   0.53380   0.79898   0.00000  Uiso   1.00
C1156  C     0.98619   0.58428   0.80854   0.00000  Uiso   1.00
H1157  H     0.93534   0.58113   0.82353   0.00000  Uiso   1.00
H1158  H     0.66736   0.60819   0.77886   0.00000  Uiso   1.00
C1159  C     0.68927   0.61333   0.84152   0.00000  Uiso   1.00
H1160  H     0.74077   0.61905   0.82739   0.00000  Uiso   1.00
H1161  H     0.67753   0.65263   0.85074   0.00000  Uiso   1.00
H1162  H     0.67689   0.58995   0.87121   0.00000  Uiso   1.00
O1163  O     0.99733   0.46097   0.70331   0.00000  Uiso   1.00
C1164  C     0.67921   0.41091   0.69759   0.00000  Uiso   1.00
H1165  H     0.66679   0.39142   0.72941   0.00000  Uiso   1.00
H1166  H     0.72997   0.41464   0.68180   0.00000  Uiso   1.00
C1167  C     0.97557   0.37472   0.66784   0.00000  Uiso   1.00
H1168  H     0.92845   0.38359   0.67176   0.00000  Uiso   1.00
H1169  H     0.66930   0.37941   0.63353   0.00000  Uiso   1.00
H1170  H     0.96920   0.66607   0.67554   0.00000  Uiso   1.00
C1171  C     0.18155   0.93341   0.75186   0.00000  Uiso   1.00
C1172  C     0.15159   0.73324   0.74846   0.00000  Uiso   1.00
C1173  C     0.08892   0.81868   0.54206   0.00000  Uiso   1.00
C1174  C     0.23670   0.88049   0.96351   0.00000  Uiso   1.00
C1175  C     0.04557   0.80301   0.51548   0.00000  Uiso   1.00
C1176  C     0.27923   0.89625   0.99015   0.00000  Uiso   1.00
C1177  C     0.18874   0.98953   0.75431   0.00000  Uiso   1.00
C1178  C     0.14394   0.67709   0.74659   0.00000  Uiso   1.00
C1179  C     0.12838   0.82997   0.83301   0.00000  Uiso   1.00
C1180  C     0.20502   0.83861   0.66709   0.00000  Uiso   1.00
C1181  C     0.10532   0.82676   0.88056   0.00000  Uiso   1.00
C1182  C     0.22729   0.85000   0.62045   0.00000  Uiso   1.00
C1183  C     0.02264   0.79823   0.94411   0.00000  Uiso   1.00
C1184  C     0.30434   0.89604   0.56054   0.00000  Uiso   1.00
C1185  C     0.04202   0.80571   0.89947   0.00000  Uiso   1.00
C1186  C     0.28757   0.88023   0.60354   0.00000  Uiso   1.00
C1187  C     0.14846   0.84257   0.90693   0.00000  Uiso   1.00
C1188  C     0.18394   0.83593   0.59403   0.00000  Uiso   1.00
C1189  C     0.13004   0.83674   0.95246   0.00000  Uiso   1.00
C1190  C     0.19853   0.85326   0.55111   0.00000  Uiso   1.00
C1191  C     0.06602   0.81275   0.97088   0.00000  Uiso   1.00
C1192  C     0.26083   0.88222   0.53387   0.00000  Uiso   1.00
C1193  C     0.17369   0.85275   0.97970   0.00000  Uiso   1.00
C1194  C     0.15355   0.84112   0.52466   0.00000  Uiso   1.00
Cu1195 Cu    0.10737   0.82775   0.74517   0.00000  Uiso   1.00
Cu1196 Cu    0.22596   0.83892   0.75484   0.00000  Uiso   1.00
N1197  N     0.31506   0.84735   0.76212   0.00000  Uiso   1.00
N1198  N     0.01827   0.81932   0.73788   0.00000  Uiso   1.00
O1199  O     0.12815   0.90476   0.74686   0.00000  Uiso   1.00
O1200  O     0.20518   0.76191   0.75314   0.00000  Uiso   1.00
O1201  O     0.22829   0.91420   0.75503   0.00000  Uiso   1.00
O1202  O     0.10504   0.75247   0.74498   0.00000  Uiso   1.00
O1203  O     0.08851   0.82597   0.80855   0.00000  Uiso   1.00
O1204  O     0.24482   0.84070   0.69146   0.00000  Uiso   1.00
O1205  O     0.18866   0.83540   0.81671   0.00000  Uiso   1.00
O1206  O     0.14468   0.83126   0.68329   0.00000  Uiso   1.00
O1207  O     0.31480   0.78224   0.53222   0.00000  Uiso   1.00
C1208  C     0.30357   0.74580   0.56500   0.00000  Uiso   1.00
H1209  H     0.30195   0.76763   0.59701   0.00000  Uiso   1.00
H1210  H     0.00671   0.72164   0.55843   0.00000  Uiso   1.00
C1211  C     0.23963   0.70822   0.56730   0.00000  Uiso   1.00
H1212  H     0.23804   0.68762   0.53510   0.00000  Uiso   1.00
H1213  H     0.23131   0.67824   0.59204   0.00000  Uiso   1.00
H1214  H     0.20150   0.73047   0.57666   0.00000  Uiso   1.00
O1215  O     0.00838   0.91873   0.97156   0.00000  Uiso   1.00
C1216  C     0.01448   0.97283   0.96546   0.00000  Uiso   1.00
H1217  H     0.00040   0.99394   0.99730   0.00000  Uiso   1.00
H1218  H     0.31873   0.97853   0.94327   0.00000  Uiso   1.00
C1219  C     0.08324   0.99724   0.94515   0.00000  Uiso   1.00
H1220  H     0.11321   0.99375   0.96732   0.00000  Uiso   1.00
H1221  H     0.08875   0.70639   0.93956   0.00000  Uiso   1.00
H1222  H     0.09916   0.97661   0.91337   0.00000  Uiso   1.00
H1223  H     0.13919   0.81029   0.60766   0.00000  Uiso   1.00
H1224  H     0.19669   0.85795   0.89062   0.00000  Uiso   1.00
H1225  H     0.32133   0.89233   0.62370   0.00000  Uiso   1.00
H1226  H     0.00789   0.79335   0.87961   0.00000  Uiso   1.00
H1227  H     0.30677   0.78041   0.95742   0.00000  Uiso   1.00
H1228  H     0.01835   0.91896   0.54819   0.00000  Uiso   1.00
H1229  H     0.07027   0.81532   0.57671   0.00000  Uiso   1.00
H1230  H     0.25507   0.89149   0.93014   0.00000  Uiso   1.00
H1231  H     0.23084   0.68037   0.76288   0.00000  Uiso   1.00
H1232  H     0.10165   0.98623   0.73822   0.00000  Uiso   1.00
O1233  O     0.33300   0.86713   0.79898   0.00000  Uiso   1.00
C1234  C     0.31952   0.91761   0.80854   0.00000  Uiso   1.00
H1235  H     0.26867   0.91447   0.82353   0.00000  Uiso   1.00
H1236  H     0.00069   0.94152   0.77886   0.00000  Uiso   1.00
C1237  C     0.02260   0.94666   0.84152   0.00000  Uiso   1.00
H1238  H     0.07411   0.95239   0.82739   0.00000  Uiso   1.00
H1239  H     0.01086   0.98596   0.85074   0.00000  Uiso   1.00
H1240  H     0.01022   0.92328   0.87121   0.00000  Uiso   1.00
O1241  O     0.33067   0.79430   0.70331   0.00000  Uiso   1.00
C1242  C     0.01254   0.74424   0.69759   0.00000  Uiso   1.00
H1243  H     0.00012   0.72475   0.72941   0.00000  Uiso   1.00
H1244  H     0.06331   0.74797   0.68180   0.00000  Uiso   1.00
C1245  C     0.30890   0.70805   0.66784   0.00000  Uiso   1.00
H1246  H     0.26178   0.71692   0.67176   0.00000  Uiso   1.00
H1247  H     0.00263   0.71274   0.63353   0.00000  Uiso   1.00
H1248  H     0.30254   0.99940   0.67554   0.00000  Uiso   1.00
C1249  C     0.51488   0.93341   0.75186   0.00000  Uiso   1.00
C1250  C     0.48493   0.73324   0.74846   0.00000  Uiso   1.00
C1251  C     0.42226   0.81868   0.54206   0.00000  Uiso   1.00
C1252  C     0.57003   0.88049   0.96351   0.00000  Uiso   1.00
C1253  C     0.37891   0.80301   0.51548   0.00000  Uiso   1.00
C1254  C     0.61257   0.89625   0.99015   0.00000  Uiso   1.00
C1255  C     0.52207   0.98953   0.75431   0.00000  Uiso   1.00
C1256  C     0.47728   0.67709   0.74659   0.00000  Uiso   1.00
C1257  C     0.46171   0.82997   0.83301   0.00000  Uiso   1.00
C1258  C     0.53835   0.83861   0.66709   0.00000  Uiso   1.00
C1259  C     0.43865   0.82676   0.88056   0.00000  Uiso   1.00
C1260  C     0.56062   0.85000   0.62045   0.00000  Uiso   1.00
C1261  C     0.35597   0.79823   0.94411   0.00000  Uiso   1.00
C1262  C     0.63768   0.89604   0.56054   0.00000  Uiso   1.00
C1263  C     0.37535   0.80571   0.89947   0.00000  Uiso   1.00
C1264  C     0.62091   0.88023   0.60354   0.00000  Uiso   1.00
C1265  C     0.48179   0.84257   0.90693   0.00000  Uiso   1.00
C1266  C     0.51727   0.83593   0.59403   0.00000  Uiso   1.00
C1267  C     0.46338   0.83674   0.95246   0.00000  Uiso   1.00
C1268  C     0.53187   0.85326   0.55111   0.00000  Uiso   1.00
C1269  C     0.39935   0.81275   0.97088   0.00000  Uiso   1.00
C1270  C     0.59416   0.88222   0.53387   0.00000  Uiso   1.00
C1271  C     0.50702   0.85275   0.97970   0.00000  Uiso   1.00
C1272  C     0.48689   0.84112   0.52466   0.00000  Uiso   1.00
Cu1273 Cu    0.44071   0.82775   0.74517   0.00000  Uiso   1.00
Cu1274 Cu    0.55929   0.83892   0.75484   0.00000  Uiso   1.00
N1275  N     0.64839   0.84735   0.76212   0.00000  Uiso   1.00
N1276  N     0.35161   0.81932   0.73788   0.00000  Uiso   1.00
O1277  O     0.46148   0.90476   0.74686   0.00000  Uiso   1.00
O1278  O     0.53852   0.76191   0.75314   0.00000  Uiso   1.00
O1279  O     0.56163   0.91420   0.75503   0.00000  Uiso   1.00
O1280  O     0.43837   0.75247   0.74498   0.00000  Uiso   1.00
O1281  O     0.42185   0.82597   0.80855   0.00000  Uiso   1.00
O1282  O     0.57815   0.84070   0.69146   0.00000  Uiso   1.00
O1283  O     0.52199   0.83540   0.81671   0.00000  Uiso   1.00
O1284  O     0.47801   0.83126   0.68329   0.00000  Uiso   1.00
O1285  O     0.64813   0.78224   0.53222   0.00000  Uiso   1.00
C1286  C     0.63690   0.74580   0.56500   0.00000  Uiso   1.00
H1287  H     0.63528   0.76763   0.59701   0.00000  Uiso   1.00
H1288  H     0.34004   0.72164   0.55843   0.00000  Uiso   1.00
C1289  C     0.57296   0.70822   0.56730   0.00000  Uiso   1.00
H1290  H     0.57137   0.68762   0.53510   0.00000  Uiso   1.00
H1291  H     0.56464   0.67824   0.59204   0.00000  Uiso   1.00
H1292  H     0.53483   0.73047   0.57666   0.00000  Uiso   1.00
O1293  O     0.34172   0.91873   0.97156   0.00000  Uiso   1.00
C1294  C     0.34781   0.97283   0.96546   0.00000  Uiso   1.00
H1295  H     0.33373   0.99394   0.99730   0.00000  Uiso   1.00
H1296  H     0.65207   0.97853   0.94327   0.00000  Uiso   1.00
C1297  C     0.41657   0.99724   0.94515   0.00000  Uiso   1.00
H1298  H     0.44654   0.99375   0.96732   0.00000  Uiso   1.00
H1299  H     0.42209   0.70639   0.93956   0.00000  Uiso   1.00
H1300  H     0.43249   0.97661   0.91337   0.00000  Uiso   1.00
H1301  H     0.47252   0.81029   0.60766   0.00000  Uiso   1.00
H1302  H     0.53002   0.85795   0.89062   0.00000  Uiso   1.00
H1303  H     0.65467   0.89233   0.62370   0.00000  Uiso   1.00
H1304  H     0.34122   0.79335   0.87961   0.00000  Uiso   1.00
H1305  H     0.64010   0.78041   0.95742   0.00000  Uiso   1.00
H1306  H     0.35168   0.91896   0.54819   0.00000  Uiso   1.00
H1307  H     0.40360   0.81532   0.57671   0.00000  Uiso   1.00
H1308  H     0.58840   0.89149   0.93014   0.00000  Uiso   1.00
H1309  H     0.56418   0.68037   0.76288   0.00000  Uiso   1.00
H1310  H     0.43499   0.98623   0.73822   0.00000  Uiso   1.00
O1311  O     0.66633   0.86713   0.79898   0.00000  Uiso   1.00
C1312  C     0.65285   0.91761   0.80854   0.00000  Uiso   1.00
H1313  H     0.60200   0.91447   0.82353   0.00000  Uiso   1.00
H1314  H     0.33403   0.94152   0.77886   0.00000  Uiso   1.00
C1315  C     0.35594   0.94666   0.84152   0.00000  Uiso   1.00
H1316  H     0.40744   0.95239   0.82739   0.00000  Uiso   1.00
H1317  H     0.34420   0.98596   0.85074   0.00000  Uiso   1.00
H1318  H     0.34355   0.92328   0.87121   0.00000  Uiso   1.00
O1319  O     0.66400   0.79430   0.70331   0.00000  Uiso   1.00
C1320  C     0.34587   0.74424   0.69759   0.00000  Uiso   1.00
H1321  H     0.33346   0.72475   0.72941   0.00000  Uiso   1.00
H1322  H     0.39664   0.74797   0.68180   0.00000  Uiso   1.00
C1323  C     0.64223   0.70805   0.66784   0.00000  Uiso   1.00
H1324  H     0.59512   0.71692   0.67176   0.00000  Uiso   1.00
H1325  H     0.33597   0.71274   0.63353   0.00000  Uiso   1.00
H1326  H     0.63587   0.99940   0.67554   0.00000  Uiso   1.00
C1327  C     0.84821   0.93341   0.75186   0.00000  Uiso   1.00
C1328  C     0.81826   0.73324   0.74846   0.00000  Uiso   1.00
C1329  C     0.75559   0.81868   0.54206   0.00000  Uiso   1.00
C1330  C     0.90336   0.88049   0.96351   0.00000  Uiso   1.00
C1331  C     0.71224   0.80301   0.51548   0.00000  Uiso   1.00
C1332  C     0.94590   0.89625   0.99015   0.00000  Uiso   1.00
C1333  C     0.85541   0.98953   0.75431   0.00000  Uiso   1.00
C1334  C     0.81061   0.67709   0.74659   0.00000  Uiso   1.00
C1335  C     0.79504   0.82997   0.83301   0.00000  Uiso   1.00
C1336  C     0.87168   0.83861   0.66709   0.00000  Uiso   1.00
C1337  C     0.77198   0.82676   0.88056   0.00000  Uiso   1.00
C1338  C     0.89395   0.85000   0.62045   0.00000  Uiso   1.00
C1339  C     0.68930   0.79823   0.94411   0.00000  Uiso   1.00
C1340  C     0.97101   0.89604   0.56054   0.00000  Uiso   1.00
C1341  C     0.70868   0.80571   0.89947   0.00000  Uiso   1.00
C1342  C     0.95424   0.88023   0.60354   0.00000  Uiso   1.00
C1343  C     0.81512   0.84257   0.90693   0.00000  Uiso   1.00
C1344  C     0.85060   0.83593   0.59403   0.00000  Uiso   1.00
C1345  C     0.79671   0.83674   0.95246   0.00000  Uiso   1.00
C1346  C     0.86520   0.85326   0.55111   0.00000  Uiso   1.00
C1347  C     0.73268   0.81275   0.97088   0.00000  Uiso   1.00
C1348  C     0.92750   0.88222   0.53387   0.00000  Uiso   1.00
C1349  C     0.84036   0.85275   0.97970   0.00000  Uiso   1.00
C1350  C     0.82022   0.84112   0.52466   0.00000  Uiso   1.00
Cu1351 Cu    0.77404   0.82775   0.74517   0.00000  Uiso   1.00
Cu1352 Cu    0.89263   0.83892   0.75484   0.00000  Uiso   1.00
N1353  N     0.98173   0.84735   0.76212   0.00000  Uiso   1.00
N1354  N     0.68494   0.81932   0.73788   0.00000  Uiso   1.00
O1355  O     0.79482   0.90476   0.74686   0.00000  Uiso   1.00
O1356  O     0.87185   0.76191   0.75314   0.00000  Uiso   1.00
O1357  O     0.89496   0.91420   0.75503   0.00000  Uiso   1.00
O1358  O     0.77171   0.75247   0.74498   0.00000  Uiso   1.00
O1359  O     0.75518   0.82597   0.80855   0.00000  Uiso   1.00
O1360  O     0.91149   0.84070   0.69146   0.00000  Uiso   1.00
O1361  O     0.85532   0.83540   0.81671   0.00000  Uiso   1.00
O1362  O     0.81134   0.83126   0.68329   0.00000  Uiso   1.00
O1363  O     0.98146   0.78224   0.53222   0.00000  Uiso   1.00
C1364  C     0.97024   0.74580   0.56500   0.00000  Uiso   1.00
H1365  H     0.96862   0.76763   0.59701   0.00000  Uiso   1.00
H1366  H     0.67338   0.72164   0.55843   0.00000  Uiso   1.00
C1367  C     0.90630   0.70822   0.56730   0.00000  Uiso   1.00
H1368  H     0.90471   0.68762   0.53510   0.00000  Uiso   1.00
H1369  H     0.89797   0.67824   0.59204   0.00000  Uiso   1.00
H1370  H     0.86817   0.73047   0.57666   0.00000  Uiso   1.00
O1371  O     0.67505   0.91873   0.97156   0.00000  Uiso   1.00
C1372  C     0.68115   0.97283   0.96546   0.00000  Uiso   1.00
H1373  H     0.66706   0.99394   0.99730   0.00000  Uiso   1.00
H1374  H     0.98540   0.97853   0.94327   0.00000  Uiso   1.00
C1375  C     0.74990   0.99724   0.94515   0.00000  Uiso   1.00
H1376  H     0.77988   0.99375   0.96732   0.00000  Uiso   1.00
H1377  H     0.75542   0.70639   0.93956   0.00000  Uiso   1.00
H1378  H     0.76583   0.97661   0.91337   0.00000  Uiso   1.00
H1379  H     0.80585   0.81029   0.60766   0.00000  Uiso   1.00
H1380  H     0.86336   0.85795   0.89062   0.00000  Uiso   1.00
H1381  H     0.98800   0.89233   0.62370   0.00000  Uiso   1.00
H1382  H     0.67455   0.79335   0.87961   0.00000  Uiso   1.00
H1383  H     0.97343   0.78041   0.95742   0.00000  Uiso   1.00
H1384  H     0.68501   0.91896   0.54819   0.00000  Uiso   1.00
H1385  H     0.73694   0.81532   0.57671   0.00000  Uiso   1.00
H1386  H     0.92173   0.89149   0.93014   0.00000  Uiso   1.00
H1387  H     0.89751   0.68037   0.76288   0.00000  Uiso   1.00
H1388  H     0.76832   0.98623   0.73822   0.00000  Uiso   1.00
O1389  O     0.99967   0.86713   0.79898   0.00000  Uiso   1.00
C1390  C     0.98619   0.91761   0.80854   0.00000  Uiso   1.00
H1391  H     0.93534   0.91447   0.82353   0.00000  Uiso   1.00
H1392  H     0.66736   0.94152   0.77886   0.00000  Uiso   1.00
C1393  C     0.68927   0.94666   0.84152   0.00000  Uiso   1.00
H1394  H     0.74077   0.95239   0.82739   0.00000  Uiso   1.00
H1395  H     0.67753   0.98596   0.85074   0.00000  Uiso   1.00
H1396  H     0.67689   0.92328   0.87121   0.00000  Uiso   1.00
O1397  O     0.99733   0.79430   0.70331   0.00000  Uiso   1.00
C1398  C     0.67921   0.74424   0.69759   0.00000  Uiso   1.00
H1399  H     0.66679   0.72475   0.72941   0.00000  Uiso   1.00
H1400  H     0.72997   0.74797   0.68180   0.00000  Uiso   1.00
C1401  C     0.97557   0.70805   0.66784   0.00000  Uiso   1.00
H1402  H     0.92845   0.71692   0.67176   0.00000  Uiso   1.00
H1403  H     0.66930   0.71274   0.63353   0.00000  Uiso   1.00
H1404  H     0.96920   0.99940   0.67554   0.00000  Uiso   1.00
loop_
_geom_bond_atom_site_label_1
_geom_bond_atom_site_label_2
_geom_bond_distance
_geom_bond_site_symmetry_2
_ccdc_geom_bond_type
C1     O31     1.294   .     A
C1     O29     1.291   .     A
C1     C7      1.428   .     S
C2     O32     1.294   .     A
C2     C8      1.428   .     S
C2     O30     1.292   .     A
C3     C24     1.417   .     A
C3     C5      1.408   .     A
C3     H59     1.075   .     S
C4     C23     1.417   .     A
C4     H60     1.073   .     S
C4     C6      1.395   .     A
C5     C723    1.399   1_554 S
C5     O193    1.395   1_455 S
C6     C724    1.400   .     S
C6     O123    1.385   .     S
C7     C242    1.333   .     S
C7     H295    1.085   .     S
C8     C475    1.333   1_545 S
C8     H530    1.086   1_545 S
C9     O33     1.305   .     A
C9     C11     1.467   .     S
C9     O35     1.300   .     A
C10    C12     1.470   .     S
C10    O34     1.309   .     A
C10    O36     1.297   .     A
C11    C15     1.394   .     A
C11    C17     1.399   .     A
C12    C16     1.396   .     A
C12    C18     1.402   .     A
C13    C21     1.411   .     A
C13    C15     1.388   .     A
C13    H213    1.083   1_455 S
C14    C16     1.393   .     A
C14    C22     1.410   .     A
C14    H136    1.083   .     S
C15    H56     1.083   .     S
C16    H55     1.083   .     S
C17    C19     1.409   .     A
C17    H54     1.073   .     S
C18    H53     1.077   .     S
C18    C20     1.408   .     A
C19    C21     1.421   .     A
C19    C23     1.429   .     A
C20    C24     1.430   .     A
C20    C22     1.420   .     A
C21    C707    1.399   .     S
C22    C708    1.400   1_554 S
C23    C726    1.420   .     S
C24    C725    1.420   1_554 S
Cu25   N28     2.030   .     S
Cu25   O32     1.948   .     S
Cu25   O29     1.947   .     S
Cu25   Cu26    2.701   .     S
Cu25   O33     1.947   .     S
Cu25   O36     1.929   .     S
Cu26   N27     2.030   .     S
Cu26   O34     1.947   .     S
Cu26   O31     1.948   .     S
Cu26   O30     1.947   .     S
Cu26   O35     1.929   .     S
N27    O63     1.346   .     S
N27    N106    1.286   .     S
N28    N183    1.286   1_455 S
N28    O227    1.349   1_455 S
O37    C38     1.409   .     S
O37    C83     1.395   .     S
C38    H39     1.110   .     S
C38    C41     1.523   .     S
C38    H118    1.115   .     S
H40    C194    1.115   1_455 S
C41    H42     1.110   .     S
C41    H43     1.111   .     S
C41    H44     1.109   .     S
O45    C46     1.410   .     S
O45    C162    1.385   1_455 S
C46    C49     1.521   .     S
C46    H47     1.110   .     S
C46    H204    1.114   1_455 S
H48    C124    1.114   .     S
C49    H52     1.111   .     S
C49    H50     1.111   .     S
C49    H285    1.110   .     S
H51    C517    1.110   1_545 S
H57    C91     1.083   .     S
H58    C170    1.083   1_455 S
H61    C475    1.085   1_545 S
H62    C242    1.086   .     S
O63    C64     1.406   .     S
C64    H65     1.107   .     S
C64    H144    1.113   .     S
C64    C145    1.522   .     S
H66    C220    1.113   1_455 S
C67    H68     1.109   .     S
C67    H69     1.111   .     S
C67    H70     1.109   .     S
C67    C220    1.522   1_455 S
O71    N106    1.349   .     S
O71    C150    1.408   .     S
C72    H74     1.108   .     S
C72    H73     1.114   .     S
C72    O227    1.408   1_455 S
C72    C231    1.522   1_455 S
C75    H76     1.110   .     S
C75    C150    1.522   .     S
C75    H155    1.106   .     S
C75    H546    1.111   1_545 S
H77    C231    1.106   1_455 S
H78    C309    1.111   .     S
C79    O109    1.294   .     A
C79    O107    1.291   .     A
C79    C85     1.428   .     S
C80    O110    1.294   .     A
C80    C86     1.428   .     S
C80    O108    1.292   .     A
C81    C102    1.417   .     A
C81    C83     1.408   .     A
C81    H137    1.075   .     S
C82    C101    1.417   .     A
C82    H138    1.073   .     S
C82    C84     1.395   .     A
C83    C801    1.399   1_554 S
C84    C802    1.400   .     S
C84    O201    1.385   .     S
C85    C320    1.333   .     S
C85    H373    1.085   .     S
C86    C553    1.333   1_545 S
C86    H608    1.086   1_545 S
C87    O111    1.305   .     A
C87    C89     1.467   .     S
C87    O113    1.300   .     A
C88    C90     1.470   .     S
C88    O112    1.309   .     A
C88    O114    1.297   .     A
C89    C93     1.394   .     A
C89    C95     1.399   .     A
C90    C94     1.396   .     A
C90    C96     1.402   .     A
C91    C99     1.411   .     A
C91    C93     1.388   .     A
C92    C94     1.393   .     A
C92    C100    1.410   .     A
C92    H214    1.083   .     S
C93    H134    1.083   .     S
C94    H133    1.083   .     S
C95    C97     1.409   .     A
C95    H132    1.073   .     S
C96    H131    1.077   .     S
C96    C98     1.408   .     A
C97    C99     1.421   .     A
C97    C101    1.429   .     A
C98    C102    1.430   .     A
C98    C100    1.420   .     A
C99    C785    1.399   .     S
C100   C786    1.400   1_554 S
C101   C804    1.420   .     S
C102   C803    1.420   1_554 S
Cu103  N106    2.030   .     S
Cu103  O110    1.948   .     S
Cu103  O107    1.947   .     S
Cu103  Cu104   2.701   .     S
Cu103  O111    1.947   .     S
Cu103  O114    1.929   .     S
Cu104  N105    2.030   .     S
Cu104  O112    1.947   .     S
Cu104  O109    1.948   .     S
Cu104  O108    1.947   .     S
Cu104  O113    1.929   .     S
N105   O141    1.346   .     S
N105   N184    1.286   .     S
O115   C116    1.409   .     S
O115   C161    1.395   .     S
C116   H117    1.110   .     S
C116   C119    1.523   .     S
C116   H196    1.115   .     S
C119   H120    1.110   .     S
C119   H121    1.111   .     S
C119   H122    1.109   .     S
O123   C124    1.410   .     S
C124   C127    1.521   .     S
C124   H125    1.110   .     S
H126   C202    1.114   .     S
C127   H130    1.111   .     S
C127   H128    1.111   .     S
C127   H363    1.110   .     S
H129   C595    1.110   1_545 S
H135   C169    1.083   .     S
H139   C553    1.085   1_545 S
H140   C320    1.086   .     S
O141   C142    1.406   .     S
C142   H143    1.107   .     S
C142   H222    1.113   .     S
C142   C223    1.522   .     S
C145   H146    1.109   .     S
C145   H147    1.111   .     S
C145   H148    1.109   .     S
O149   N184    1.349   .     S
O149   C228    1.408   .     S
C150   H152    1.108   .     S
C150   H151    1.114   .     S
C153   H154    1.110   .     S
C153   C228    1.522   .     S
C153   H233    1.106   .     S
C153   H624    1.111   1_545 S
H156   C387    1.111   .     S
C157   O187    1.294   .     A
C157   O185    1.291   .     A
C157   C163    1.428   .     S
C158   O188    1.294   .     A
C158   C164    1.428   .     S
C158   O186    1.292   .     A
C159   C180    1.417   .     A
C159   C161    1.408   .     A
C159   H215    1.075   .     S
C160   C179    1.417   .     A
C160   H216    1.073   .     S
C160   C162    1.395   .     A
C161   C879    1.399   1_554 S
C162   C880    1.400   .     S
C162   O45     1.385   1_655 S
C163   C398    1.333   .     S
C163   H451    1.085   .     S
C164   C631    1.333   1_545 S
C164   H686    1.086   1_545 S
C165   O189    1.305   .     A
C165   C167    1.467   .     S
C165   O191    1.300   .     A
C166   C168    1.470   .     S
C166   O190    1.309   .     A
C166   O192    1.297   .     A
C167   C171    1.394   .     A
C167   C173    1.399   .     A
C168   C172    1.396   .     A
C168   C174    1.402   .     A
C169   C177    1.411   .     A
C169   C171    1.388   .     A
C170   C172    1.393   .     A
C170   C178    1.410   .     A
C170   H58     1.083   1_655 S
C171   H212    1.083   .     S
C172   H211    1.083   .     S
C173   C175    1.409   .     A
C173   H210    1.073   .     S
C174   H209    1.077   .     S
C174   C176    1.408   .     A
C175   C177    1.421   .     A
C175   C179    1.429   .     A
C176   C180    1.430   .     A
C176   C178    1.420   .     A
C177   C863    1.399   .     S
C178   C864    1.400   1_554 S
C179   C882    1.420   .     S
C180   C881    1.420   1_554 S
Cu181  N184    2.030   .     S
Cu181  O188    1.948   .     S
Cu181  O185    1.947   .     S
Cu181  Cu182   2.701   .     S
Cu181  O189    1.947   .     S
Cu181  O192    1.929   .     S
Cu182  N183    2.030   .     S
Cu182  O190    1.947   .     S
Cu182  O187    1.948   .     S
Cu182  O186    1.947   .     S
Cu182  O191    1.929   .     S
N183   O219    1.346   .     S
N183   N28     1.286   1_655 S
O193   C194    1.409   .     S
O193   C5      1.395   1_655 S
C194   H195    1.110   .     S
C194   C197    1.523   .     S
C194   H40     1.115   1_655 S
C197   H198    1.110   .     S
C197   H199    1.111   .     S
C197   H200    1.109   .     S
O201   C202    1.410   .     S
C202   C205    1.521   .     S
C202   H203    1.110   .     S
H204   C46     1.114   1_655 S
C205   H208    1.111   .     S
C205   H206    1.111   .     S
C205   H441    1.110   .     S
H207   C673    1.110   1_545 S
H213   C13     1.083   1_655 S
H217   C631    1.085   1_545 S
H218   C398    1.086   .     S
O219   C220    1.406   .     S
C220   H221    1.107   .     S
C220   H66     1.113   1_655 S
C220   C67     1.522   1_655 S
C223   H224    1.109   .     S
C223   H225    1.111   .     S
C223   H226    1.109   .     S
O227   N28     1.349   1_655 S
O227   C72     1.408   1_655 S
C228   H230    1.108   .     S
C228   H229    1.114   .     S
C231   H232    1.110   .     S
C231   C72     1.522   1_655 S
C231   H77     1.106   1_655 S
C231   H702    1.111   1_545 S
H234   C465    1.111   .     S
C235   O265    1.294   .     A
C235   O263    1.291   .     A
C235   C241    1.428   .     S
C236   O266    1.294   .     A
C236   C242    1.428   .     S
C236   O264    1.292   .     A
C237   C258    1.417   .     A
C237   C239    1.408   .     A
C237   H293    1.075   .     S
C238   C257    1.417   .     A
C238   H294    1.073   .     S
C238   C240    1.395   .     A
C239   C957    1.399   1_554 S
C239   O427    1.395   1_455 S
C240   C958    1.400   .     S
C240   O357    1.385   .     S
C241   C476    1.333   .     S
C241   H529    1.085   .     S
C243   O267    1.305   .     A
C243   C245    1.467   .     S
C243   O269    1.300   .     A
C244   C246    1.470   .     S
C244   O268    1.309   .     A
C244   O270    1.297   .     A
C245   C249    1.394   .     A
C245   C251    1.399   .     A
C246   C250    1.396   .     A
C246   C252    1.402   .     A
C247   C255    1.411   .     A
C247   C249    1.388   .     A
C247   H447    1.083   1_455 S
C248   C250    1.393   .     A
C248   C256    1.410   .     A
C248   H370    1.083   .     S
C249   H290    1.083   .     S
C250   H289    1.083   .     S
C251   C253    1.409   .     A
C251   H288    1.073   .     S
C252   H287    1.077   .     S
C252   C254    1.408   .     A
C253   C255    1.421   .     A
C253   C257    1.429   .     A
C254   C258    1.430   .     A
C254   C256    1.420   .     A
C255   C941    1.399   .     S
C256   C942    1.400   1_554 S
C257   C960    1.420   .     S
C258   C959    1.420   1_554 S
Cu259  N262    2.030   .     S
Cu259  O266    1.948   .     S
Cu259  O263    1.947   .     S
Cu259  Cu260   2.701   .     S
Cu259  O267    1.947   .     S
Cu259  O270    1.929   .     S
Cu260  N261    2.030   .     S
Cu260  O268    1.947   .     S
Cu260  O265    1.948   .     S
Cu260  O264    1.947   .     S
Cu260  O269    1.929   .     S
N261   O297    1.346   .     S
N261   N340    1.286   .     S
N262   N417    1.286   1_455 S
N262   O461    1.349   1_455 S
O271   C272    1.409   .     S
O271   C317    1.395   .     S
C272   H273    1.110   .     S
C272   C275    1.523   .     S
C272   H352    1.115   .     S
H274   C428    1.115   1_455 S
C275   H276    1.110   .     S
C275   H277    1.111   .     S
C275   H278    1.109   .     S
O279   C280    1.410   .     S
O279   C396    1.385   1_455 S
C280   C283    1.521   .     S
C280   H281    1.110   .     S
C280   H438    1.114   1_455 S
H282   C358    1.114   .     S
C283   H286    1.111   .     S
C283   H284    1.111   .     S
C283   H519    1.110   .     S
H291   C325    1.083   .     S
H292   C404    1.083   1_455 S
H296   C476    1.086   .     S
O297   C298    1.406   .     S
C298   H299    1.107   .     S
C298   H378    1.113   .     S
C298   C379    1.522   .     S
H300   C454    1.113   1_455 S
C301   H302    1.109   .     S
C301   H303    1.111   .     S
C301   H304    1.109   .     S
C301   C454    1.522   1_455 S
O305   N340    1.349   .     S
O305   C384    1.408   .     S
C306   H308    1.108   .     S
C306   H307    1.114   .     S
C306   O461    1.408   1_455 S
C306   C465    1.522   1_455 S
C309   H310    1.110   .     S
C309   C384    1.522   .     S
C309   H389    1.106   .     S
H311   C465    1.106   1_455 S
H312   C543    1.111   .     S
C313   O343    1.294   .     A
C313   O341    1.291   .     A
C313   C319    1.428   .     S
C314   O344    1.294   .     A
C314   C320    1.428   .     S
C314   O342    1.292   .     A
C315   C336    1.417   .     A
C315   C317    1.408   .     A
C315   H371    1.075   .     S
C316   C335    1.417   .     A
C316   H372    1.073   .     S
C316   C318    1.395   .     A
C317   C1035   1.399   1_554 S
C318   C1036   1.400   .     S
C318   O435    1.385   .     S
C319   C554    1.333   .     S
C319   H607    1.085   .     S
C321   O345    1.305   .     A
C321   C323    1.467   .     S
C321   O347    1.300   .     A
C322   C324    1.470   .     S
C322   O346    1.309   .     A
C322   O348    1.297   .     A
C323   C327    1.394   .     A
C323   C329    1.399   .     A
C324   C328    1.396   .     A
C324   C330    1.402   .     A
C325   C333    1.411   .     A
C325   C327    1.388   .     A
C326   C328    1.393   .     A
C326   C334    1.410   .     A
C326   H448    1.083   .     S
C327   H368    1.083   .     S
C328   H367    1.083   .     S
C329   C331    1.409   .     A
C329   H366    1.073   .     S
C330   H365    1.077   .     S
C330   C332    1.408   .     A
C331   C333    1.421   .     A
C331   C335    1.429   .     A
C332   C336    1.430   .     A
C332   C334    1.420   .     A
C333   C1019   1.399   .     S
C334   C1020   1.400   1_554 S
C335   C1038   1.420   .     S
C336   C1037   1.420   1_554 S
Cu337  N340    2.030   .     S
Cu337  O344    1.948   .     S
Cu337  O341    1.947   .     S
Cu337  Cu338   2.701   .     S
Cu337  O345    1.947   .     S
Cu337  O348    1.929   .     S
Cu338  N339    2.030   .     S
Cu338  O346    1.947   .     S
Cu338  O343    1.948   .     S
Cu338  O342    1.947   .     S
Cu338  O347    1.929   .     S
N339   O375    1.346   .     S
N339   N418    1.286   .     S
O349   C350    1.409   .     S
O349   C395    1.395   .     S
C350   H351    1.110   .     S
C350   C353    1.523   .     S
C350   H430    1.115   .     S
C353   H354    1.110   .     S
C353   H355    1.111   .     S
C353   H356    1.109   .     S
O357   C358    1.410   .     S
C358   C361    1.521   .     S
C358   H359    1.110   .     S
H360   C436    1.114   .     S
C361   H364    1.111   .     S
C361   H362    1.111   .     S
C361   H597    1.110   .     S
H369   C403    1.083   .     S
H374   C554    1.086   .     S
O375   C376    1.406   .     S
C376   H377    1.107   .     S
C376   H456    1.113   .     S
C376   C457    1.522   .     S
C379   H380    1.109   .     S
C379   H381    1.111   .     S
C379   H382    1.109   .     S
O383   N418    1.349   .     S
O383   C462    1.408   .     S
C384   H386    1.108   .     S
C384   H385    1.114   .     S
C387   H388    1.110   .     S
C387   C462    1.522   .     S
C387   H467    1.106   .     S
H390   C621    1.111   .     S
C391   O421    1.294   .     A
C391   O419    1.291   .     A
C391   C397    1.428   .     S
C392   O422    1.294   .     A
C392   C398    1.428   .     S
C392   O420    1.292   .     A
C393   C414    1.417   .     A
C393   C395    1.408   .     A
C393   H449    1.075   .     S
C394   C413    1.417   .     A
C394   H450    1.073   .     S
C394   C396    1.395   .     A
C395   C1113   1.399   1_554 S
C396   C1114   1.400   .     S
C396   O279    1.385   1_655 S
C397   C632    1.333   .     S
C397   H685    1.085   .     S
C399   O423    1.305   .     A
C399   C401    1.467   .     S
C399   O425    1.300   .     A
C400   C402    1.470   .     S
C400   O424    1.309   .     A
C400   O426    1.297   .     A
C401   C405    1.394   .     A
C401   C407    1.399   .     A
C402   C406    1.396   .     A
C402   C408    1.402   .     A
C403   C411    1.411   .     A
C403   C405    1.388   .     A
C404   C406    1.393   .     A
C404   C412    1.410   .     A
C404   H292    1.083   1_655 S
C405   H446    1.083   .     S
C406   H445    1.083   .     S
C407   C409    1.409   .     A
C407   H444    1.073   .     S
C408   H443    1.077   .     S
C408   C410    1.408   .     A
C409   C411    1.421   .     A
C409   C413    1.429   .     A
C410   C414    1.430   .     A
C410   C412    1.420   .     A
C411   C1097   1.399   .     S
C412   C1098   1.400   1_554 S
C413   C1116   1.420   .     S
C414   C1115   1.420   1_554 S
Cu415  N418    2.030   .     S
Cu415  O422    1.948   .     S
Cu415  O419    1.947   .     S
Cu415  Cu416   2.701   .     S
Cu415  O423    1.947   .     S
Cu415  O426    1.929   .     S
Cu416  N417    2.030   .     S
Cu416  O424    1.947   .     S
Cu416  O421    1.948   .     S
Cu416  O420    1.947   .     S
Cu416  O425    1.929   .     S
N417   O453    1.346   .     S
N417   N262    1.286   1_655 S
O427   C428    1.409   .     S
O427   C239    1.395   1_655 S
C428   H429    1.110   .     S
C428   C431    1.523   .     S
C428   H274    1.115   1_655 S
C431   H432    1.110   .     S
C431   H433    1.111   .     S
C431   H434    1.109   .     S
O435   C436    1.410   .     S
C436   C439    1.521   .     S
C436   H437    1.110   .     S
H438   C280    1.114   1_655 S
C439   H442    1.111   .     S
C439   H440    1.111   .     S
C439   H675    1.110   .     S
H447   C247    1.083   1_655 S
H452   C632    1.086   .     S
O453   C454    1.406   .     S
C454   H455    1.107   .     S
C454   H300    1.113   1_655 S
C454   C301    1.522   1_655 S
C457   H458    1.109   .     S
C457   H459    1.111   .     S
C457   H460    1.109   .     S
O461   N262    1.349   1_655 S
O461   C306    1.408   1_655 S
C462   H464    1.108   .     S
C462   H463    1.114   .     S
C465   H466    1.110   .     S
C465   C306    1.522   1_655 S
C465   H311    1.106   1_655 S
H468   C699    1.111   .     S
C469   O499    1.294   .     A
C469   O497    1.291   .     A
C469   C475    1.428   .     S
C470   O500    1.294   .     A
C470   C476    1.428   .     S
C470   O498    1.292   .     A
C471   C492    1.417   .     A
C471   C473    1.408   .     A
C471   H527    1.075   .     S
C472   C491    1.417   .     A
C472   H528    1.073   .     S
C472   C474    1.395   .     A
C473   C1191   1.399   1_554 S
C473   O661    1.395   1_455 S
C474   C1192   1.400   .     S
C474   O591    1.385   .     S
C475   C8      1.333   1_565 S
C475   H61     1.085   1_565 S
C477   O501    1.305   .     A
C477   C479    1.467   .     S
C477   O503    1.300   .     A
C478   C480    1.470   .     S
C478   O502    1.309   .     A
C478   O504    1.297   .     A
C479   C483    1.394   .     A
C479   C485    1.399   .     A
C480   C484    1.396   .     A
C480   C486    1.402   .     A
C481   C489    1.411   .     A
C481   C483    1.388   .     A
C481   H681    1.083   1_455 S
C482   C484    1.393   .     A
C482   C490    1.410   .     A
C482   H604    1.083   .     S
C483   H524    1.083   .     S
C484   H523    1.083   .     S
C485   C487    1.409   .     A
C485   H522    1.073   .     S
C486   H521    1.077   .     S
C486   C488    1.408   .     A
C487   C489    1.421   .     A
C487   C491    1.429   .     A
C488   C492    1.430   .     A
C488   C490    1.420   .     A
C489   C1175   1.399   .     S
C490   C1176   1.400   1_554 S
C491   C1194   1.420   .     S
C492   C1193   1.420   1_554 S
Cu493  N496    2.030   .     S
Cu493  O500    1.948   .     S
Cu493  O497    1.947   .     S
Cu493  Cu494   2.701   .     S
Cu493  O501    1.947   .     S
Cu493  O504    1.929   .     S
Cu494  N495    2.030   .     S
Cu494  O502    1.947   .     S
Cu494  O499    1.948   .     S
Cu494  O498    1.947   .     S
Cu494  O503    1.929   .     S
N495   O531    1.346   .     S
N495   N574    1.286   .     S
N496   N651    1.286   1_455 S
N496   O695    1.349   1_455 S
O505   C506    1.409   .     S
O505   C551    1.395   .     S
C506   H507    1.110   .     S
C506   C509    1.523   .     S
C506   H586    1.115   .     S
H508   C662    1.115   1_455 S
C509   H510    1.110   .     S
C509   H511    1.111   .     S
C509   H512    1.109   .     S
O513   C514    1.410   .     S
O513   C630    1.385   1_455 S
C514   C517    1.521   .     S
C514   H515    1.110   .     S
C514   H672    1.114   1_455 S
H516   C592    1.114   .     S
C517   H520    1.111   .     S
C517   H518    1.111   .     S
C517   H51     1.110   1_565 S
H525   C559    1.083   .     S
H526   C638    1.083   1_455 S
H530   C8      1.086   1_565 S
O531   C532    1.406   .     S
C532   H533    1.107   .     S
C532   H612    1.113   .     S
C532   C613    1.522   .     S
H534   C688    1.113   1_455 S
C535   H536    1.109   .     S
C535   H537    1.111   .     S
C535   H538    1.109   .     S
C535   C688    1.522   1_455 S
O539   N574    1.349   .     S
O539   C618    1.408   .     S
C540   H542    1.108   .     S
C540   H541    1.114   .     S
C540   O695    1.408   1_455 S
C540   C699    1.522   1_455 S
C543   H544    1.110   .     S
C543   C618    1.522   .     S
C543   H623    1.106   .     S
H545   C699    1.106   1_455 S
H546   C75     1.111   1_565 S
C547   O577    1.294   .     A
C547   O575    1.291   .     A
C547   C553    1.428   .     S
C548   O578    1.294   .     A
C548   C554    1.428   .     S
C548   O576    1.292   .     A
C549   C570    1.417   .     A
C549   C551    1.408   .     A
C549   H605    1.075   .     S
C550   C569    1.417   .     A
C550   H606    1.073   .     S
C550   C552    1.395   .     A
C551   C1269   1.399   1_554 S
C552   C1270   1.400   .     S
C552   O669    1.385   .     S
C553   C86     1.333   1_565 S
C553   H139    1.085   1_565 S
C555   O579    1.305   .     A
C555   C557    1.467   .     S
C555   O581    1.300   .     A
C556   C558    1.470   .     S
C556   O580    1.309   .     A
C556   O582    1.297   .     A
C557   C561    1.394   .     A
C557   C563    1.399   .     A
C558   C562    1.396   .     A
C558   C564    1.402   .     A
C559   C567    1.411   .     A
C559   C561    1.388   .     A
C560   C562    1.393   .     A
C560   C568    1.410   .     A
C560   H682    1.083   .     S
C561   H602    1.083   .     S
C562   H601    1.083   .     S
C563   C565    1.409   .     A
C563   H600    1.073   .     S
C564   H599    1.077   .     S
C564   C566    1.408   .     A
C565   C567    1.421   .     A
C565   C569    1.429   .     A
C566   C570    1.430   .     A
C566   C568    1.420   .     A
C567   C1253   1.399   .     S
C568   C1254   1.400   1_554 S
C569   C1272   1.420   .     S
C570   C1271   1.420   1_554 S
Cu571  N574    2.030   .     S
Cu571  O578    1.948   .     S
Cu571  O575    1.947   .     S
Cu571  Cu572   2.701   .     S
Cu571  O579    1.947   .     S
Cu571  O582    1.929   .     S
Cu572  N573    2.030   .     S
Cu572  O580    1.947   .     S
Cu572  O577    1.948   .     S
Cu572  O576    1.947   .     S
Cu572  O581    1.929   .     S
N573   O609    1.346   .     S
N573   N652    1.286   .     S
O583   C584    1.409   .     S
O583   C629    1.395   .     S
C584   H585    1.110   .     S
C584   C587    1.523   .     S
C584   H664    1.115   .     S
C587   H588    1.110   .     S
C587   H589    1.111   .     S
C587   H590    1.109   .     S
O591   C592    1.410   .     S
C592   C595    1.521   .     S
C592   H593    1.110   .     S
H594   C670    1.114   .     S
C595   H598    1.111   .     S
C595   H596    1.111   .     S
C595   H129    1.110   1_565 S
H603   C637    1.083   .     S
H608   C86     1.086   1_565 S
O609   C610    1.406   .     S
C610   H611    1.107   .     S
C610   H690    1.113   .     S
C610   C691    1.522   .     S
C613   H614    1.109   .     S
C613   H615    1.111   .     S
C613   H616    1.109   .     S
O617   N652    1.349   .     S
O617   C696    1.408   .     S
C618   H620    1.108   .     S
C618   H619    1.114   .     S
C621   H622    1.110   .     S
C621   C696    1.522   .     S
C621   H701    1.106   .     S
H624   C153    1.111   1_565 S
C625   O655    1.294   .     A
C625   O653    1.291   .     A
C625   C631    1.428   .     S
C626   O656    1.294   .     A
C626   C632    1.428   .     S
C626   O654    1.292   .     A
C627   C648    1.417   .     A
C627   C629    1.408   .     A
C627   H683    1.075   .     S
C628   C647    1.417   .     A
C628   H684    1.073   .     S
C628   C630    1.395   .     A
C629   C1347   1.399   1_554 S
C630   C1348   1.400   .     S
C630   O513    1.385   1_655 S
C631   C164    1.333   1_565 S
C631   H217    1.085   1_565 S
C633   O657    1.305   .     A
C633   C635    1.467   .     S
C633   O659    1.300   .     A
C634   C636    1.470   .     S
C634   O658    1.309   .     A
C634   O660    1.297   .     A
C635   C639    1.394   .     A
C635   C641    1.399   .     A
C636   C640    1.396   .     A
C636   C642    1.402   .     A
C637   C645    1.411   .     A
C637   C639    1.388   .     A
C638   C640    1.393   .     A
C638   C646    1.410   .     A
C638   H526    1.083   1_655 S
C639   H680    1.083   .     S
C640   H679    1.083   .     S
C641   C643    1.409   .     A
C641   H678    1.073   .     S
C642   H677    1.077   .     S
C642   C644    1.408   .     A
C643   C645    1.421   .     A
C643   C647    1.429   .     A
C644   C648    1.430   .     A
C644   C646    1.420   .     A
C645   C1331   1.399   .     S
C646   C1332   1.400   1_554 S
C647   C1350   1.420   .     S
C648   C1349   1.420   1_554 S
Cu649  N652    2.030   .     S
Cu649  O656    1.948   .     S
Cu649  O653    1.947   .     S
Cu649  Cu650   2.701   .     S
Cu649  O657    1.947   .     S
Cu649  O660    1.929   .     S
Cu650  N651    2.030   .     S
Cu650  O658    1.947   .     S
Cu650  O655    1.948   .     S
Cu650  O654    1.947   .     S
Cu650  O659    1.929   .     S
N651   O687    1.346   .     S
N651   N496    1.286   1_655 S
O661   C662    1.409   .     S
O661   C473    1.395   1_655 S
C662   H663    1.110   .     S
C662   C665    1.523   .     S
C662   H508    1.115   1_655 S
C665   H666    1.110   .     S
C665   H667    1.111   .     S
C665   H668    1.109   .     S
O669   C670    1.410   .     S
C670   C673    1.521   .     S
C670   H671    1.110   .     S
H672   C514    1.114   1_655 S
C673   H676    1.111   .     S
C673   H674    1.111   .     S
C673   H207    1.110   1_565 S
H681   C481    1.083   1_655 S
H686   C164    1.086   1_565 S
O687   C688    1.406   .     S
C688   H689    1.107   .     S
C688   H534    1.113   1_655 S
C688   C535    1.522   1_655 S
C691   H692    1.109   .     S
C691   H693    1.111   .     S
C691   H694    1.109   .     S
O695   N496    1.349   1_655 S
O695   C540    1.408   1_655 S
C696   H698    1.108   .     S
C696   H697    1.114   .     S
C699   H700    1.110   .     S
C699   C540    1.522   1_655 S
C699   H545    1.106   1_655 S
H702   C231    1.111   1_565 S
C703   O733    1.294   .     A
C703   O731    1.291   .     A
C703   C709    1.428   .     S
C704   O734    1.294   .     A
C704   C710    1.428   .     S
C704   O732    1.292   .     A
C705   C726    1.417   .     A
C705   C707    1.408   .     A
C705   H761    1.075   .     S
C706   C725    1.417   .     A
C706   H762    1.073   .     S
C706   C708    1.395   .     A
C707   O895    1.395   1_455 S
C708   C22     1.400   1_556 S
C708   O825    1.385   .     S
C709   C944    1.333   .     S
C709   H997    1.085   .     S
C710   C1177   1.333   1_545 S
C710   H1232   1.086   1_545 S
C711   O735    1.305   .     A
C711   C713    1.467   .     S
C711   O737    1.300   .     A
C712   C714    1.470   .     S
C712   O736    1.309   .     A
C712   O738    1.297   .     A
C713   C717    1.394   .     A
C713   C719    1.399   .     A
C714   C718    1.396   .     A
C714   C720    1.402   .     A
C715   C723    1.411   .     A
C715   C717    1.388   .     A
C715   H915    1.083   1_455 S
C716   C718    1.393   .     A
C716   C724    1.410   .     A
C716   H838    1.083   .     S
C717   H758    1.083   .     S
C718   H757    1.083   .     S
C719   C721    1.409   .     A
C719   H756    1.073   .     S
C720   H755    1.077   .     S
C720   C722    1.408   .     A
C721   C723    1.421   .     A
C721   C725    1.429   .     A
C722   C726    1.430   .     A
C722   C724    1.420   .     A
C723   C5      1.399   1_556 S
C725   C24     1.420   1_556 S
Cu727  N730    2.030   .     S
Cu727  O734    1.948   .     S
Cu727  O731    1.947   .     S
Cu727  Cu728   2.701   .     S
Cu727  O735    1.947   .     S
Cu727  O738    1.929   .     S
Cu728  N729    2.030   .     S
Cu728  O736    1.947   .     S
Cu728  O733    1.948   .     S
Cu728  O732    1.947   .     S
Cu728  O737    1.929   .     S
N729   O765    1.346   .     S
N729   N808    1.286   .     S
N730   N885    1.286   1_455 S
N730   O929    1.349   1_455 S
O739   C740    1.409   .     S
O739   C785    1.395   .     S
C740   H741    1.110   .     S
C740   C743    1.523   .     S
C740   H820    1.115   .     S
H742   C896    1.115   1_455 S
C743   H744    1.110   .     S
C743   H745    1.111   .     S
C743   H746    1.109   .     S
O747   C748    1.410   .     S
O747   C864    1.385   1_455 S
C748   C751    1.521   .     S
C748   H749    1.110   .     S
C748   H906    1.114   1_455 S
H750   C826    1.114   .     S
C751   H754    1.111   .     S
C751   H752    1.111   .     S
C751   H987    1.110   .     S
H753   C1219   1.110   1_545 S
H759   C793    1.083   .     S
H760   C872    1.083   1_455 S
H763   C1177   1.085   1_545 S
H764   C944    1.086   .     S
O765   C766    1.406   .     S
C766   H767    1.107   .     S
C766   H846    1.113   .     S
C766   C847    1.522   .     S
H768   C922    1.113   1_455 S
C769   H770    1.109   .     S
C769   H771    1.111   .     S
C769   H772    1.109   .     S
C769   C922    1.522   1_455 S
O773   N808    1.349   .     S
O773   C852    1.408   .     S
C774   H776    1.108   .     S
C774   H775    1.114   .     S
C774   O929    1.408   1_455 S
C774   C933    1.522   1_455 S
C777   H778    1.110   .     S
C777   C852    1.522   .     S
C777   H857    1.106   .     S
C777   H1248   1.111   1_545 S
H779   C933    1.106   1_455 S
H780   C1011   1.111   .     S
C781   O811    1.294   .     A
C781   O809    1.291   .     A
C781   C787    1.428   .     S
C782   O812    1.294   .     A
C782   C788    1.428   .     S
C782   O810    1.292   .     A
C783   C804    1.417   .     A
C783   C785    1.408   .     A
C783   H839    1.075   .     S
C784   C803    1.417   .     A
C784   H840    1.073   .     S
C784   C786    1.395   .     A
C786   C100    1.400   1_556 S
C786   O903    1.385   .     S
C787   C1022   1.333   .     S
C787   H1075   1.085   .     S
C788   C1255   1.333   1_545 S
C788   H1310   1.086   1_545 S
C789   O813    1.305   .     A
C789   C791    1.467   .     S
C789   O815    1.300   .     A
C790   C792    1.470   .     S
C790   O814    1.309   .     A
C790   O816    1.297   .     A
C791   C795    1.394   .     A
C791   C797    1.399   .     A
C792   C796    1.396   .     A
C792   C798    1.402   .     A
C793   C801    1.411   .     A
C793   C795    1.388   .     A
C794   C796    1.393   .     A
C794   C802    1.410   .     A
C794   H916    1.083   .     S
C795   H836    1.083   .     S
C796   H835    1.083   .     S
C797   C799    1.409   .     A
C797   H834    1.073   .     S
C798   H833    1.077   .     S
C798   C800    1.408   .     A
C799   C801    1.421   .     A
C799   C803    1.429   .     A
C800   C804    1.430   .     A
C800   C802    1.420   .     A
C801   C83     1.399   1_556 S
C803   C102    1.420   1_556 S
Cu805  N808    2.030   .     S
Cu805  O812    1.948   .     S
Cu805  O809    1.947   .     S
Cu805  Cu806   2.701   .     S
Cu805  O813    1.947   .     S
Cu805  O816    1.929   .     S
Cu806  N807    2.030   .     S
Cu806  O814    1.947   .     S
Cu806  O811    1.948   .     S
Cu806  O810    1.947   .     S
Cu806  O815    1.929   .     S
N807   O843    1.346   .     S
N807   N886    1.286   .     S
O817   C818    1.409   .     S
O817   C863    1.395   .     S
C818   H819    1.110   .     S
C818   C821    1.523   .     S
C818   H898    1.115   .     S
C821   H822    1.110   .     S
C821   H823    1.111   .     S
C821   H824    1.109   .     S
O825   C826    1.410   .     S
C826   C829    1.521   .     S
C826   H827    1.110   .     S
H828   C904    1.114   .     S
C829   H832    1.111   .     S
C829   H830    1.111   .     S
C829   H1065   1.110   .     S
H831   C1297   1.110   1_545 S
H837   C871    1.083   .     S
H841   C1255   1.085   1_545 S
H842   C1022   1.086   .     S
O843   C844    1.406   .     S
C844   H845    1.107   .     S
C844   H924    1.113   .     S
C844   C925    1.522   .     S
C847   H848    1.109   .     S
C847   H849    1.111   .     S
C847   H850    1.109   .     S
O851   N886    1.349   .     S
O851   C930    1.408   .     S
C852   H854    1.108   .     S
C852   H853    1.114   .     S
C855   H856    1.110   .     S
C855   C930    1.522   .     S
C855   H935    1.106   .     S
C855   H1326   1.111   1_545 S
H858   C1089   1.111   .     S
C859   O889    1.294   .     A
C859   O887    1.291   .     A
C859   C865    1.428   .     S
C860   O890    1.294   .     A
C860   C866    1.428   .     S
C860   O888    1.292   .     A
C861   C882    1.417   .     A
C861   C863    1.408   .     A
C861   H917    1.075   .     S
C862   C881    1.417   .     A
C862   H918    1.073   .     S
C862   C864    1.395   .     A
C864   C178    1.400   1_556 S
C864   O747    1.385   1_655 S
C865   C1100   1.333   .     S
C865   H1153   1.085   .     S
C866   C1333   1.333   1_545 S
C866   H1388   1.086   1_545 S
C867   O891    1.305   .     A
C867   C869    1.467   .     S
C867   O893    1.300   .     A
C868   C870    1.470   .     S
C868   O892    1.309   .     A
C868   O894    1.297   .     A
C869   C873    1.394   .     A
C869   C875    1.399   .     A
C870   C874    1.396   .     A
C870   C876    1.402   .     A
C871   C879    1.411   .     A
C871   C873    1.388   .     A
C872   C874    1.393   .     A
C872   C880    1.410   .     A
C872   H760    1.083   1_655 S
C873   H914    1.083   .     S
C874   H913    1.083   .     S
C875   C877    1.409   .     A
C875   H912    1.073   .     S
C876   H911    1.077   .     S
C876   C878    1.408   .     A
C877   C879    1.421   .     A
C877   C881    1.429   .     A
C878   C882    1.430   .     A
C878   C880    1.420   .     A
C879   C161    1.399   1_556 S
C881   C180    1.420   1_556 S
Cu883  N886    2.030   .     S
Cu883  O890    1.948   .     S
Cu883  O887    1.947   .     S
Cu883  Cu884   2.701   .     S
Cu883  O891    1.947   .     S
Cu883  O894    1.929   .     S
Cu884  N885    2.030   .     S
Cu884  O892    1.947   .     S
Cu884  O889    1.948   .     S
Cu884  O888    1.947   .     S
Cu884  O893    1.929   .     S
N885   O921    1.346   .     S
N885   N730    1.286   1_655 S
O895   C896    1.409   .     S
O895   C707    1.395   1_655 S
C896   H897    1.110   .     S
C896   C899    1.523   .     S
C896   H742    1.115   1_655 S
C899   H900    1.110   .     S
C899   H901    1.111   .     S
C899   H902    1.109   .     S
O903   C904    1.410   .     S
C904   C907    1.521   .     S
C904   H905    1.110   .     S
H906   C748    1.114   1_655 S
C907   H910    1.111   .     S
C907   H908    1.111   .     S
C907   H1143   1.110   .     S
H909   C1375   1.110   1_545 S
H915   C715    1.083   1_655 S
H919   C1333   1.085   1_545 S
H920   C1100   1.086   .     S
O921   C922    1.406   .     S
C922   H923    1.107   .     S
C922   H768    1.113   1_655 S
C922   C769    1.522   1_655 S
C925   H926    1.109   .     S
C925   H927    1.111   .     S
C925   H928    1.109   .     S
O929   N730    1.349   1_655 S
O929   C774    1.408   1_655 S
C930   H932    1.108   .     S
C930   H931    1.114   .     S
C933   H934    1.110   .     S
C933   C774    1.522   1_655 S
C933   H779    1.106   1_655 S
C933   H1404   1.111   1_545 S
H936   C1167   1.111   .     S
C937   O967    1.294   .     A
C937   O965    1.291   .     A
C937   C943    1.428   .     S
C938   O968    1.294   .     A
C938   C944    1.428   .     S
C938   O966    1.292   .     A
C939   C960    1.417   .     A
C939   C941    1.408   .     A
C939   H995    1.075   .     S
C940   C959    1.417   .     A
C940   H996    1.073   .     S
C940   C942    1.395   .     A
C941   O1129   1.395   1_455 S
C942   C256    1.400   1_556 S
C942   O1059   1.385   .     S
C943   C1178   1.333   .     S
C943   H1231   1.085   .     S
C945   O969    1.305   .     A
C945   C947    1.467   .     S
C945   O971    1.300   .     A
C946   C948    1.470   .     S
C946   O970    1.309   .     A
C946   O972    1.297   .     A
C947   C951    1.394   .     A
C947   C953    1.399   .     A
C948   C952    1.396   .     A
C948   C954    1.402   .     A
C949   C957    1.411   .     A
C949   C951    1.388   .     A
C949   H1149   1.083   1_455 S
C950   C952    1.393   .     A
C950   C958    1.410   .     A
C950   H1072   1.083   .     S
C951   H992    1.083   .     S
C952   H991    1.083   .     S
C953   C955    1.409   .     A
C953   H990    1.073   .     S
C954   H989    1.077   .     S
C954   C956    1.408   .     A
C955   C957    1.421   .     A
C955   C959    1.429   .     A
C956   C960    1.430   .     A
C956   C958    1.420   .     A
C957   C239    1.399   1_556 S
C959   C258    1.420   1_556 S
Cu961  N964    2.030   .     S
Cu961  O968    1.948   .     S
Cu961  O965    1.947   .     S
Cu961  Cu962   2.701   .     S
Cu961  O969    1.947   .     S
Cu961  O972    1.929   .     S
Cu962  N963    2.030   .     S
Cu962  O970    1.947   .     S
Cu962  O967    1.948   .     S
Cu962  O966    1.947   .     S
Cu962  O971    1.929   .     S
N963   O999    1.346   .     S
N963   N1042   1.286   .     S
N964   N1119   1.286   1_455 S
N964   O1163   1.349   1_455 S
O973   C974    1.409   .     S
O973   C1019   1.395   .     S
C974   H975    1.110   .     S
C974   C977    1.523   .     S
C974   H1054   1.115   .     S
H976   C1130   1.115   1_455 S
C977   H978    1.110   .     S
C977   H979    1.111   .     S
C977   H980    1.109   .     S
O981   C982    1.410   .     S
O981   C1098   1.385   1_455 S
C982   C985    1.521   .     S
C982   H983    1.110   .     S
C982   H1140   1.114   1_455 S
H984   C1060   1.114   .     S
C985   H988    1.111   .     S
C985   H986    1.111   .     S
C985   H1221   1.110   .     S
H993   C1027   1.083   .     S
H994   C1106   1.083   1_455 S
H998   C1178   1.086   .     S
O999   C1000   1.406   .     S
C1000  H1001   1.107   .     S
C1000  H1080   1.113   .     S
C1000  C1081   1.522   .     S
H1002  C1156   1.113   1_455 S
C1003  H1004   1.109   .     S
C1003  H1005   1.111   .     S
C1003  H1006   1.109   .     S
C1003  C1156   1.522   1_455 S
O1007  N1042   1.349   .     S
O1007  C1086   1.408   .     S
C1008  H1010   1.108   .     S
C1008  H1009   1.114   .     S
C1008  O1163   1.408   1_455 S
C1008  C1167   1.522   1_455 S
C1011  H1012   1.110   .     S
C1011  C1086   1.522   .     S
C1011  H1091   1.106   .     S
H1013  C1167   1.106   1_455 S
H1014  C1245   1.111   .     S
C1015  O1045   1.294   .     A
C1015  O1043   1.291   .     A
C1015  C1021   1.428   .     S
C1016  O1046   1.294   .     A
C1016  C1022   1.428   .     S
C1016  O1044   1.292   .     A
C1017  C1038   1.417   .     A
C1017  C1019   1.408   .     A
C1017  H1073   1.075   .     S
C1018  C1037   1.417   .     A
C1018  H1074   1.073   .     S
C1018  C1020   1.395   .     A
C1020  C334    1.400   1_556 S
C1020  O1137   1.385   .     S
C1021  C1256   1.333   .     S
C1021  H1309   1.085   .     S
C1023  O1047   1.305   .     A
C1023  C1025   1.467   .     S
C1023  O1049   1.300   .     A
C1024  C1026   1.470   .     S
C1024  O1048   1.309   .     A
C1024  O1050   1.297   .     A
C1025  C1029   1.394   .     A
C1025  C1031   1.399   .     A
C1026  C1030   1.396   .     A
C1026  C1032   1.402   .     A
C1027  C1035   1.411   .     A
C1027  C1029   1.388   .     A
C1028  C1030   1.393   .     A
C1028  C1036   1.410   .     A
C1028  H1150   1.083   .     S
C1029  H1070   1.083   .     S
C1030  H1069   1.083   .     S
C1031  C1033   1.409   .     A
C1031  H1068   1.073   .     S
C1032  H1067   1.077   .     S
C1032  C1034   1.408   .     A
C1033  C1035   1.421   .     A
C1033  C1037   1.429   .     A
C1034  C1038   1.430   .     A
C1034  C1036   1.420   .     A
C1035  C317    1.399   1_556 S
C1037  C336    1.420   1_556 S
Cu1039 N1042   2.030   .     S
Cu1039 O1046   1.948   .     S
Cu1039 O1043   1.947   .     S
Cu1039 Cu1040  2.701   .     S
Cu1039 O1047   1.947   .     S
Cu1039 O1050   1.929   .     S
Cu1040 N1041   2.030   .     S
Cu1040 O1048   1.947   .     S
Cu1040 O1045   1.948   .     S
Cu1040 O1044   1.947   .     S
Cu1040 O1049   1.929   .     S
N1041  O1077   1.346   .     S
N1041  N1120   1.286   .     S
O1051  C1052   1.409   .     S
O1051  C1097   1.395   .     S
C1052  H1053   1.110   .     S
C1052  C1055   1.523   .     S
C1052  H1132   1.115   .     S
C1055  H1056   1.110   .     S
C1055  H1057   1.111   .     S
C1055  H1058   1.109   .     S
O1059  C1060   1.410   .     S
C1060  C1063   1.521   .     S
C1060  H1061   1.110   .     S
H1062  C1138   1.114   .     S
C1063  H1066   1.111   .     S
C1063  H1064   1.111   .     S
C1063  H1299   1.110   .     S
H1071  C1105   1.083   .     S
H1076  C1256   1.086   .     S
O1077  C1078   1.406   .     S
C1078  H1079   1.107   .     S
C1078  H1158   1.113   .     S
C1078  C1159   1.522   .     S
C1081  H1082   1.109   .     S
C1081  H1083   1.111   .     S
C1081  H1084   1.109   .     S
O1085  N1120   1.349   .     S
O1085  C1164   1.408   .     S
C1086  H1088   1.108   .     S
C1086  H1087   1.114   .     S
C1089  H1090   1.110   .     S
C1089  C1164   1.522   .     S
C1089  H1169   1.106   .     S
H1092  C1323   1.111   .     S
C1093  O1123   1.294   .     A
C1093  O1121   1.291   .     A
C1093  C1099   1.428   .     S
C1094  O1124   1.294   .     A
C1094  C1100   1.428   .     S
C1094  O1122   1.292   .     A
C1095  C1116   1.417   .     A
C1095  C1097   1.408   .     A
C1095  H1151   1.075   .     S
C1096  C1115   1.417   .     A
C1096  H1152   1.073   .     S
C1096  C1098   1.395   .     A
C1098  C412    1.400   1_556 S
C1098  O981    1.385   1_655 S
C1099  C1334   1.333   .     S
C1099  H1387   1.085   .     S
C1101  O1125   1.305   .     A
C1101  C1103   1.467   .     S
C1101  O1127   1.300   .     A
C1102  C1104   1.470   .     S
C1102  O1126   1.309   .     A
C1102  O1128   1.297   .     A
C1103  C1107   1.394   .     A
C1103  C1109   1.399   .     A
C1104  C1108   1.396   .     A
C1104  C1110   1.402   .     A
C1105  C1113   1.411   .     A
C1105  C1107   1.388   .     A
C1106  C1108   1.393   .     A
C1106  C1114   1.410   .     A
C1106  H994    1.083   1_655 S
C1107  H1148   1.083   .     S
C1108  H1147   1.083   .     S
C1109  C1111   1.409   .     A
C1109  H1146   1.073   .     S
C1110  H1145   1.077   .     S
C1110  C1112   1.408   .     A
C1111  C1113   1.421   .     A
C1111  C1115   1.429   .     A
C1112  C1116   1.430   .     A
C1112  C1114   1.420   .     A
C1113  C395    1.399   1_556 S
C1115  C414    1.420   1_556 S
Cu1117 N1120   2.030   .     S
Cu1117 O1124   1.948   .     S
Cu1117 O1121   1.947   .     S
Cu1117 Cu1118  2.701   .     S
Cu1117 O1125   1.947   .     S
Cu1117 O1128   1.929   .     S
Cu1118 N1119   2.030   .     S
Cu1118 O1126   1.947   .     S
Cu1118 O1123   1.948   .     S
Cu1118 O1122   1.947   .     S
Cu1118 O1127   1.929   .     S
N1119  O1155   1.346   .     S
N1119  N964    1.286   1_655 S
O1129  C1130   1.409   .     S
O1129  C941    1.395   1_655 S
C1130  H1131   1.110   .     S
C1130  C1133   1.523   .     S
C1130  H976    1.115   1_655 S
C1133  H1134   1.110   .     S
C1133  H1135   1.111   .     S
C1133  H1136   1.109   .     S
O1137  C1138   1.410   .     S
C1138  C1141   1.521   .     S
C1138  H1139   1.110   .     S
H1140  C982    1.114   1_655 S
C1141  H1144   1.111   .     S
C1141  H1142   1.111   .     S
C1141  H1377   1.110   .     S
H1149  C949    1.083   1_655 S
H1154  C1334   1.086   .     S
O1155  C1156   1.406   .     S
C1156  H1157   1.107   .     S
C1156  H1002   1.113   1_655 S
C1156  C1003   1.522   1_655 S
C1159  H1160   1.109   .     S
C1159  H1161   1.111   .     S
C1159  H1162   1.109   .     S
O1163  N964    1.349   1_655 S
O1163  C1008   1.408   1_655 S
C1164  H1166   1.108   .     S
C1164  H1165   1.114   .     S
C1167  H1168   1.110   .     S
C1167  C1008   1.522   1_655 S
C1167  H1013   1.106   1_655 S
H1170  C1401   1.111   .     S
C1171  O1201   1.294   .     A
C1171  O1199   1.291   .     A
C1171  C1177   1.428   .     S
C1172  O1202   1.294   .     A
C1172  C1178   1.428   .     S
C1172  O1200   1.292   .     A
C1173  C1194   1.417   .     A
C1173  C1175   1.408   .     A
C1173  H1229   1.075   .     S
C1174  C1193   1.417   .     A
C1174  H1230   1.073   .     S
C1174  C1176   1.395   .     A
C1175  O1363   1.395   1_455 S
C1176  C490    1.400   1_556 S
C1176  O1293   1.385   .     S
C1177  C710    1.333   1_565 S
C1177  H763    1.085   1_565 S
C1179  O1203   1.305   .     A
C1179  C1181   1.467   .     S
C1179  O1205   1.300   .     A
C1180  C1182   1.470   .     S
C1180  O1204   1.309   .     A
C1180  O1206   1.297   .     A
C1181  C1185   1.394   .     A
C1181  C1187   1.399   .     A
C1182  C1186   1.396   .     A
C1182  C1188   1.402   .     A
C1183  C1191   1.411   .     A
C1183  C1185   1.388   .     A
C1183  H1383   1.083   1_455 S
C1184  C1186   1.393   .     A
C1184  C1192   1.410   .     A
C1184  H1306   1.083   .     S
C1185  H1226   1.083   .     S
C1186  H1225   1.083   .     S
C1187  C1189   1.409   .     A
C1187  H1224   1.073   .     S
C1188  H1223   1.077   .     S
C1188  C1190   1.408   .     A
C1189  C1191   1.421   .     A
C1189  C1193   1.429   .     A
C1190  C1194   1.430   .     A
C1190  C1192   1.420   .     A
C1191  C473    1.399   1_556 S
C1193  C492    1.420   1_556 S
Cu1195 N1198   2.030   .     S
Cu1195 O1202   1.948   .     S
Cu1195 O1199   1.947   .     S
Cu1195 Cu1196  2.701   .     S
Cu1195 O1203   1.947   .     S
Cu1195 O1206   1.929   .     S
Cu1196 N1197   2.030   .     S
Cu1196 O1204   1.947   .     S
Cu1196 O1201   1.948   .     S
Cu1196 O1200   1.947   .     S
Cu1196 O1205   1.929   .     S
N1197  O1233   1.346   .     S
N1197  N1276   1.286   .     S
N1198  N1353   1.286   1_455 S
N1198  O1397   1.349   1_455 S
O1207  C1208   1.409   .     S
O1207  C1253   1.395   .     S
C1208  H1209   1.110   .     S
C1208  C1211   1.523   .     S
C1208  H1288   1.115   .     S
H1210  C1364   1.115   1_455 S
C1211  H1212   1.110   .     S
C1211  H1213   1.111   .     S
C1211  H1214   1.109   .     S
O1215  C1216   1.410   .     S
O1215  C1332   1.385   1_455 S
C1216  C1219   1.521   .     S
C1216  H1217   1.110   .     S
C1216  H1374   1.114   1_455 S
H1218  C1294   1.114   .     S
C1219  H1222   1.111   .     S
C1219  H1220   1.111   .     S
C1219  H753    1.110   1_565 S
H1227  C1261   1.083   .     S
H1228  C1340   1.083   1_455 S
H1232  C710    1.086   1_565 S
O1233  C1234   1.406   .     S
C1234  H1235   1.107   .     S
C1234  H1314   1.113   .     S
C1234  C1315   1.522   .     S
H1236  C1390   1.113   1_455 S
C1237  H1238   1.109   .     S
C1237  H1239   1.111   .     S
C1237  H1240   1.109   .     S
C1237  C1390   1.522   1_455 S
O1241  N1276   1.349   .     S
O1241  C1320   1.408   .     S
C1242  H1244   1.108   .     S
C1242  H1243   1.114   .     S
C1242  O1397   1.408   1_455 S
C1242  C1401   1.522   1_455 S
C1245  H1246   1.110   .     S
C1245  C1320   1.522   .     S
C1245  H1325   1.106   .     S
H1247  C1401   1.106   1_455 S
H1248  C777    1.111   1_565 S
C1249  O1279   1.294   .     A
C1249  O1277   1.291   .     A
C1249  C1255   1.428   .     S
C1250  O1280   1.294   .     A
C1250  C1256   1.428   .     S
C1250  O1278   1.292   .     A
C1251  C1272   1.417   .     A
C1251  C1253   1.408   .     A
C1251  H1307   1.075   .     S
C1252  C1271   1.417   .     A
C1252  H1308   1.073   .     S
C1252  C1254   1.395   .     A
C1254  C568    1.400   1_556 S
C1254  O1371   1.385   .     S
C1255  C788    1.333   1_565 S
C1255  H841    1.085   1_565 S
C1257  O1281   1.305   .     A
C1257  C1259   1.467   .     S
C1257  O1283   1.300   .     A
C1258  C1260   1.470   .     S
C1258  O1282   1.309   .     A
C1258  O1284   1.297   .     A
C1259  C1263   1.394   .     A
C1259  C1265   1.399   .     A
C1260  C1264   1.396   .     A
C1260  C1266   1.402   .     A
C1261  C1269   1.411   .     A
C1261  C1263   1.388   .     A
C1262  C1264   1.393   .     A
C1262  C1270   1.410   .     A
C1262  H1384   1.083   .     S
C1263  H1304   1.083   .     S
C1264  H1303   1.083   .     S
C1265  C1267   1.409   .     A
C1265  H1302   1.073   .     S
C1266  H1301   1.077   .     S
C1266  C1268   1.408   .     A
C1267  C1269   1.421   .     A
C1267  C1271   1.429   .     A
C1268  C1272   1.430   .     A
C1268  C1270   1.420   .     A
C1269  C551    1.399   1_556 S
C1271  C570    1.420   1_556 S
Cu1273 N1276   2.030   .     S
Cu1273 O1280   1.948   .     S
Cu1273 O1277   1.947   .     S
Cu1273 Cu1274  2.701   .     S
Cu1273 O1281   1.947   .     S
Cu1273 O1284   1.929   .     S
Cu1274 N1275   2.030   .     S
Cu1274 O1282   1.947   .     S
Cu1274 O1279   1.948   .     S
Cu1274 O1278   1.947   .     S
Cu1274 O1283   1.929   .     S
N1275  O1311   1.346   .     S
N1275  N1354   1.286   .     S
O1285  C1286   1.409   .     S
O1285  C1331   1.395   .     S
C1286  H1287   1.110   .     S
C1286  C1289   1.523   .     S
C1286  H1366   1.115   .     S
C1289  H1290   1.110   .     S
C1289  H1291   1.111   .     S
C1289  H1292   1.109   .     S
O1293  C1294   1.410   .     S
C1294  C1297   1.521   .     S
C1294  H1295   1.110   .     S
H1296  C1372   1.114   .     S
C1297  H1300   1.111   .     S
C1297  H1298   1.111   .     S
C1297  H831    1.110   1_565 S
H1305  C1339   1.083   .     S
H1310  C788    1.086   1_565 S
O1311  C1312   1.406   .     S
C1312  H1313   1.107   .     S
C1312  H1392   1.113   .     S
C1312  C1393   1.522   .     S
C1315  H1316   1.109   .     S
C1315  H1317   1.111   .     S
C1315  H1318   1.109   .     S
O1319  N1354   1.349   .     S
O1319  C1398   1.408   .     S
C1320  H1322   1.108   .     S
C1320  H1321   1.114   .     S
C1323  H1324   1.110   .     S
C1323  C1398   1.522   .     S
C1323  H1403   1.106   .     S
H1326  C855    1.111   1_565 S
C1327  O1357   1.294   .     A
C1327  O1355   1.291   .     A
C1327  C1333   1.428   .     S
C1328  O1358   1.294   .     A
C1328  C1334   1.428   .     S
C1328  O1356   1.292   .     A
C1329  C1350   1.417   .     A
C1329  C1331   1.408   .     A
C1329  H1385   1.075   .     S
C1330  C1349   1.417   .     A
C1330  H1386   1.073   .     S
C1330  C1332   1.395   .     A
C1332  C646    1.400   1_556 S
C1332  O1215   1.385   1_655 S
C1333  C866    1.333   1_565 S
C1333  H919    1.085   1_565 S
C1335  O1359   1.305   .     A
C1335  C1337   1.467   .     S
C1335  O1361   1.300   .     A
C1336  C1338   1.470   .     S
C1336  O1360   1.309   .     A
C1336  O1362   1.297   .     A
C1337  C1341   1.394   .     A
C1337  C1343   1.399   .     A
C1338  C1342   1.396   .     A
C1338  C1344   1.402   .     A
C1339  C1347   1.411   .     A
C1339  C1341   1.388   .     A
C1340  C1342   1.393   .     A
C1340  C1348   1.410   .     A
C1340  H1228   1.083   1_655 S
C1341  H1382   1.083   .     S
C1342  H1381   1.083   .     S
C1343  C1345   1.409   .     A
C1343  H1380   1.073   .     S
C1344  H1379   1.077   .     S
C1344  C1346   1.408   .     A
C1345  C1347   1.421   .     A
C1345  C1349   1.429   .     A
C1346  C1350   1.430   .     A
C1346  C1348   1.420   .     A
C1347  C629    1.399   1_556 S
C1349  C648    1.420   1_556 S
Cu1351 N1354   2.030   .     S
Cu1351 O1358   1.948   .     S
Cu1351 O1355   1.947   .     S
Cu1351 Cu1352  2.701   .     S
Cu1351 O1359   1.947   .     S
Cu1351 O1362   1.929   .     S
Cu1352 N1353   2.030   .     S
Cu1352 O1360   1.947   .     S
Cu1352 O1357   1.948   .     S
Cu1352 O1356   1.947   .     S
Cu1352 O1361   1.929   .     S
N1353  O1389   1.346   .     S
N1353  N1198   1.286   1_655 S
O1363  C1364   1.409   .     S
O1363  C1175   1.395   1_655 S
C1364  H1365   1.110   .     S
C1364  C1367   1.523   .     S
C1364  H1210   1.115   1_655 S
C1367  H1368   1.110   .     S
C1367  H1369   1.111   .     S
C1367  H1370   1.109   .     S
O1371  C1372   1.410   .     S
C1372  C1375   1.521   .     S
C1372  H1373   1.110   .     S
H1374  C1216   1.114   1_655 S
C1375  H1378   1.111   .     S
C1375  H1376   1.111   .     S
C1375  H909    1.110   1_565 S
H1383  C1183   1.083   1_655 S
H1388  C866    1.086   1_565 S
O1389  C1390   1.406   .     S
C1390  H1391   1.107   .     S
C1390  H1236   1.113   1_655 S
C1390  C1237   1.522   1_655 S
C1393  H1394   1.109   .     S
C1393  H1395   1.111   .     S
C1393  H1396   1.109   .     S
O1397  N1198   1.349   1_655 S
O1397  C1242   1.408   1_655 S
C1398  H1400   1.108   .     S
C1398  H1399   1.114   .     S
C1401  H1402   1.110   .     S
C1401  C1242   1.522   1_655 S
C1401  H1247   1.106   1_655 S
H1404  C933    1.111   1_565 S
