data_str_m1_o1_o2_pcu_sym.84
_audit_creation_date              2020-01-03
_audit_creation_method            'Materials Studio'
_symmetry_space_group_name_H-M    'P1'
_symmetry_Int_Tables_number       1
_symmetry_cell_setting            triclinic
loop_
_symmetry_equiv_pos_as_xyz
  x,y,z
_cell_length_a                    36.6080
_cell_length_b                    36.6080
_cell_length_c                    34.5482
_cell_angle_alpha                 90.0000
_cell_angle_beta                  90.0000
_cell_angle_gamma                 90.0000
loop_
_atom_site_label
_atom_site_type_symbol
_atom_site_fract_x
_atom_site_fract_y
_atom_site_fract_z
_atom_site_U_iso_or_equiv
_atom_site_adp_type
_atom_site_occupancy
C1     C     0.21877   0.48894   0.04181   0.00000  Uiso   1.00
C2     C     0.03123   0.23894   0.45819   0.00000  Uiso   1.00
C3     C     0.34804   0.40196   0.75000   0.00000  Uiso   1.00
C4     C     0.40191   0.15191   0.25000   0.00000  Uiso   1.00
C5     C     0.09804   0.34804   0.75000   0.00000  Uiso   1.00
C6     C     0.34810   0.40191   0.25000   0.00000  Uiso   1.00
C7     C     0.15196   0.09804   0.75000   0.00000  Uiso   1.00
C8     C     0.09810   0.15191   0.75000   0.00000  Uiso   1.00
C9     C     0.40196   0.34804   0.25000   0.00000  Uiso   1.00
C10    C     0.15191   0.40190   0.75000   0.00000  Uiso   1.00
C11    C     0.34804   0.09804   0.25000   0.00000  Uiso   1.00
C12    C     0.40190   0.34810   0.75000   0.00000  Uiso   1.00
C13    C     0.26106   0.46877   0.54181   0.00000  Uiso   1.00
C14    C     0.09804   0.15196   0.25000   0.00000  Uiso   1.00
C15    C     0.34810   0.09810   0.75000   0.00000  Uiso   1.00
C16    C     0.15196   0.40196   0.25000   0.00000  Uiso   1.00
C17    C     0.25000   0.00000   0.10244   0.00000  Uiso   1.00
C18    C     0.25000   0.00000   0.89756   0.00000  Uiso   1.00
C19    C     0.00000   0.25000   0.10244   0.00000  Uiso   1.00
C20    C     0.00000   0.25000   0.89756   0.00000  Uiso   1.00
C21    C     0.00000   0.25000   0.60244   0.00000  Uiso   1.00
C22    C     0.00000   0.25000   0.39756   0.00000  Uiso   1.00
C23    C     0.25000   0.00000   0.60244   0.00000  Uiso   1.00
C24    C     0.26106   0.03123   0.45819   0.00000  Uiso   1.00
C25    C     0.25000   0.00000   0.39756   0.00000  Uiso   1.00
C26    C     0.13883   0.43450   0.32994   0.00000  Uiso   1.00
C27    C     0.36241   0.06953   0.66673   0.00000  Uiso   1.00
C28    C     0.11117   0.18450   0.17005   0.00000  Uiso   1.00
C29    C     0.38760   0.31953   0.83327   0.00000  Uiso   1.00
C30    C     0.36117   0.06550   0.32994   0.00000  Uiso   1.00
C31    C     0.13760   0.43047   0.66673   0.00000  Uiso   1.00
C32    C     0.38883   0.31550   0.17005   0.00000  Uiso   1.00
C33    C     0.11240   0.18047   0.83327   0.00000  Uiso   1.00
C34    C     0.18450   0.11117   0.82994   0.00000  Uiso   1.00
C35    C     0.03123   0.26106   0.54181   0.00000  Uiso   1.00
C36    C     0.31953   0.38760   0.16673   0.00000  Uiso   1.00
C37    C     0.06550   0.36117   0.67005   0.00000  Uiso   1.00
C38    C     0.43047   0.13759   0.33327   0.00000  Uiso   1.00
C39    C     0.31550   0.38883   0.82994   0.00000  Uiso   1.00
C40    C     0.18047   0.11240   0.16673   0.00000  Uiso   1.00
C41    C     0.43450   0.13883   0.67006   0.00000  Uiso   1.00
C42    C     0.06953   0.36240   0.33327   0.00000  Uiso   1.00
C43    C     0.38883   0.18450   0.82994   0.00000  Uiso   1.00
C44    C     0.11240   0.31953   0.16673   0.00000  Uiso   1.00
C45    C     0.36117   0.43450   0.67005   0.00000  Uiso   1.00
C46    C     0.46877   0.26106   0.45819   0.00000  Uiso   1.00
C47    C     0.13760   0.06953   0.33327   0.00000  Uiso   1.00
C48    C     0.11117   0.31550   0.82994   0.00000  Uiso   1.00
C49    C     0.38759   0.18047   0.16673   0.00000  Uiso   1.00
C50    C     0.13883   0.06550   0.67005   0.00000  Uiso   1.00
C51    C     0.36240   0.43047   0.33327   0.00000  Uiso   1.00
C52    C     0.43450   0.36117   0.32994   0.00000  Uiso   1.00
C53    C     0.06953   0.13760   0.66673   0.00000  Uiso   1.00
C54    C     0.31550   0.11117   0.17006   0.00000  Uiso   1.00
C55    C     0.18047   0.38760   0.83327   0.00000  Uiso   1.00
C56    C     0.06550   0.13883   0.32994   0.00000  Uiso   1.00
C57    C     0.23894   0.03123   0.54181   0.00000  Uiso   1.00
C58    C     0.43047   0.36240   0.66673   0.00000  Uiso   1.00
C59    C     0.18450   0.38883   0.17005   0.00000  Uiso   1.00
C60    C     0.31953   0.11241   0.83327   0.00000  Uiso   1.00
C61    C     0.23894   0.46877   0.45819   0.00000  Uiso   1.00
C62    C     0.21870   0.48917   0.08208   0.00000  Uiso   1.00
C63    C     0.28130   0.48917   0.91792   0.00000  Uiso   1.00
C64    C     0.01083   0.21870   0.08208   0.00000  Uiso   1.00
C65    C     0.28123   0.48894   0.95819   0.00000  Uiso   1.00
C66    C     0.01083   0.28130   0.91792   0.00000  Uiso   1.00
C67    C     0.28130   0.01083   0.08208   0.00000  Uiso   1.00
C68    C     0.21870   0.01083   0.91792   0.00000  Uiso   1.00
C69    C     0.48917   0.28130   0.08208   0.00000  Uiso   1.00
C70    C     0.48917   0.21870   0.91792   0.00000  Uiso   1.00
C71    C     0.46870   0.23917   0.58208   0.00000  Uiso   1.00
C72    C     0.03130   0.23917   0.41792   0.00000  Uiso   1.00
C73    C     0.26083   0.46870   0.58208   0.00000  Uiso   1.00
C74    C     0.26083   0.03130   0.41792   0.00000  Uiso   1.00
C75    C     0.03130   0.26083   0.58208   0.00000  Uiso   1.00
C76    C     0.01106   0.21877   0.04181   0.00000  Uiso   1.00
C77    C     0.46870   0.26083   0.41792   0.00000  Uiso   1.00
C78    C     0.23917   0.03130   0.58208   0.00000  Uiso   1.00
C79    C     0.23917   0.46870   0.41792   0.00000  Uiso   1.00
C80    C     0.25000   0.00000   0.02132   0.00000  Uiso   1.00
C81    C     0.25000   0.00000   0.97868   0.00000  Uiso   1.00
C82    C     0.00000   0.25000   0.02132   0.00000  Uiso   1.00
C83    C     0.00000   0.25000   0.97868   0.00000  Uiso   1.00
C84    C     0.00000   0.25000   0.52132   0.00000  Uiso   1.00
C85    C     0.00000   0.25000   0.47868   0.00000  Uiso   1.00
C86    C     0.25000   0.00000   0.52132   0.00000  Uiso   1.00
C87    C     0.01106   0.28123   0.95819   0.00000  Uiso   1.00
C88    C     0.25000   0.00000   0.47868   0.00000  Uiso   1.00
C89    C     0.25000   0.00000   0.35522   0.00000  Uiso   1.00
C90    C     0.25000   0.00000   0.64478   0.00000  Uiso   1.00
C91    C     0.00000   0.25000   0.35522   0.00000  Uiso   1.00
C92    C     0.00000   0.25000   0.64478   0.00000  Uiso   1.00
C93    C     0.00000   0.25000   0.85522   0.00000  Uiso   1.00
C94    C     0.00000   0.25000   0.14478   0.00000  Uiso   1.00
C95    C     0.25000   0.00000   0.85522   0.00000  Uiso   1.00
C96    C     0.25000   0.00000   0.14478   0.00000  Uiso   1.00
C97    C     0.17998   0.07002   0.25000   0.00000  Uiso   1.00
C98    C     0.28123   0.01106   0.04181   0.00000  Uiso   1.00
C99    C     0.32001   0.42999   0.75000   0.00000  Uiso   1.00
C100   C     0.42998   0.17998   0.25000   0.00000  Uiso   1.00
C101   C     0.07001   0.32001   0.75000   0.00000  Uiso   1.00
C102   C     0.32002   0.42998   0.25000   0.00000  Uiso   1.00
C103   C     0.17999   0.07001   0.75000   0.00000  Uiso   1.00
C104   C     0.07002   0.32002   0.25000   0.00000  Uiso   1.00
C105   C     0.42999   0.17999   0.75000   0.00000  Uiso   1.00
C106   C     0.17998   0.42998   0.75000   0.00000  Uiso   1.00
C107   C     0.32001   0.07001   0.25000   0.00000  Uiso   1.00
C108   C     0.42998   0.32002   0.75000   0.00000  Uiso   1.00
C109   C     0.21877   0.01106   0.95819   0.00000  Uiso   1.00
C110   C     0.07001   0.17999   0.25000   0.00000  Uiso   1.00
C111   C     0.32002   0.07002   0.75000   0.00000  Uiso   1.00
C112   C     0.17999   0.42999   0.25000   0.00000  Uiso   1.00
C113   C     0.07002   0.17998   0.75000   0.00000  Uiso   1.00
C114   C     0.42999   0.32001   0.25000   0.00000  Uiso   1.00
C115   C     0.13904   0.38793   0.28551   0.00000  Uiso   1.00
C116   C     0.36067   0.11238   0.71455   0.00000  Uiso   1.00
C117   C     0.11096   0.13793   0.21449   0.00000  Uiso   1.00
C118   C     0.38933   0.36238   0.78544   0.00000  Uiso   1.00
C119   C     0.36096   0.11207   0.28551   0.00000  Uiso   1.00
C120   C     0.48894   0.28123   0.04181   0.00000  Uiso   1.00
C121   C     0.13933   0.38762   0.71455   0.00000  Uiso   1.00
C122   C     0.38904   0.36207   0.21449   0.00000  Uiso   1.00
C123   C     0.11067   0.13762   0.78544   0.00000  Uiso   1.00
C124   C     0.13793   0.11096   0.78551   0.00000  Uiso   1.00
C125   C     0.36238   0.38933   0.21455   0.00000  Uiso   1.00
C126   C     0.11207   0.36096   0.71449   0.00000  Uiso   1.00
C127   C     0.38762   0.13933   0.28544   0.00000  Uiso   1.00
C128   C     0.36207   0.38904   0.78551   0.00000  Uiso   1.00
C129   C     0.13762   0.11067   0.21455   0.00000  Uiso   1.00
C130   C     0.38793   0.13904   0.71449   0.00000  Uiso   1.00
C131   C     0.48894   0.21877   0.95819   0.00000  Uiso   1.00
C132   C     0.11238   0.36067   0.28544   0.00000  Uiso   1.00
C133   C     0.38904   0.13793   0.78551   0.00000  Uiso   1.00
C134   C     0.11067   0.36238   0.21455   0.00000  Uiso   1.00
C135   C     0.36096   0.38793   0.71449   0.00000  Uiso   1.00
C136   C     0.13933   0.11238   0.28544   0.00000  Uiso   1.00
C137   C     0.11096   0.36207   0.78551   0.00000  Uiso   1.00
C138   C     0.38933   0.13762   0.21455   0.00000  Uiso   1.00
C139   C     0.13904   0.11207   0.71449   0.00000  Uiso   1.00
C140   C     0.36067   0.38762   0.28544   0.00000  Uiso   1.00
C141   C     0.38793   0.36096   0.28551   0.00000  Uiso   1.00
C142   C     0.46877   0.23894   0.54181   0.00000  Uiso   1.00
C143   C     0.11238   0.13933   0.71455   0.00000  Uiso   1.00
C144   C     0.36207   0.11096   0.21449   0.00000  Uiso   1.00
C145   C     0.13762   0.38933   0.78544   0.00000  Uiso   1.00
C146   C     0.11207   0.13904   0.28551   0.00000  Uiso   1.00
C147   C     0.38762   0.36067   0.71455   0.00000  Uiso   1.00
C148   C     0.13793   0.38904   0.21449   0.00000  Uiso   1.00
C149   C     0.36238   0.11067   0.78544   0.00000  Uiso   1.00
C150   C     0.09810   0.34810   0.25000   0.00000  Uiso   1.00
C151   C     0.40196   0.15196   0.75000   0.00000  Uiso   1.00
C152   C     0.15191   0.09810   0.25000   0.00000  Uiso   1.00
H153   H     0.19456   0.47966   0.02674   0.00000  Uiso   1.00
H154   H     0.05545   0.22966   0.47326   0.00000  Uiso   1.00
H155   H     0.15792   0.04381   0.67976   0.00000  Uiso   1.00
H156   H     0.13658   0.06334   0.63812   0.00000  Uiso   1.00
H157   H     0.34771   0.44043   0.35929   0.00000  Uiso   1.00
H158   H     0.36150   0.45272   0.31135   0.00000  Uiso   1.00
H159   H     0.39109   0.42503   0.34191   0.00000  Uiso   1.00
H160   H     0.43988   0.38885   0.31770   0.00000  Uiso   1.00
H161   H     0.45619   0.34208   0.32024   0.00000  Uiso   1.00
H162   H     0.43666   0.36342   0.36188   0.00000  Uiso   1.00
H163   H     0.05957   0.15229   0.64071   0.00000  Uiso   1.00
H164   H     0.04728   0.13850   0.68865   0.00000  Uiso   1.00
H165   H     0.27034   0.44456   0.52674   0.00000  Uiso   1.00
H166   H     0.07497   0.10892   0.65809   0.00000  Uiso   1.00
H167   H     0.31011   0.13885   0.18231   0.00000  Uiso   1.00
H168   H     0.29381   0.09208   0.17976   0.00000  Uiso   1.00
H169   H     0.31334   0.11343   0.13812   0.00000  Uiso   1.00
H170   H     0.19043   0.40229   0.85929   0.00000  Uiso   1.00
H171   H     0.20272   0.38850   0.81135   0.00000  Uiso   1.00
H172   H     0.17503   0.35892   0.84191   0.00000  Uiso   1.00
H173   H     0.06012   0.11115   0.31770   0.00000  Uiso   1.00
H174   H     0.04381   0.15792   0.32024   0.00000  Uiso   1.00
H175   H     0.06334   0.13658   0.36188   0.00000  Uiso   1.00
H176   H     0.27034   0.05545   0.47326   0.00000  Uiso   1.00
H177   H     0.44043   0.34771   0.64071   0.00000  Uiso   1.00
H178   H     0.45272   0.36150   0.68865   0.00000  Uiso   1.00
H179   H     0.42503   0.39109   0.65809   0.00000  Uiso   1.00
H180   H     0.18988   0.36115   0.18230   0.00000  Uiso   1.00
H181   H     0.20619   0.40792   0.17976   0.00000  Uiso   1.00
H182   H     0.18666   0.38658   0.13812   0.00000  Uiso   1.00
H183   H     0.30957   0.09771   0.85929   0.00000  Uiso   1.00
H184   H     0.29728   0.11150   0.81135   0.00000  Uiso   1.00
H185   H     0.32497   0.14109   0.84191   0.00000  Uiso   1.00
H186   H     0.05545   0.27034   0.52674   0.00000  Uiso   1.00
H187   H     0.44456   0.27034   0.47326   0.00000  Uiso   1.00
H188   H     0.22966   0.05545   0.52674   0.00000  Uiso   1.00
H189   H     0.22966   0.44456   0.47326   0.00000  Uiso   1.00
H190   H     0.19434   0.48039   0.09727   0.00000  Uiso   1.00
H191   H     0.30566   0.48039   0.90273   0.00000  Uiso   1.00
H192   H     0.01961   0.19434   0.09727   0.00000  Uiso   1.00
H193   H     0.30545   0.47966   0.97326   0.00000  Uiso   1.00
H194   H     0.01961   0.30566   0.90273   0.00000  Uiso   1.00
H195   H     0.30566   0.01961   0.09727   0.00000  Uiso   1.00
H196   H     0.19434   0.01961   0.90273   0.00000  Uiso   1.00
H197   H     0.48039   0.30566   0.09727   0.00000  Uiso   1.00
H198   H     0.48039   0.19434   0.90273   0.00000  Uiso   1.00
H199   H     0.44434   0.23039   0.59727   0.00000  Uiso   1.00
H200   H     0.05566   0.23039   0.40273   0.00000  Uiso   1.00
H201   H     0.26961   0.44434   0.59727   0.00000  Uiso   1.00
H202   H     0.26961   0.05566   0.40273   0.00000  Uiso   1.00
H203   H     0.05566   0.26961   0.59727   0.00000  Uiso   1.00
H204   H     0.02034   0.19456   0.02674   0.00000  Uiso   1.00
H205   H     0.44434   0.26961   0.40273   0.00000  Uiso   1.00
H206   H     0.23039   0.05566   0.59727   0.00000  Uiso   1.00
H207   H     0.23039   0.44434   0.40273   0.00000  Uiso   1.00
H208   H     0.11115   0.43988   0.31770   0.00000  Uiso   1.00
H209   H     0.15792   0.45619   0.32024   0.00000  Uiso   1.00
H210   H     0.13658   0.43666   0.36188   0.00000  Uiso   1.00
H211   H     0.34772   0.05957   0.64070   0.00000  Uiso   1.00
H212   H     0.36149   0.04728   0.68865   0.00000  Uiso   1.00
H213   H     0.39109   0.07496   0.65810   0.00000  Uiso   1.00
H214   H     0.13885   0.18988   0.18230   0.00000  Uiso   1.00
H215   H     0.02034   0.30545   0.97326   0.00000  Uiso   1.00
H216   H     0.09208   0.20619   0.17976   0.00000  Uiso   1.00
H217   H     0.11342   0.18666   0.13812   0.00000  Uiso   1.00
H218   H     0.40229   0.30957   0.85929   0.00000  Uiso   1.00
H219   H     0.38850   0.29728   0.81135   0.00000  Uiso   1.00
H220   H     0.35892   0.32497   0.84191   0.00000  Uiso   1.00
H221   H     0.38885   0.06011   0.31769   0.00000  Uiso   1.00
H222   H     0.34208   0.04381   0.32024   0.00000  Uiso   1.00
H223   H     0.36343   0.06334   0.36188   0.00000  Uiso   1.00
H224   H     0.15229   0.44043   0.64071   0.00000  Uiso   1.00
H225   H     0.13850   0.45272   0.68865   0.00000  Uiso   1.00
H226   H     0.30545   0.02034   0.02674   0.00000  Uiso   1.00
H227   H     0.10892   0.42503   0.65809   0.00000  Uiso   1.00
H228   H     0.36115   0.31012   0.18230   0.00000  Uiso   1.00
H229   H     0.40792   0.29381   0.17976   0.00000  Uiso   1.00
H230   H     0.38658   0.31334   0.13812   0.00000  Uiso   1.00
H231   H     0.09771   0.19043   0.85929   0.00000  Uiso   1.00
H232   H     0.11150   0.20272   0.81135   0.00000  Uiso   1.00
H233   H     0.14109   0.17503   0.84191   0.00000  Uiso   1.00
H234   H     0.18988   0.13885   0.81770   0.00000  Uiso   1.00
H235   H     0.20619   0.09208   0.82024   0.00000  Uiso   1.00
H236   H     0.18666   0.11342   0.86188   0.00000  Uiso   1.00
H237   H     0.19456   0.02034   0.97326   0.00000  Uiso   1.00
H238   H     0.30957   0.40229   0.14071   0.00000  Uiso   1.00
H239   H     0.29728   0.38850   0.18865   0.00000  Uiso   1.00
H240   H     0.32497   0.35892   0.15809   0.00000  Uiso   1.00
H241   H     0.06012   0.38885   0.68230   0.00000  Uiso   1.00
H242   H     0.04381   0.34208   0.67976   0.00000  Uiso   1.00
H243   H     0.06334   0.36342   0.63812   0.00000  Uiso   1.00
H244   H     0.44043   0.15228   0.35930   0.00000  Uiso   1.00
H245   H     0.45272   0.13851   0.31135   0.00000  Uiso   1.00
H246   H     0.42504   0.10891   0.34190   0.00000  Uiso   1.00
H247   H     0.31012   0.36115   0.81770   0.00000  Uiso   1.00
H248   H     0.47966   0.30544   0.02674   0.00000  Uiso   1.00
H249   H     0.29381   0.40792   0.82024   0.00000  Uiso   1.00
H250   H     0.31334   0.38658   0.86188   0.00000  Uiso   1.00
H251   H     0.19043   0.09771   0.14071   0.00000  Uiso   1.00
H252   H     0.20272   0.11150   0.18865   0.00000  Uiso   1.00
H253   H     0.17503   0.14109   0.15809   0.00000  Uiso   1.00
H254   H     0.43989   0.11115   0.68231   0.00000  Uiso   1.00
H255   H     0.45619   0.15792   0.67975   0.00000  Uiso   1.00
H256   H     0.43666   0.13657   0.63812   0.00000  Uiso   1.00
H257   H     0.05957   0.34771   0.35929   0.00000  Uiso   1.00
H258   H     0.04728   0.36150   0.31135   0.00000  Uiso   1.00
H259   H     0.47966   0.19456   0.97326   0.00000  Uiso   1.00
H260   H     0.07497   0.39109   0.34191   0.00000  Uiso   1.00
H261   H     0.36115   0.18988   0.81770   0.00000  Uiso   1.00
H262   H     0.40792   0.20619   0.82024   0.00000  Uiso   1.00
H263   H     0.38658   0.18666   0.86188   0.00000  Uiso   1.00
H264   H     0.09771   0.30957   0.14071   0.00000  Uiso   1.00
H265   H     0.11150   0.29728   0.18865   0.00000  Uiso   1.00
H266   H     0.14109   0.32497   0.15809   0.00000  Uiso   1.00
H267   H     0.38885   0.43988   0.68230   0.00000  Uiso   1.00
H268   H     0.34208   0.45619   0.67976   0.00000  Uiso   1.00
H269   H     0.36342   0.43666   0.63812   0.00000  Uiso   1.00
H270   H     0.44456   0.22966   0.52674   0.00000  Uiso   1.00
H271   H     0.15229   0.05957   0.35929   0.00000  Uiso   1.00
H272   H     0.13850   0.04728   0.31135   0.00000  Uiso   1.00
H273   H     0.10892   0.07497   0.34191   0.00000  Uiso   1.00
H274   H     0.13885   0.31012   0.81770   0.00000  Uiso   1.00
H275   H     0.09208   0.29381   0.82024   0.00000  Uiso   1.00
H276   H     0.11342   0.31334   0.86188   0.00000  Uiso   1.00
H277   H     0.40228   0.19043   0.14070   0.00000  Uiso   1.00
H278   H     0.38851   0.20272   0.18865   0.00000  Uiso   1.00
H279   H     0.35891   0.17504   0.15809   0.00000  Uiso   1.00
H280   H     0.11115   0.06012   0.68230   0.00000  Uiso   1.00
O281   O     0.25000   0.00000   0.25000   0.00000  Uiso   1.00
O282   O     0.25000   0.46964   0.66317   0.00000  Uiso   1.00
O283   O     0.46964   0.25000   0.33683   0.00000  Uiso   1.00
O284   O     0.03036   0.25000   0.66317   0.00000  Uiso   1.00
O285   O     0.00000   0.21964   0.83683   0.00000  Uiso   1.00
O286   O     0.00000   0.28036   0.16317   0.00000  Uiso   1.00
O287   O     0.28036   0.00000   0.83683   0.00000  Uiso   1.00
O288   O     0.21964   0.00000   0.16317   0.00000  Uiso   1.00
O289   O     0.00000   0.28036   0.83683   0.00000  Uiso   1.00
O290   O     0.00000   0.21964   0.16317   0.00000  Uiso   1.00
O291   O     0.21964   0.00000   0.83683   0.00000  Uiso   1.00
O292   O     0.25000   0.00000   0.75000   0.00000  Uiso   1.00
O293   O     0.28036   0.00000   0.16317   0.00000  Uiso   1.00
O294   O     0.20726   0.07307   0.27282   0.00000  Uiso   1.00
O295   O     0.29275   0.42693   0.72718   0.00000  Uiso   1.00
O296   O     0.42693   0.20726   0.27282   0.00000  Uiso   1.00
O297   O     0.07307   0.29275   0.72718   0.00000  Uiso   1.00
O298   O     0.29275   0.42693   0.27282   0.00000  Uiso   1.00
O299   O     0.20726   0.07307   0.72718   0.00000  Uiso   1.00
O300   O     0.07307   0.29275   0.27282   0.00000  Uiso   1.00
O301   O     0.42693   0.20726   0.72718   0.00000  Uiso   1.00
O302   O     0.20726   0.42693   0.72718   0.00000  Uiso   1.00
O303   O     0.00000   0.25000   0.25000   0.00000  Uiso   1.00
O304   O     0.29275   0.07307   0.27282   0.00000  Uiso   1.00
O305   O     0.42693   0.29275   0.72718   0.00000  Uiso   1.00
O306   O     0.07307   0.20726   0.27282   0.00000  Uiso   1.00
O307   O     0.29275   0.07307   0.72718   0.00000  Uiso   1.00
O308   O     0.20726   0.42693   0.27282   0.00000  Uiso   1.00
O309   O     0.07307   0.20726   0.72718   0.00000  Uiso   1.00
O310   O     0.42693   0.29275   0.27282   0.00000  Uiso   1.00
O311   O     0.45726   0.32307   0.77282   0.00000  Uiso   1.00
O312   O     0.04275   0.17693   0.22718   0.00000  Uiso   1.00
O313   O     0.17693   0.45726   0.77282   0.00000  Uiso   1.00
O314   O     0.00000   0.25000   0.75000   0.00000  Uiso   1.00
O315   O     0.32307   0.04275   0.22718   0.00000  Uiso   1.00
O316   O     0.04275   0.17693   0.77282   0.00000  Uiso   1.00
O317   O     0.45726   0.32307   0.22718   0.00000  Uiso   1.00
O318   O     0.32307   0.04275   0.77282   0.00000  Uiso   1.00
O319   O     0.17693   0.45726   0.22718   0.00000  Uiso   1.00
O320   O     0.45726   0.17693   0.22718   0.00000  Uiso   1.00
O321   O     0.04275   0.32307   0.77282   0.00000  Uiso   1.00
O322   O     0.17693   0.04275   0.22718   0.00000  Uiso   1.00
O323   O     0.32307   0.45726   0.77282   0.00000  Uiso   1.00
O324   O     0.04275   0.32307   0.22718   0.00000  Uiso   1.00
O325   O     0.25000   0.46964   0.33683   0.00000  Uiso   1.00
O326   O     0.45726   0.17693   0.77282   0.00000  Uiso   1.00
O327   O     0.32307   0.45726   0.22718   0.00000  Uiso   1.00
O328   O     0.17693   0.04275   0.77282   0.00000  Uiso   1.00
O329   O     0.15299   0.39960   0.32071   0.00000  Uiso   1.00
O330   O     0.34514   0.10173   0.67977   0.00000  Uiso   1.00
O331   O     0.09701   0.14960   0.17929   0.00000  Uiso   1.00
O332   O     0.40486   0.35173   0.82022   0.00000  Uiso   1.00
O333   O     0.34701   0.10040   0.32071   0.00000  Uiso   1.00
O334   O     0.15486   0.39827   0.67977   0.00000  Uiso   1.00
O335   O     0.40299   0.35040   0.17929   0.00000  Uiso   1.00
O336   O     0.25000   0.03036   0.66317   0.00000  Uiso   1.00
O337   O     0.09514   0.14827   0.82022   0.00000  Uiso   1.00
O338   O     0.14960   0.09701   0.82071   0.00000  Uiso   1.00
O339   O     0.35173   0.40486   0.17977   0.00000  Uiso   1.00
O340   O     0.10040   0.34701   0.67929   0.00000  Uiso   1.00
O341   O     0.39827   0.15486   0.32022   0.00000  Uiso   1.00
O342   O     0.35040   0.40299   0.82071   0.00000  Uiso   1.00
O343   O     0.14827   0.09514   0.17977   0.00000  Uiso   1.00
O344   O     0.39960   0.15299   0.67929   0.00000  Uiso   1.00
O345   O     0.10173   0.34514   0.32022   0.00000  Uiso   1.00
O346   O     0.40299   0.14960   0.82071   0.00000  Uiso   1.00
O347   O     0.03036   0.25000   0.33683   0.00000  Uiso   1.00
O348   O     0.09514   0.35173   0.17977   0.00000  Uiso   1.00
O349   O     0.34701   0.39960   0.67929   0.00000  Uiso   1.00
O350   O     0.15486   0.10173   0.32022   0.00000  Uiso   1.00
O351   O     0.09701   0.35040   0.82071   0.00000  Uiso   1.00
O352   O     0.40486   0.14827   0.17977   0.00000  Uiso   1.00
O353   O     0.15299   0.10040   0.67929   0.00000  Uiso   1.00
O354   O     0.34514   0.39827   0.32022   0.00000  Uiso   1.00
O355   O     0.39960   0.34701   0.32071   0.00000  Uiso   1.00
O356   O     0.10173   0.15486   0.67977   0.00000  Uiso   1.00
O357   O     0.35040   0.09701   0.17929   0.00000  Uiso   1.00
O358   O     0.46964   0.25000   0.66317   0.00000  Uiso   1.00
O359   O     0.14827   0.40486   0.82022   0.00000  Uiso   1.00
O360   O     0.10040   0.15299   0.32071   0.00000  Uiso   1.00
O361   O     0.39827   0.34514   0.67977   0.00000  Uiso   1.00
O362   O     0.14960   0.40299   0.17929   0.00000  Uiso   1.00
O363   O     0.35173   0.09514   0.82022   0.00000  Uiso   1.00
O364   O     0.25000   0.03036   0.33683   0.00000  Uiso   1.00
Zn365  Zn    0.20660   0.00000   0.21760   0.00000  Uiso   1.00
Zn366  Zn    0.04340   0.25000   0.28240   0.00000  Uiso   1.00
Zn367  Zn    0.25000   0.45660   0.71760   0.00000  Uiso   1.00
Zn368  Zn    0.25000   0.04340   0.28240   0.00000  Uiso   1.00
Zn369  Zn    0.04340   0.25000   0.71760   0.00000  Uiso   1.00
Zn370  Zn    0.45660   0.25000   0.28240   0.00000  Uiso   1.00
Zn371  Zn    0.25000   0.04340   0.71760   0.00000  Uiso   1.00
Zn372  Zn    0.25000   0.45660   0.28240   0.00000  Uiso   1.00
Zn373  Zn    0.29340   0.00000   0.78240   0.00000  Uiso   1.00
Zn374  Zn    0.00000   0.20660   0.21760   0.00000  Uiso   1.00
Zn375  Zn    0.00000   0.29340   0.78240   0.00000  Uiso   1.00
Zn376  Zn    0.29340   0.00000   0.21760   0.00000  Uiso   1.00
Zn377  Zn    0.20660   0.00000   0.78240   0.00000  Uiso   1.00
Zn378  Zn    0.00000   0.29340   0.21760   0.00000  Uiso   1.00
Zn379  Zn    0.00000   0.20660   0.78240   0.00000  Uiso   1.00
Zn380  Zn    0.45660   0.25000   0.71760   0.00000  Uiso   1.00
C381   C     0.71877   0.48894   0.04181   0.00000  Uiso   1.00
C382   C     0.53123   0.23894   0.45819   0.00000  Uiso   1.00
C383   C     0.84804   0.40196   0.75000   0.00000  Uiso   1.00
C384   C     0.90191   0.15191   0.25000   0.00000  Uiso   1.00
C385   C     0.59804   0.34804   0.75000   0.00000  Uiso   1.00
C386   C     0.84810   0.40191   0.25000   0.00000  Uiso   1.00
C387   C     0.65196   0.09804   0.75000   0.00000  Uiso   1.00
C388   C     0.59810   0.15191   0.75000   0.00000  Uiso   1.00
C389   C     0.90196   0.34804   0.25000   0.00000  Uiso   1.00
C390   C     0.65191   0.40190   0.75000   0.00000  Uiso   1.00
C391   C     0.84804   0.09804   0.25000   0.00000  Uiso   1.00
C392   C     0.90190   0.34810   0.75000   0.00000  Uiso   1.00
C393   C     0.76106   0.46877   0.54181   0.00000  Uiso   1.00
C394   C     0.59804   0.15196   0.25000   0.00000  Uiso   1.00
C395   C     0.84810   0.09810   0.75000   0.00000  Uiso   1.00
C396   C     0.65196   0.40196   0.25000   0.00000  Uiso   1.00
C397   C     0.75000   0.00000   0.10244   0.00000  Uiso   1.00
C398   C     0.75000   0.00000   0.89756   0.00000  Uiso   1.00
C399   C     0.50000   0.25000   0.10244   0.00000  Uiso   1.00
C400   C     0.50000   0.25000   0.89756   0.00000  Uiso   1.00
C401   C     0.50000   0.25000   0.60244   0.00000  Uiso   1.00
C402   C     0.50000   0.25000   0.39756   0.00000  Uiso   1.00
C403   C     0.75000   0.00000   0.60244   0.00000  Uiso   1.00
C404   C     0.76106   0.03123   0.45819   0.00000  Uiso   1.00
C405   C     0.75000   0.00000   0.39756   0.00000  Uiso   1.00
C406   C     0.63883   0.43450   0.32994   0.00000  Uiso   1.00
C407   C     0.86241   0.06953   0.66673   0.00000  Uiso   1.00
C408   C     0.61117   0.18450   0.17005   0.00000  Uiso   1.00
C409   C     0.88760   0.31953   0.83327   0.00000  Uiso   1.00
C410   C     0.86117   0.06550   0.32994   0.00000  Uiso   1.00
C411   C     0.63760   0.43047   0.66673   0.00000  Uiso   1.00
C412   C     0.88883   0.31550   0.17005   0.00000  Uiso   1.00
C413   C     0.61240   0.18047   0.83327   0.00000  Uiso   1.00
C414   C     0.68450   0.11117   0.82994   0.00000  Uiso   1.00
C415   C     0.53123   0.26106   0.54181   0.00000  Uiso   1.00
C416   C     0.81953   0.38760   0.16673   0.00000  Uiso   1.00
C417   C     0.56550   0.36117   0.67005   0.00000  Uiso   1.00
C418   C     0.93047   0.13759   0.33327   0.00000  Uiso   1.00
C419   C     0.81550   0.38883   0.82994   0.00000  Uiso   1.00
C420   C     0.68047   0.11240   0.16673   0.00000  Uiso   1.00
C421   C     0.93450   0.13883   0.67006   0.00000  Uiso   1.00
C422   C     0.56953   0.36240   0.33327   0.00000  Uiso   1.00
C423   C     0.88883   0.18450   0.82994   0.00000  Uiso   1.00
C424   C     0.61240   0.31953   0.16673   0.00000  Uiso   1.00
C425   C     0.86117   0.43450   0.67005   0.00000  Uiso   1.00
C426   C     0.96877   0.26106   0.45819   0.00000  Uiso   1.00
C427   C     0.63760   0.06953   0.33327   0.00000  Uiso   1.00
C428   C     0.61117   0.31550   0.82994   0.00000  Uiso   1.00
C429   C     0.88759   0.18047   0.16673   0.00000  Uiso   1.00
C430   C     0.63883   0.06550   0.67005   0.00000  Uiso   1.00
C431   C     0.86240   0.43047   0.33327   0.00000  Uiso   1.00
C432   C     0.93450   0.36117   0.32994   0.00000  Uiso   1.00
C433   C     0.56953   0.13760   0.66673   0.00000  Uiso   1.00
C434   C     0.81550   0.11117   0.17006   0.00000  Uiso   1.00
C435   C     0.68047   0.38760   0.83327   0.00000  Uiso   1.00
C436   C     0.56550   0.13883   0.32994   0.00000  Uiso   1.00
C437   C     0.73894   0.03123   0.54181   0.00000  Uiso   1.00
C438   C     0.93047   0.36240   0.66673   0.00000  Uiso   1.00
C439   C     0.68450   0.38883   0.17005   0.00000  Uiso   1.00
C440   C     0.81953   0.11241   0.83327   0.00000  Uiso   1.00
C441   C     0.73894   0.46877   0.45819   0.00000  Uiso   1.00
C442   C     0.71870   0.48917   0.08208   0.00000  Uiso   1.00
C443   C     0.78130   0.48917   0.91792   0.00000  Uiso   1.00
C444   C     0.51083   0.21870   0.08208   0.00000  Uiso   1.00
C445   C     0.78123   0.48894   0.95819   0.00000  Uiso   1.00
C446   C     0.51083   0.28130   0.91792   0.00000  Uiso   1.00
C447   C     0.78130   0.01083   0.08208   0.00000  Uiso   1.00
C448   C     0.71870   0.01083   0.91792   0.00000  Uiso   1.00
C449   C     0.98917   0.28130   0.08208   0.00000  Uiso   1.00
C450   C     0.98917   0.21870   0.91792   0.00000  Uiso   1.00
C451   C     0.96870   0.23917   0.58208   0.00000  Uiso   1.00
C452   C     0.53130   0.23917   0.41792   0.00000  Uiso   1.00
C453   C     0.76083   0.46870   0.58208   0.00000  Uiso   1.00
C454   C     0.76083   0.03130   0.41792   0.00000  Uiso   1.00
C455   C     0.53130   0.26083   0.58208   0.00000  Uiso   1.00
C456   C     0.51106   0.21877   0.04181   0.00000  Uiso   1.00
C457   C     0.96870   0.26083   0.41792   0.00000  Uiso   1.00
C458   C     0.73917   0.03130   0.58208   0.00000  Uiso   1.00
C459   C     0.73917   0.46870   0.41792   0.00000  Uiso   1.00
C460   C     0.75000   0.00000   0.02132   0.00000  Uiso   1.00
C461   C     0.75000   0.00000   0.97868   0.00000  Uiso   1.00
C462   C     0.50000   0.25000   0.02132   0.00000  Uiso   1.00
C463   C     0.50000   0.25000   0.97868   0.00000  Uiso   1.00
C464   C     0.50000   0.25000   0.52132   0.00000  Uiso   1.00
C465   C     0.50000   0.25000   0.47868   0.00000  Uiso   1.00
C466   C     0.75000   0.00000   0.52132   0.00000  Uiso   1.00
C467   C     0.51106   0.28123   0.95819   0.00000  Uiso   1.00
C468   C     0.75000   0.00000   0.47868   0.00000  Uiso   1.00
C469   C     0.75000   0.00000   0.35522   0.00000  Uiso   1.00
C470   C     0.75000   0.00000   0.64478   0.00000  Uiso   1.00
C471   C     0.50000   0.25000   0.35522   0.00000  Uiso   1.00
C472   C     0.50000   0.25000   0.64478   0.00000  Uiso   1.00
C473   C     0.50000   0.25000   0.85522   0.00000  Uiso   1.00
C474   C     0.50000   0.25000   0.14478   0.00000  Uiso   1.00
C475   C     0.75000   0.00000   0.85522   0.00000  Uiso   1.00
C476   C     0.75000   0.00000   0.14478   0.00000  Uiso   1.00
C477   C     0.67998   0.07002   0.25000   0.00000  Uiso   1.00
C478   C     0.78123   0.01106   0.04181   0.00000  Uiso   1.00
C479   C     0.82001   0.42999   0.75000   0.00000  Uiso   1.00
C480   C     0.92998   0.17998   0.25000   0.00000  Uiso   1.00
C481   C     0.57001   0.32001   0.75000   0.00000  Uiso   1.00
C482   C     0.82002   0.42998   0.25000   0.00000  Uiso   1.00
C483   C     0.67999   0.07001   0.75000   0.00000  Uiso   1.00
C484   C     0.57002   0.32002   0.25000   0.00000  Uiso   1.00
C485   C     0.92999   0.17999   0.75000   0.00000  Uiso   1.00
C486   C     0.67998   0.42998   0.75000   0.00000  Uiso   1.00
C487   C     0.82001   0.07001   0.25000   0.00000  Uiso   1.00
C488   C     0.92998   0.32002   0.75000   0.00000  Uiso   1.00
C489   C     0.71877   0.01106   0.95819   0.00000  Uiso   1.00
C490   C     0.57001   0.17999   0.25000   0.00000  Uiso   1.00
C491   C     0.82002   0.07002   0.75000   0.00000  Uiso   1.00
C492   C     0.67999   0.42999   0.25000   0.00000  Uiso   1.00
C493   C     0.57002   0.17998   0.75000   0.00000  Uiso   1.00
C494   C     0.92999   0.32001   0.25000   0.00000  Uiso   1.00
C495   C     0.63904   0.38793   0.28551   0.00000  Uiso   1.00
C496   C     0.86067   0.11238   0.71455   0.00000  Uiso   1.00
C497   C     0.61096   0.13793   0.21449   0.00000  Uiso   1.00
C498   C     0.88933   0.36238   0.78544   0.00000  Uiso   1.00
C499   C     0.86096   0.11207   0.28551   0.00000  Uiso   1.00
C500   C     0.98894   0.28123   0.04181   0.00000  Uiso   1.00
C501   C     0.63933   0.38762   0.71455   0.00000  Uiso   1.00
C502   C     0.88904   0.36207   0.21449   0.00000  Uiso   1.00
C503   C     0.61067   0.13762   0.78544   0.00000  Uiso   1.00
C504   C     0.63793   0.11096   0.78551   0.00000  Uiso   1.00
C505   C     0.86238   0.38933   0.21455   0.00000  Uiso   1.00
C506   C     0.61207   0.36096   0.71449   0.00000  Uiso   1.00
C507   C     0.88762   0.13933   0.28544   0.00000  Uiso   1.00
C508   C     0.86207   0.38904   0.78551   0.00000  Uiso   1.00
C509   C     0.63762   0.11067   0.21455   0.00000  Uiso   1.00
C510   C     0.88793   0.13904   0.71449   0.00000  Uiso   1.00
C511   C     0.98894   0.21877   0.95819   0.00000  Uiso   1.00
C512   C     0.61238   0.36067   0.28544   0.00000  Uiso   1.00
C513   C     0.88904   0.13793   0.78551   0.00000  Uiso   1.00
C514   C     0.61067   0.36238   0.21455   0.00000  Uiso   1.00
C515   C     0.86096   0.38793   0.71449   0.00000  Uiso   1.00
C516   C     0.63933   0.11238   0.28544   0.00000  Uiso   1.00
C517   C     0.61096   0.36207   0.78551   0.00000  Uiso   1.00
C518   C     0.88933   0.13762   0.21455   0.00000  Uiso   1.00
C519   C     0.63904   0.11207   0.71449   0.00000  Uiso   1.00
C520   C     0.86067   0.38762   0.28544   0.00000  Uiso   1.00
C521   C     0.88793   0.36096   0.28551   0.00000  Uiso   1.00
C522   C     0.96877   0.23894   0.54181   0.00000  Uiso   1.00
C523   C     0.61238   0.13933   0.71455   0.00000  Uiso   1.00
C524   C     0.86207   0.11096   0.21449   0.00000  Uiso   1.00
C525   C     0.63762   0.38933   0.78544   0.00000  Uiso   1.00
C526   C     0.61207   0.13904   0.28551   0.00000  Uiso   1.00
C527   C     0.88762   0.36067   0.71455   0.00000  Uiso   1.00
C528   C     0.63793   0.38904   0.21449   0.00000  Uiso   1.00
C529   C     0.86238   0.11067   0.78544   0.00000  Uiso   1.00
C530   C     0.59810   0.34810   0.25000   0.00000  Uiso   1.00
C531   C     0.90196   0.15196   0.75000   0.00000  Uiso   1.00
C532   C     0.65191   0.09810   0.25000   0.00000  Uiso   1.00
H533   H     0.69456   0.47966   0.02674   0.00000  Uiso   1.00
H534   H     0.55545   0.22966   0.47326   0.00000  Uiso   1.00
H535   H     0.65792   0.04381   0.67976   0.00000  Uiso   1.00
H536   H     0.63658   0.06334   0.63812   0.00000  Uiso   1.00
H537   H     0.84771   0.44043   0.35929   0.00000  Uiso   1.00
H538   H     0.86150   0.45272   0.31135   0.00000  Uiso   1.00
H539   H     0.89109   0.42503   0.34191   0.00000  Uiso   1.00
H540   H     0.93988   0.38885   0.31770   0.00000  Uiso   1.00
H541   H     0.95619   0.34208   0.32024   0.00000  Uiso   1.00
H542   H     0.93666   0.36342   0.36188   0.00000  Uiso   1.00
H543   H     0.55957   0.15229   0.64071   0.00000  Uiso   1.00
H544   H     0.54728   0.13850   0.68865   0.00000  Uiso   1.00
H545   H     0.77034   0.44456   0.52674   0.00000  Uiso   1.00
H546   H     0.57497   0.10892   0.65809   0.00000  Uiso   1.00
H547   H     0.81011   0.13885   0.18231   0.00000  Uiso   1.00
H548   H     0.79381   0.09208   0.17976   0.00000  Uiso   1.00
H549   H     0.81334   0.11343   0.13812   0.00000  Uiso   1.00
H550   H     0.69043   0.40229   0.85929   0.00000  Uiso   1.00
H551   H     0.70272   0.38850   0.81135   0.00000  Uiso   1.00
H552   H     0.67503   0.35892   0.84191   0.00000  Uiso   1.00
H553   H     0.56012   0.11115   0.31770   0.00000  Uiso   1.00
H554   H     0.54381   0.15792   0.32024   0.00000  Uiso   1.00
H555   H     0.56334   0.13658   0.36188   0.00000  Uiso   1.00
H556   H     0.77034   0.05545   0.47326   0.00000  Uiso   1.00
H557   H     0.94043   0.34771   0.64071   0.00000  Uiso   1.00
H558   H     0.95272   0.36150   0.68865   0.00000  Uiso   1.00
H559   H     0.92503   0.39109   0.65809   0.00000  Uiso   1.00
H560   H     0.68988   0.36115   0.18230   0.00000  Uiso   1.00
H561   H     0.70619   0.40792   0.17976   0.00000  Uiso   1.00
H562   H     0.68666   0.38658   0.13812   0.00000  Uiso   1.00
H563   H     0.80957   0.09771   0.85929   0.00000  Uiso   1.00
H564   H     0.79728   0.11150   0.81135   0.00000  Uiso   1.00
H565   H     0.82497   0.14109   0.84191   0.00000  Uiso   1.00
H566   H     0.55545   0.27034   0.52674   0.00000  Uiso   1.00
H567   H     0.94456   0.27034   0.47326   0.00000  Uiso   1.00
H568   H     0.72966   0.05545   0.52674   0.00000  Uiso   1.00
H569   H     0.72966   0.44456   0.47326   0.00000  Uiso   1.00
H570   H     0.69434   0.48039   0.09727   0.00000  Uiso   1.00
H571   H     0.80566   0.48039   0.90273   0.00000  Uiso   1.00
H572   H     0.51961   0.19434   0.09727   0.00000  Uiso   1.00
H573   H     0.80545   0.47966   0.97326   0.00000  Uiso   1.00
H574   H     0.51961   0.30566   0.90273   0.00000  Uiso   1.00
H575   H     0.80566   0.01961   0.09727   0.00000  Uiso   1.00
H576   H     0.69434   0.01961   0.90273   0.00000  Uiso   1.00
H577   H     0.98039   0.30566   0.09727   0.00000  Uiso   1.00
H578   H     0.98039   0.19434   0.90273   0.00000  Uiso   1.00
H579   H     0.94434   0.23039   0.59727   0.00000  Uiso   1.00
H580   H     0.55566   0.23039   0.40273   0.00000  Uiso   1.00
H581   H     0.76961   0.44434   0.59727   0.00000  Uiso   1.00
H582   H     0.76961   0.05566   0.40273   0.00000  Uiso   1.00
H583   H     0.55566   0.26961   0.59727   0.00000  Uiso   1.00
H584   H     0.52034   0.19456   0.02674   0.00000  Uiso   1.00
H585   H     0.94434   0.26961   0.40273   0.00000  Uiso   1.00
H586   H     0.73039   0.05566   0.59727   0.00000  Uiso   1.00
H587   H     0.73039   0.44434   0.40273   0.00000  Uiso   1.00
H588   H     0.61115   0.43988   0.31770   0.00000  Uiso   1.00
H589   H     0.65792   0.45619   0.32024   0.00000  Uiso   1.00
H590   H     0.63658   0.43666   0.36188   0.00000  Uiso   1.00
H591   H     0.84772   0.05957   0.64070   0.00000  Uiso   1.00
H592   H     0.86149   0.04728   0.68865   0.00000  Uiso   1.00
H593   H     0.89109   0.07496   0.65810   0.00000  Uiso   1.00
H594   H     0.63885   0.18988   0.18230   0.00000  Uiso   1.00
H595   H     0.52034   0.30545   0.97326   0.00000  Uiso   1.00
H596   H     0.59208   0.20619   0.17976   0.00000  Uiso   1.00
H597   H     0.61342   0.18666   0.13812   0.00000  Uiso   1.00
H598   H     0.90229   0.30957   0.85929   0.00000  Uiso   1.00
H599   H     0.88850   0.29728   0.81135   0.00000  Uiso   1.00
H600   H     0.85892   0.32497   0.84191   0.00000  Uiso   1.00
H601   H     0.88885   0.06011   0.31769   0.00000  Uiso   1.00
H602   H     0.84208   0.04381   0.32024   0.00000  Uiso   1.00
H603   H     0.86343   0.06334   0.36188   0.00000  Uiso   1.00
H604   H     0.65229   0.44043   0.64071   0.00000  Uiso   1.00
H605   H     0.63850   0.45272   0.68865   0.00000  Uiso   1.00
H606   H     0.80545   0.02034   0.02674   0.00000  Uiso   1.00
H607   H     0.60892   0.42503   0.65809   0.00000  Uiso   1.00
H608   H     0.86115   0.31012   0.18230   0.00000  Uiso   1.00
H609   H     0.90792   0.29381   0.17976   0.00000  Uiso   1.00
H610   H     0.88658   0.31334   0.13812   0.00000  Uiso   1.00
H611   H     0.59771   0.19043   0.85929   0.00000  Uiso   1.00
H612   H     0.61150   0.20272   0.81135   0.00000  Uiso   1.00
H613   H     0.64109   0.17503   0.84191   0.00000  Uiso   1.00
H614   H     0.68988   0.13885   0.81770   0.00000  Uiso   1.00
H615   H     0.70619   0.09208   0.82024   0.00000  Uiso   1.00
H616   H     0.68666   0.11342   0.86188   0.00000  Uiso   1.00
H617   H     0.69456   0.02034   0.97326   0.00000  Uiso   1.00
H618   H     0.80957   0.40229   0.14071   0.00000  Uiso   1.00
H619   H     0.79728   0.38850   0.18865   0.00000  Uiso   1.00
H620   H     0.82497   0.35892   0.15809   0.00000  Uiso   1.00
H621   H     0.56012   0.38885   0.68230   0.00000  Uiso   1.00
H622   H     0.54381   0.34208   0.67976   0.00000  Uiso   1.00
H623   H     0.56334   0.36342   0.63812   0.00000  Uiso   1.00
H624   H     0.94043   0.15228   0.35930   0.00000  Uiso   1.00
H625   H     0.95272   0.13851   0.31135   0.00000  Uiso   1.00
H626   H     0.92504   0.10891   0.34190   0.00000  Uiso   1.00
H627   H     0.81012   0.36115   0.81770   0.00000  Uiso   1.00
H628   H     0.97966   0.30544   0.02674   0.00000  Uiso   1.00
H629   H     0.79381   0.40792   0.82024   0.00000  Uiso   1.00
H630   H     0.81334   0.38658   0.86188   0.00000  Uiso   1.00
H631   H     0.69043   0.09771   0.14071   0.00000  Uiso   1.00
H632   H     0.70272   0.11150   0.18865   0.00000  Uiso   1.00
H633   H     0.67503   0.14109   0.15809   0.00000  Uiso   1.00
H634   H     0.93989   0.11115   0.68231   0.00000  Uiso   1.00
H635   H     0.95619   0.15792   0.67975   0.00000  Uiso   1.00
H636   H     0.93666   0.13657   0.63812   0.00000  Uiso   1.00
H637   H     0.55957   0.34771   0.35929   0.00000  Uiso   1.00
H638   H     0.54728   0.36150   0.31135   0.00000  Uiso   1.00
H639   H     0.97966   0.19456   0.97326   0.00000  Uiso   1.00
H640   H     0.57497   0.39109   0.34191   0.00000  Uiso   1.00
H641   H     0.86115   0.18988   0.81770   0.00000  Uiso   1.00
H642   H     0.90792   0.20619   0.82024   0.00000  Uiso   1.00
H643   H     0.88658   0.18666   0.86188   0.00000  Uiso   1.00
H644   H     0.59771   0.30957   0.14071   0.00000  Uiso   1.00
H645   H     0.61150   0.29728   0.18865   0.00000  Uiso   1.00
H646   H     0.64109   0.32497   0.15809   0.00000  Uiso   1.00
H647   H     0.88885   0.43988   0.68230   0.00000  Uiso   1.00
H648   H     0.84208   0.45619   0.67976   0.00000  Uiso   1.00
H649   H     0.86342   0.43666   0.63812   0.00000  Uiso   1.00
H650   H     0.94456   0.22966   0.52674   0.00000  Uiso   1.00
H651   H     0.65229   0.05957   0.35929   0.00000  Uiso   1.00
H652   H     0.63850   0.04728   0.31135   0.00000  Uiso   1.00
H653   H     0.60892   0.07497   0.34191   0.00000  Uiso   1.00
H654   H     0.63885   0.31012   0.81770   0.00000  Uiso   1.00
H655   H     0.59208   0.29381   0.82024   0.00000  Uiso   1.00
H656   H     0.61342   0.31334   0.86188   0.00000  Uiso   1.00
H657   H     0.90228   0.19043   0.14070   0.00000  Uiso   1.00
H658   H     0.88851   0.20272   0.18865   0.00000  Uiso   1.00
H659   H     0.85891   0.17504   0.15809   0.00000  Uiso   1.00
H660   H     0.61115   0.06012   0.68230   0.00000  Uiso   1.00
O661   O     0.75000   0.00000   0.25000   0.00000  Uiso   1.00
O662   O     0.75000   0.46964   0.66317   0.00000  Uiso   1.00
O663   O     0.96964   0.25000   0.33683   0.00000  Uiso   1.00
O664   O     0.53036   0.25000   0.66317   0.00000  Uiso   1.00
O665   O     0.50000   0.21964   0.83683   0.00000  Uiso   1.00
O666   O     0.50000   0.28036   0.16317   0.00000  Uiso   1.00
O667   O     0.78036   0.00000   0.83683   0.00000  Uiso   1.00
O668   O     0.71964   0.00000   0.16317   0.00000  Uiso   1.00
O669   O     0.50000   0.28036   0.83683   0.00000  Uiso   1.00
O670   O     0.50000   0.21964   0.16317   0.00000  Uiso   1.00
O671   O     0.71964   0.00000   0.83683   0.00000  Uiso   1.00
O672   O     0.75000   0.00000   0.75000   0.00000  Uiso   1.00
O673   O     0.78036   0.00000   0.16317   0.00000  Uiso   1.00
O674   O     0.70726   0.07307   0.27282   0.00000  Uiso   1.00
O675   O     0.79275   0.42693   0.72718   0.00000  Uiso   1.00
O676   O     0.92693   0.20726   0.27282   0.00000  Uiso   1.00
O677   O     0.57307   0.29275   0.72718   0.00000  Uiso   1.00
O678   O     0.79275   0.42693   0.27282   0.00000  Uiso   1.00
O679   O     0.70726   0.07307   0.72718   0.00000  Uiso   1.00
O680   O     0.57307   0.29275   0.27282   0.00000  Uiso   1.00
O681   O     0.92693   0.20726   0.72718   0.00000  Uiso   1.00
O682   O     0.70726   0.42693   0.72718   0.00000  Uiso   1.00
O683   O     0.50000   0.25000   0.25000   0.00000  Uiso   1.00
O684   O     0.79275   0.07307   0.27282   0.00000  Uiso   1.00
O685   O     0.92693   0.29275   0.72718   0.00000  Uiso   1.00
O686   O     0.57307   0.20726   0.27282   0.00000  Uiso   1.00
O687   O     0.79275   0.07307   0.72718   0.00000  Uiso   1.00
O688   O     0.70726   0.42693   0.27282   0.00000  Uiso   1.00
O689   O     0.57307   0.20726   0.72718   0.00000  Uiso   1.00
O690   O     0.92693   0.29275   0.27282   0.00000  Uiso   1.00
O691   O     0.95726   0.32307   0.77282   0.00000  Uiso   1.00
O692   O     0.54275   0.17693   0.22718   0.00000  Uiso   1.00
O693   O     0.67693   0.45726   0.77282   0.00000  Uiso   1.00
O694   O     0.50000   0.25000   0.75000   0.00000  Uiso   1.00
O695   O     0.82307   0.04275   0.22718   0.00000  Uiso   1.00
O696   O     0.54275   0.17693   0.77282   0.00000  Uiso   1.00
O697   O     0.95726   0.32307   0.22718   0.00000  Uiso   1.00
O698   O     0.82307   0.04275   0.77282   0.00000  Uiso   1.00
O699   O     0.67693   0.45726   0.22718   0.00000  Uiso   1.00
O700   O     0.95726   0.17693   0.22718   0.00000  Uiso   1.00
O701   O     0.54275   0.32307   0.77282   0.00000  Uiso   1.00
O702   O     0.67693   0.04275   0.22718   0.00000  Uiso   1.00
O703   O     0.82307   0.45726   0.77282   0.00000  Uiso   1.00
O704   O     0.54275   0.32307   0.22718   0.00000  Uiso   1.00
O705   O     0.75000   0.46964   0.33683   0.00000  Uiso   1.00
O706   O     0.95726   0.17693   0.77282   0.00000  Uiso   1.00
O707   O     0.82307   0.45726   0.22718   0.00000  Uiso   1.00
O708   O     0.67693   0.04275   0.77282   0.00000  Uiso   1.00
O709   O     0.65299   0.39960   0.32071   0.00000  Uiso   1.00
O710   O     0.84514   0.10173   0.67977   0.00000  Uiso   1.00
O711   O     0.59701   0.14960   0.17929   0.00000  Uiso   1.00
O712   O     0.90486   0.35173   0.82022   0.00000  Uiso   1.00
O713   O     0.84701   0.10040   0.32071   0.00000  Uiso   1.00
O714   O     0.65486   0.39827   0.67977   0.00000  Uiso   1.00
O715   O     0.90299   0.35040   0.17929   0.00000  Uiso   1.00
O716   O     0.75000   0.03036   0.66317   0.00000  Uiso   1.00
O717   O     0.59514   0.14827   0.82022   0.00000  Uiso   1.00
O718   O     0.64960   0.09701   0.82071   0.00000  Uiso   1.00
O719   O     0.85173   0.40486   0.17977   0.00000  Uiso   1.00
O720   O     0.60040   0.34701   0.67929   0.00000  Uiso   1.00
O721   O     0.89827   0.15486   0.32022   0.00000  Uiso   1.00
O722   O     0.85040   0.40299   0.82071   0.00000  Uiso   1.00
O723   O     0.64827   0.09514   0.17977   0.00000  Uiso   1.00
O724   O     0.89960   0.15299   0.67929   0.00000  Uiso   1.00
O725   O     0.60173   0.34514   0.32022   0.00000  Uiso   1.00
O726   O     0.90299   0.14960   0.82071   0.00000  Uiso   1.00
O727   O     0.53036   0.25000   0.33683   0.00000  Uiso   1.00
O728   O     0.59514   0.35173   0.17977   0.00000  Uiso   1.00
O729   O     0.84701   0.39960   0.67929   0.00000  Uiso   1.00
O730   O     0.65486   0.10173   0.32022   0.00000  Uiso   1.00
O731   O     0.59701   0.35040   0.82071   0.00000  Uiso   1.00
O732   O     0.90486   0.14827   0.17977   0.00000  Uiso   1.00
O733   O     0.65299   0.10040   0.67929   0.00000  Uiso   1.00
O734   O     0.84514   0.39827   0.32022   0.00000  Uiso   1.00
O735   O     0.89960   0.34701   0.32071   0.00000  Uiso   1.00
O736   O     0.60173   0.15486   0.67977   0.00000  Uiso   1.00
O737   O     0.85040   0.09701   0.17929   0.00000  Uiso   1.00
O738   O     0.96964   0.25000   0.66317   0.00000  Uiso   1.00
O739   O     0.64827   0.40486   0.82022   0.00000  Uiso   1.00
O740   O     0.60040   0.15299   0.32071   0.00000  Uiso   1.00
O741   O     0.89827   0.34514   0.67977   0.00000  Uiso   1.00
O742   O     0.64960   0.40299   0.17929   0.00000  Uiso   1.00
O743   O     0.85173   0.09514   0.82022   0.00000  Uiso   1.00
O744   O     0.75000   0.03036   0.33683   0.00000  Uiso   1.00
Zn745  Zn    0.70660   0.00000   0.21760   0.00000  Uiso   1.00
Zn746  Zn    0.54340   0.25000   0.28240   0.00000  Uiso   1.00
Zn747  Zn    0.75000   0.45660   0.71760   0.00000  Uiso   1.00
Zn748  Zn    0.75000   0.04340   0.28240   0.00000  Uiso   1.00
Zn749  Zn    0.54340   0.25000   0.71760   0.00000  Uiso   1.00
Zn750  Zn    0.95660   0.25000   0.28240   0.00000  Uiso   1.00
Zn751  Zn    0.75000   0.04340   0.71760   0.00000  Uiso   1.00
Zn752  Zn    0.75000   0.45660   0.28240   0.00000  Uiso   1.00
Zn753  Zn    0.79340   0.00000   0.78240   0.00000  Uiso   1.00
Zn754  Zn    0.50000   0.20660   0.21760   0.00000  Uiso   1.00
Zn755  Zn    0.50000   0.29340   0.78240   0.00000  Uiso   1.00
Zn756  Zn    0.79340   0.00000   0.21760   0.00000  Uiso   1.00
Zn757  Zn    0.70660   0.00000   0.78240   0.00000  Uiso   1.00
Zn758  Zn    0.50000   0.29340   0.21760   0.00000  Uiso   1.00
Zn759  Zn    0.50000   0.20660   0.78240   0.00000  Uiso   1.00
Zn760  Zn    0.95660   0.25000   0.71760   0.00000  Uiso   1.00
C761   C     0.21877   0.98894   0.04181   0.00000  Uiso   1.00
C762   C     0.03123   0.73894   0.45819   0.00000  Uiso   1.00
C763   C     0.34804   0.90196   0.75000   0.00000  Uiso   1.00
C764   C     0.40191   0.65191   0.25000   0.00000  Uiso   1.00
C765   C     0.09804   0.84804   0.75000   0.00000  Uiso   1.00
C766   C     0.34810   0.90191   0.25000   0.00000  Uiso   1.00
C767   C     0.15196   0.59804   0.75000   0.00000  Uiso   1.00
C768   C     0.09810   0.65191   0.75000   0.00000  Uiso   1.00
C769   C     0.40196   0.84804   0.25000   0.00000  Uiso   1.00
C770   C     0.15191   0.90190   0.75000   0.00000  Uiso   1.00
C771   C     0.34804   0.59804   0.25000   0.00000  Uiso   1.00
C772   C     0.40190   0.84810   0.75000   0.00000  Uiso   1.00
C773   C     0.26106   0.96877   0.54181   0.00000  Uiso   1.00
C774   C     0.09804   0.65196   0.25000   0.00000  Uiso   1.00
C775   C     0.34810   0.59810   0.75000   0.00000  Uiso   1.00
C776   C     0.15196   0.90196   0.25000   0.00000  Uiso   1.00
C777   C     0.25000   0.50000   0.10244   0.00000  Uiso   1.00
C778   C     0.25000   0.50000   0.89756   0.00000  Uiso   1.00
C779   C     0.00000   0.75000   0.10244   0.00000  Uiso   1.00
C780   C     0.00000   0.75000   0.89756   0.00000  Uiso   1.00
C781   C     0.00000   0.75000   0.60244   0.00000  Uiso   1.00
C782   C     0.00000   0.75000   0.39756   0.00000  Uiso   1.00
C783   C     0.25000   0.50000   0.60244   0.00000  Uiso   1.00
C784   C     0.26106   0.53123   0.45819   0.00000  Uiso   1.00
C785   C     0.25000   0.50000   0.39756   0.00000  Uiso   1.00
C786   C     0.13883   0.93450   0.32994   0.00000  Uiso   1.00
C787   C     0.36241   0.56953   0.66673   0.00000  Uiso   1.00
C788   C     0.11117   0.68450   0.17005   0.00000  Uiso   1.00
C789   C     0.38760   0.81953   0.83327   0.00000  Uiso   1.00
C790   C     0.36117   0.56550   0.32994   0.00000  Uiso   1.00
C791   C     0.13760   0.93047   0.66673   0.00000  Uiso   1.00
C792   C     0.38883   0.81550   0.17005   0.00000  Uiso   1.00
C793   C     0.11240   0.68047   0.83327   0.00000  Uiso   1.00
C794   C     0.18450   0.61117   0.82994   0.00000  Uiso   1.00
C795   C     0.03123   0.76106   0.54181   0.00000  Uiso   1.00
C796   C     0.31953   0.88760   0.16673   0.00000  Uiso   1.00
C797   C     0.06550   0.86117   0.67005   0.00000  Uiso   1.00
C798   C     0.43047   0.63759   0.33327   0.00000  Uiso   1.00
C799   C     0.31550   0.88883   0.82994   0.00000  Uiso   1.00
C800   C     0.18047   0.61240   0.16673   0.00000  Uiso   1.00
C801   C     0.43450   0.63883   0.67006   0.00000  Uiso   1.00
C802   C     0.06953   0.86240   0.33327   0.00000  Uiso   1.00
C803   C     0.38883   0.68450   0.82994   0.00000  Uiso   1.00
C804   C     0.11240   0.81953   0.16673   0.00000  Uiso   1.00
C805   C     0.36117   0.93450   0.67005   0.00000  Uiso   1.00
C806   C     0.46877   0.76106   0.45819   0.00000  Uiso   1.00
C807   C     0.13760   0.56953   0.33327   0.00000  Uiso   1.00
C808   C     0.11117   0.81550   0.82994   0.00000  Uiso   1.00
C809   C     0.38759   0.68047   0.16673   0.00000  Uiso   1.00
C810   C     0.13883   0.56550   0.67005   0.00000  Uiso   1.00
C811   C     0.36240   0.93047   0.33327   0.00000  Uiso   1.00
C812   C     0.43450   0.86117   0.32994   0.00000  Uiso   1.00
C813   C     0.06953   0.63760   0.66673   0.00000  Uiso   1.00
C814   C     0.31550   0.61117   0.17006   0.00000  Uiso   1.00
C815   C     0.18047   0.88760   0.83327   0.00000  Uiso   1.00
C816   C     0.06550   0.63883   0.32994   0.00000  Uiso   1.00
C817   C     0.23894   0.53123   0.54181   0.00000  Uiso   1.00
C818   C     0.43047   0.86240   0.66673   0.00000  Uiso   1.00
C819   C     0.18450   0.88883   0.17005   0.00000  Uiso   1.00
C820   C     0.31953   0.61241   0.83327   0.00000  Uiso   1.00
C821   C     0.23894   0.96877   0.45819   0.00000  Uiso   1.00
C822   C     0.21870   0.98917   0.08208   0.00000  Uiso   1.00
C823   C     0.28130   0.98917   0.91792   0.00000  Uiso   1.00
C824   C     0.01083   0.71870   0.08208   0.00000  Uiso   1.00
C825   C     0.28123   0.98894   0.95819   0.00000  Uiso   1.00
C826   C     0.01083   0.78130   0.91792   0.00000  Uiso   1.00
C827   C     0.28130   0.51083   0.08208   0.00000  Uiso   1.00
C828   C     0.21870   0.51083   0.91792   0.00000  Uiso   1.00
C829   C     0.48917   0.78130   0.08208   0.00000  Uiso   1.00
C830   C     0.48917   0.71870   0.91792   0.00000  Uiso   1.00
C831   C     0.46870   0.73917   0.58208   0.00000  Uiso   1.00
C832   C     0.03130   0.73917   0.41792   0.00000  Uiso   1.00
C833   C     0.26083   0.96870   0.58208   0.00000  Uiso   1.00
C834   C     0.26083   0.53130   0.41792   0.00000  Uiso   1.00
C835   C     0.03130   0.76083   0.58208   0.00000  Uiso   1.00
C836   C     0.01106   0.71877   0.04181   0.00000  Uiso   1.00
C837   C     0.46870   0.76083   0.41792   0.00000  Uiso   1.00
C838   C     0.23917   0.53130   0.58208   0.00000  Uiso   1.00
C839   C     0.23917   0.96870   0.41792   0.00000  Uiso   1.00
C840   C     0.25000   0.50000   0.02132   0.00000  Uiso   1.00
C841   C     0.25000   0.50000   0.97868   0.00000  Uiso   1.00
C842   C     0.00000   0.75000   0.02132   0.00000  Uiso   1.00
C843   C     0.00000   0.75000   0.97868   0.00000  Uiso   1.00
C844   C     0.00000   0.75000   0.52132   0.00000  Uiso   1.00
C845   C     0.00000   0.75000   0.47868   0.00000  Uiso   1.00
C846   C     0.25000   0.50000   0.52132   0.00000  Uiso   1.00
C847   C     0.01106   0.78123   0.95819   0.00000  Uiso   1.00
C848   C     0.25000   0.50000   0.47868   0.00000  Uiso   1.00
C849   C     0.25000   0.50000   0.35522   0.00000  Uiso   1.00
C850   C     0.25000   0.50000   0.64478   0.00000  Uiso   1.00
C851   C     0.00000   0.75000   0.35522   0.00000  Uiso   1.00
C852   C     0.00000   0.75000   0.64478   0.00000  Uiso   1.00
C853   C     0.00000   0.75000   0.85522   0.00000  Uiso   1.00
C854   C     0.00000   0.75000   0.14478   0.00000  Uiso   1.00
C855   C     0.25000   0.50000   0.85522   0.00000  Uiso   1.00
C856   C     0.25000   0.50000   0.14478   0.00000  Uiso   1.00
C857   C     0.17998   0.57002   0.25000   0.00000  Uiso   1.00
C858   C     0.28123   0.51106   0.04181   0.00000  Uiso   1.00
C859   C     0.32001   0.92999   0.75000   0.00000  Uiso   1.00
C860   C     0.42998   0.67998   0.25000   0.00000  Uiso   1.00
C861   C     0.07001   0.82001   0.75000   0.00000  Uiso   1.00
C862   C     0.32002   0.92998   0.25000   0.00000  Uiso   1.00
C863   C     0.17999   0.57001   0.75000   0.00000  Uiso   1.00
C864   C     0.07002   0.82002   0.25000   0.00000  Uiso   1.00
C865   C     0.42999   0.67999   0.75000   0.00000  Uiso   1.00
C866   C     0.17998   0.92998   0.75000   0.00000  Uiso   1.00
C867   C     0.32001   0.57001   0.25000   0.00000  Uiso   1.00
C868   C     0.42998   0.82002   0.75000   0.00000  Uiso   1.00
C869   C     0.21877   0.51106   0.95819   0.00000  Uiso   1.00
C870   C     0.07001   0.67999   0.25000   0.00000  Uiso   1.00
C871   C     0.32002   0.57002   0.75000   0.00000  Uiso   1.00
C872   C     0.17999   0.92999   0.25000   0.00000  Uiso   1.00
C873   C     0.07002   0.67998   0.75000   0.00000  Uiso   1.00
C874   C     0.42999   0.82001   0.25000   0.00000  Uiso   1.00
C875   C     0.13904   0.88793   0.28551   0.00000  Uiso   1.00
C876   C     0.36067   0.61238   0.71455   0.00000  Uiso   1.00
C877   C     0.11096   0.63793   0.21449   0.00000  Uiso   1.00
C878   C     0.38933   0.86238   0.78544   0.00000  Uiso   1.00
C879   C     0.36096   0.61207   0.28551   0.00000  Uiso   1.00
C880   C     0.48894   0.78123   0.04181   0.00000  Uiso   1.00
C881   C     0.13933   0.88762   0.71455   0.00000  Uiso   1.00
C882   C     0.38904   0.86207   0.21449   0.00000  Uiso   1.00
C883   C     0.11067   0.63762   0.78544   0.00000  Uiso   1.00
C884   C     0.13793   0.61096   0.78551   0.00000  Uiso   1.00
C885   C     0.36238   0.88933   0.21455   0.00000  Uiso   1.00
C886   C     0.11207   0.86096   0.71449   0.00000  Uiso   1.00
C887   C     0.38762   0.63933   0.28544   0.00000  Uiso   1.00
C888   C     0.36207   0.88904   0.78551   0.00000  Uiso   1.00
C889   C     0.13762   0.61067   0.21455   0.00000  Uiso   1.00
C890   C     0.38793   0.63904   0.71449   0.00000  Uiso   1.00
C891   C     0.48894   0.71877   0.95819   0.00000  Uiso   1.00
C892   C     0.11238   0.86067   0.28544   0.00000  Uiso   1.00
C893   C     0.38904   0.63793   0.78551   0.00000  Uiso   1.00
C894   C     0.11067   0.86238   0.21455   0.00000  Uiso   1.00
C895   C     0.36096   0.88793   0.71449   0.00000  Uiso   1.00
C896   C     0.13933   0.61238   0.28544   0.00000  Uiso   1.00
C897   C     0.11096   0.86207   0.78551   0.00000  Uiso   1.00
C898   C     0.38933   0.63762   0.21455   0.00000  Uiso   1.00
C899   C     0.13904   0.61207   0.71449   0.00000  Uiso   1.00
C900   C     0.36067   0.88762   0.28544   0.00000  Uiso   1.00
C901   C     0.38793   0.86096   0.28551   0.00000  Uiso   1.00
C902   C     0.46877   0.73894   0.54181   0.00000  Uiso   1.00
C903   C     0.11238   0.63933   0.71455   0.00000  Uiso   1.00
C904   C     0.36207   0.61096   0.21449   0.00000  Uiso   1.00
C905   C     0.13762   0.88933   0.78544   0.00000  Uiso   1.00
C906   C     0.11207   0.63904   0.28551   0.00000  Uiso   1.00
C907   C     0.38762   0.86067   0.71455   0.00000  Uiso   1.00
C908   C     0.13793   0.88904   0.21449   0.00000  Uiso   1.00
C909   C     0.36238   0.61067   0.78544   0.00000  Uiso   1.00
C910   C     0.09810   0.84810   0.25000   0.00000  Uiso   1.00
C911   C     0.40196   0.65196   0.75000   0.00000  Uiso   1.00
C912   C     0.15191   0.59810   0.25000   0.00000  Uiso   1.00
H913   H     0.19456   0.97966   0.02674   0.00000  Uiso   1.00
H914   H     0.05545   0.72966   0.47326   0.00000  Uiso   1.00
H915   H     0.15792   0.54381   0.67976   0.00000  Uiso   1.00
H916   H     0.13658   0.56334   0.63812   0.00000  Uiso   1.00
H917   H     0.34771   0.94043   0.35929   0.00000  Uiso   1.00
H918   H     0.36150   0.95272   0.31135   0.00000  Uiso   1.00
H919   H     0.39109   0.92503   0.34191   0.00000  Uiso   1.00
H920   H     0.43988   0.88885   0.31770   0.00000  Uiso   1.00
H921   H     0.45619   0.84208   0.32024   0.00000  Uiso   1.00
H922   H     0.43666   0.86342   0.36188   0.00000  Uiso   1.00
H923   H     0.05957   0.65229   0.64071   0.00000  Uiso   1.00
H924   H     0.04728   0.63850   0.68865   0.00000  Uiso   1.00
H925   H     0.27034   0.94456   0.52674   0.00000  Uiso   1.00
H926   H     0.07497   0.60892   0.65809   0.00000  Uiso   1.00
H927   H     0.31011   0.63885   0.18231   0.00000  Uiso   1.00
H928   H     0.29381   0.59208   0.17976   0.00000  Uiso   1.00
H929   H     0.31334   0.61343   0.13812   0.00000  Uiso   1.00
H930   H     0.19043   0.90229   0.85929   0.00000  Uiso   1.00
H931   H     0.20272   0.88850   0.81135   0.00000  Uiso   1.00
H932   H     0.17503   0.85892   0.84191   0.00000  Uiso   1.00
H933   H     0.06012   0.61115   0.31770   0.00000  Uiso   1.00
H934   H     0.04381   0.65792   0.32024   0.00000  Uiso   1.00
H935   H     0.06334   0.63658   0.36188   0.00000  Uiso   1.00
H936   H     0.27034   0.55545   0.47326   0.00000  Uiso   1.00
H937   H     0.44043   0.84771   0.64071   0.00000  Uiso   1.00
H938   H     0.45272   0.86150   0.68865   0.00000  Uiso   1.00
H939   H     0.42503   0.89109   0.65809   0.00000  Uiso   1.00
H940   H     0.18988   0.86115   0.18230   0.00000  Uiso   1.00
H941   H     0.20619   0.90792   0.17976   0.00000  Uiso   1.00
H942   H     0.18666   0.88658   0.13812   0.00000  Uiso   1.00
H943   H     0.30957   0.59771   0.85929   0.00000  Uiso   1.00
H944   H     0.29728   0.61150   0.81135   0.00000  Uiso   1.00
H945   H     0.32497   0.64109   0.84191   0.00000  Uiso   1.00
H946   H     0.05545   0.77034   0.52674   0.00000  Uiso   1.00
H947   H     0.44456   0.77034   0.47326   0.00000  Uiso   1.00
H948   H     0.22966   0.55545   0.52674   0.00000  Uiso   1.00
H949   H     0.22966   0.94456   0.47326   0.00000  Uiso   1.00
H950   H     0.19434   0.98039   0.09727   0.00000  Uiso   1.00
H951   H     0.30566   0.98039   0.90273   0.00000  Uiso   1.00
H952   H     0.01961   0.69434   0.09727   0.00000  Uiso   1.00
H953   H     0.30545   0.97966   0.97326   0.00000  Uiso   1.00
H954   H     0.01961   0.80566   0.90273   0.00000  Uiso   1.00
H955   H     0.30566   0.51961   0.09727   0.00000  Uiso   1.00
H956   H     0.19434   0.51961   0.90273   0.00000  Uiso   1.00
H957   H     0.48039   0.80566   0.09727   0.00000  Uiso   1.00
H958   H     0.48039   0.69434   0.90273   0.00000  Uiso   1.00
H959   H     0.44434   0.73039   0.59727   0.00000  Uiso   1.00
H960   H     0.05566   0.73039   0.40273   0.00000  Uiso   1.00
H961   H     0.26961   0.94434   0.59727   0.00000  Uiso   1.00
H962   H     0.26961   0.55566   0.40273   0.00000  Uiso   1.00
H963   H     0.05566   0.76961   0.59727   0.00000  Uiso   1.00
H964   H     0.02034   0.69456   0.02674   0.00000  Uiso   1.00
H965   H     0.44434   0.76961   0.40273   0.00000  Uiso   1.00
H966   H     0.23039   0.55566   0.59727   0.00000  Uiso   1.00
H967   H     0.23039   0.94434   0.40273   0.00000  Uiso   1.00
H968   H     0.11115   0.93988   0.31770   0.00000  Uiso   1.00
H969   H     0.15792   0.95619   0.32024   0.00000  Uiso   1.00
H970   H     0.13658   0.93666   0.36188   0.00000  Uiso   1.00
H971   H     0.34772   0.55957   0.64070   0.00000  Uiso   1.00
H972   H     0.36149   0.54728   0.68865   0.00000  Uiso   1.00
H973   H     0.39109   0.57496   0.65810   0.00000  Uiso   1.00
H974   H     0.13885   0.68988   0.18230   0.00000  Uiso   1.00
H975   H     0.02034   0.80545   0.97326   0.00000  Uiso   1.00
H976   H     0.09208   0.70619   0.17976   0.00000  Uiso   1.00
H977   H     0.11342   0.68666   0.13812   0.00000  Uiso   1.00
H978   H     0.40229   0.80957   0.85929   0.00000  Uiso   1.00
H979   H     0.38850   0.79728   0.81135   0.00000  Uiso   1.00
H980   H     0.35892   0.82497   0.84191   0.00000  Uiso   1.00
H981   H     0.38885   0.56011   0.31769   0.00000  Uiso   1.00
H982   H     0.34208   0.54381   0.32024   0.00000  Uiso   1.00
H983   H     0.36343   0.56334   0.36188   0.00000  Uiso   1.00
H984   H     0.15229   0.94043   0.64071   0.00000  Uiso   1.00
H985   H     0.13850   0.95272   0.68865   0.00000  Uiso   1.00
H986   H     0.30545   0.52034   0.02674   0.00000  Uiso   1.00
H987   H     0.10892   0.92503   0.65809   0.00000  Uiso   1.00
H988   H     0.36115   0.81012   0.18230   0.00000  Uiso   1.00
H989   H     0.40792   0.79381   0.17976   0.00000  Uiso   1.00
H990   H     0.38658   0.81334   0.13812   0.00000  Uiso   1.00
H991   H     0.09771   0.69043   0.85929   0.00000  Uiso   1.00
H992   H     0.11150   0.70272   0.81135   0.00000  Uiso   1.00
H993   H     0.14109   0.67503   0.84191   0.00000  Uiso   1.00
H994   H     0.18988   0.63885   0.81770   0.00000  Uiso   1.00
H995   H     0.20619   0.59208   0.82024   0.00000  Uiso   1.00
H996   H     0.18666   0.61342   0.86188   0.00000  Uiso   1.00
H997   H     0.19456   0.52034   0.97326   0.00000  Uiso   1.00
H998   H     0.30957   0.90229   0.14071   0.00000  Uiso   1.00
H999   H     0.29728   0.88850   0.18865   0.00000  Uiso   1.00
H1000  H     0.32497   0.85892   0.15809   0.00000  Uiso   1.00
H1001  H     0.06012   0.88885   0.68230   0.00000  Uiso   1.00
H1002  H     0.04381   0.84208   0.67976   0.00000  Uiso   1.00
H1003  H     0.06334   0.86342   0.63812   0.00000  Uiso   1.00
H1004  H     0.44043   0.65228   0.35930   0.00000  Uiso   1.00
H1005  H     0.45272   0.63851   0.31135   0.00000  Uiso   1.00
H1006  H     0.42504   0.60891   0.34190   0.00000  Uiso   1.00
H1007  H     0.31012   0.86115   0.81770   0.00000  Uiso   1.00
H1008  H     0.47966   0.80544   0.02674   0.00000  Uiso   1.00
H1009  H     0.29381   0.90792   0.82024   0.00000  Uiso   1.00
H1010  H     0.31334   0.88658   0.86188   0.00000  Uiso   1.00
H1011  H     0.19043   0.59771   0.14071   0.00000  Uiso   1.00
H1012  H     0.20272   0.61150   0.18865   0.00000  Uiso   1.00
H1013  H     0.17503   0.64109   0.15809   0.00000  Uiso   1.00
H1014  H     0.43989   0.61115   0.68231   0.00000  Uiso   1.00
H1015  H     0.45619   0.65792   0.67975   0.00000  Uiso   1.00
H1016  H     0.43666   0.63657   0.63812   0.00000  Uiso   1.00
H1017  H     0.05957   0.84771   0.35929   0.00000  Uiso   1.00
H1018  H     0.04728   0.86150   0.31135   0.00000  Uiso   1.00
H1019  H     0.47966   0.69456   0.97326   0.00000  Uiso   1.00
H1020  H     0.07497   0.89109   0.34191   0.00000  Uiso   1.00
H1021  H     0.36115   0.68988   0.81770   0.00000  Uiso   1.00
H1022  H     0.40792   0.70619   0.82024   0.00000  Uiso   1.00
H1023  H     0.38658   0.68666   0.86188   0.00000  Uiso   1.00
H1024  H     0.09771   0.80957   0.14071   0.00000  Uiso   1.00
H1025  H     0.11150   0.79728   0.18865   0.00000  Uiso   1.00
H1026  H     0.14109   0.82497   0.15809   0.00000  Uiso   1.00
H1027  H     0.38885   0.93988   0.68230   0.00000  Uiso   1.00
H1028  H     0.34208   0.95619   0.67976   0.00000  Uiso   1.00
H1029  H     0.36342   0.93666   0.63812   0.00000  Uiso   1.00
H1030  H     0.44456   0.72966   0.52674   0.00000  Uiso   1.00
H1031  H     0.15229   0.55957   0.35929   0.00000  Uiso   1.00
H1032  H     0.13850   0.54728   0.31135   0.00000  Uiso   1.00
H1033  H     0.10892   0.57497   0.34191   0.00000  Uiso   1.00
H1034  H     0.13885   0.81012   0.81770   0.00000  Uiso   1.00
H1035  H     0.09208   0.79381   0.82024   0.00000  Uiso   1.00
H1036  H     0.11342   0.81334   0.86188   0.00000  Uiso   1.00
H1037  H     0.40228   0.69043   0.14070   0.00000  Uiso   1.00
H1038  H     0.38851   0.70272   0.18865   0.00000  Uiso   1.00
H1039  H     0.35891   0.67504   0.15809   0.00000  Uiso   1.00
H1040  H     0.11115   0.56012   0.68230   0.00000  Uiso   1.00
O1041  O     0.25000   0.50000   0.25000   0.00000  Uiso   1.00
O1042  O     0.25000   0.96964   0.66317   0.00000  Uiso   1.00
O1043  O     0.46964   0.75000   0.33683   0.00000  Uiso   1.00
O1044  O     0.03036   0.75000   0.66317   0.00000  Uiso   1.00
O1045  O     0.00000   0.71964   0.83683   0.00000  Uiso   1.00
O1046  O     0.00000   0.78036   0.16317   0.00000  Uiso   1.00
O1047  O     0.28036   0.50000   0.83683   0.00000  Uiso   1.00
O1048  O     0.21964   0.50000   0.16317   0.00000  Uiso   1.00
O1049  O     0.00000   0.78036   0.83683   0.00000  Uiso   1.00
O1050  O     0.00000   0.71964   0.16317   0.00000  Uiso   1.00
O1051  O     0.21964   0.50000   0.83683   0.00000  Uiso   1.00
O1052  O     0.25000   0.50000   0.75000   0.00000  Uiso   1.00
O1053  O     0.28036   0.50000   0.16317   0.00000  Uiso   1.00
O1054  O     0.20726   0.57307   0.27282   0.00000  Uiso   1.00
O1055  O     0.29275   0.92693   0.72718   0.00000  Uiso   1.00
O1056  O     0.42693   0.70726   0.27282   0.00000  Uiso   1.00
O1057  O     0.07307   0.79275   0.72718   0.00000  Uiso   1.00
O1058  O     0.29275   0.92693   0.27282   0.00000  Uiso   1.00
O1059  O     0.20726   0.57307   0.72718   0.00000  Uiso   1.00
O1060  O     0.07307   0.79275   0.27282   0.00000  Uiso   1.00
O1061  O     0.42693   0.70726   0.72718   0.00000  Uiso   1.00
O1062  O     0.20726   0.92693   0.72718   0.00000  Uiso   1.00
O1063  O     0.00000   0.75000   0.25000   0.00000  Uiso   1.00
O1064  O     0.29275   0.57307   0.27282   0.00000  Uiso   1.00
O1065  O     0.42693   0.79275   0.72718   0.00000  Uiso   1.00
O1066  O     0.07307   0.70726   0.27282   0.00000  Uiso   1.00
O1067  O     0.29275   0.57307   0.72718   0.00000  Uiso   1.00
O1068  O     0.20726   0.92693   0.27282   0.00000  Uiso   1.00
O1069  O     0.07307   0.70726   0.72718   0.00000  Uiso   1.00
O1070  O     0.42693   0.79275   0.27282   0.00000  Uiso   1.00
O1071  O     0.45726   0.82307   0.77282   0.00000  Uiso   1.00
O1072  O     0.04275   0.67693   0.22718   0.00000  Uiso   1.00
O1073  O     0.17693   0.95726   0.77282   0.00000  Uiso   1.00
O1074  O     0.00000   0.75000   0.75000   0.00000  Uiso   1.00
O1075  O     0.32307   0.54275   0.22718   0.00000  Uiso   1.00
O1076  O     0.04275   0.67693   0.77282   0.00000  Uiso   1.00
O1077  O     0.45726   0.82307   0.22718   0.00000  Uiso   1.00
O1078  O     0.32307   0.54275   0.77282   0.00000  Uiso   1.00
O1079  O     0.17693   0.95726   0.22718   0.00000  Uiso   1.00
O1080  O     0.45726   0.67693   0.22718   0.00000  Uiso   1.00
O1081  O     0.04275   0.82307   0.77282   0.00000  Uiso   1.00
O1082  O     0.17693   0.54275   0.22718   0.00000  Uiso   1.00
O1083  O     0.32307   0.95726   0.77282   0.00000  Uiso   1.00
O1084  O     0.04275   0.82307   0.22718   0.00000  Uiso   1.00
O1085  O     0.25000   0.96964   0.33683   0.00000  Uiso   1.00
O1086  O     0.45726   0.67693   0.77282   0.00000  Uiso   1.00
O1087  O     0.32307   0.95726   0.22718   0.00000  Uiso   1.00
O1088  O     0.17693   0.54275   0.77282   0.00000  Uiso   1.00
O1089  O     0.15299   0.89960   0.32071   0.00000  Uiso   1.00
O1090  O     0.34514   0.60173   0.67977   0.00000  Uiso   1.00
O1091  O     0.09701   0.64960   0.17929   0.00000  Uiso   1.00
O1092  O     0.40486   0.85173   0.82022   0.00000  Uiso   1.00
O1093  O     0.34701   0.60040   0.32071   0.00000  Uiso   1.00
O1094  O     0.15486   0.89827   0.67977   0.00000  Uiso   1.00
O1095  O     0.40299   0.85040   0.17929   0.00000  Uiso   1.00
O1096  O     0.25000   0.53036   0.66317   0.00000  Uiso   1.00
O1097  O     0.09514   0.64827   0.82022   0.00000  Uiso   1.00
O1098  O     0.14960   0.59701   0.82071   0.00000  Uiso   1.00
O1099  O     0.35173   0.90486   0.17977   0.00000  Uiso   1.00
O1100  O     0.10040   0.84701   0.67929   0.00000  Uiso   1.00
O1101  O     0.39827   0.65486   0.32022   0.00000  Uiso   1.00
O1102  O     0.35040   0.90299   0.82071   0.00000  Uiso   1.00
O1103  O     0.14827   0.59514   0.17977   0.00000  Uiso   1.00
O1104  O     0.39960   0.65299   0.67929   0.00000  Uiso   1.00
O1105  O     0.10173   0.84514   0.32022   0.00000  Uiso   1.00
O1106  O     0.40299   0.64960   0.82071   0.00000  Uiso   1.00
O1107  O     0.03036   0.75000   0.33683   0.00000  Uiso   1.00
O1108  O     0.09514   0.85173   0.17977   0.00000  Uiso   1.00
O1109  O     0.34701   0.89960   0.67929   0.00000  Uiso   1.00
O1110  O     0.15486   0.60173   0.32022   0.00000  Uiso   1.00
O1111  O     0.09701   0.85040   0.82071   0.00000  Uiso   1.00
O1112  O     0.40486   0.64827   0.17977   0.00000  Uiso   1.00
O1113  O     0.15299   0.60040   0.67929   0.00000  Uiso   1.00
O1114  O     0.34514   0.89827   0.32022   0.00000  Uiso   1.00
O1115  O     0.39960   0.84701   0.32071   0.00000  Uiso   1.00
O1116  O     0.10173   0.65486   0.67977   0.00000  Uiso   1.00
O1117  O     0.35040   0.59701   0.17929   0.00000  Uiso   1.00
O1118  O     0.46964   0.75000   0.66317   0.00000  Uiso   1.00
O1119  O     0.14827   0.90486   0.82022   0.00000  Uiso   1.00
O1120  O     0.10040   0.65299   0.32071   0.00000  Uiso   1.00
O1121  O     0.39827   0.84514   0.67977   0.00000  Uiso   1.00
O1122  O     0.14960   0.90299   0.17929   0.00000  Uiso   1.00
O1123  O     0.35173   0.59514   0.82022   0.00000  Uiso   1.00
O1124  O     0.25000   0.53036   0.33683   0.00000  Uiso   1.00
Zn1125 Zn    0.20660   0.50000   0.21760   0.00000  Uiso   1.00
Zn1126 Zn    0.04340   0.75000   0.28240   0.00000  Uiso   1.00
Zn1127 Zn    0.25000   0.95660   0.71760   0.00000  Uiso   1.00
Zn1128 Zn    0.25000   0.54340   0.28240   0.00000  Uiso   1.00
Zn1129 Zn    0.04340   0.75000   0.71760   0.00000  Uiso   1.00
Zn1130 Zn    0.45660   0.75000   0.28240   0.00000  Uiso   1.00
Zn1131 Zn    0.25000   0.54340   0.71760   0.00000  Uiso   1.00
Zn1132 Zn    0.25000   0.95660   0.28240   0.00000  Uiso   1.00
Zn1133 Zn    0.29340   0.50000   0.78240   0.00000  Uiso   1.00
Zn1134 Zn    0.00000   0.70660   0.21760   0.00000  Uiso   1.00
Zn1135 Zn    0.00000   0.79340   0.78240   0.00000  Uiso   1.00
Zn1136 Zn    0.29340   0.50000   0.21760   0.00000  Uiso   1.00
Zn1137 Zn    0.20660   0.50000   0.78240   0.00000  Uiso   1.00
Zn1138 Zn    0.00000   0.79340   0.21760   0.00000  Uiso   1.00
Zn1139 Zn    0.00000   0.70660   0.78240   0.00000  Uiso   1.00
Zn1140 Zn    0.45660   0.75000   0.71760   0.00000  Uiso   1.00
C1141  C     0.71877   0.98894   0.04181   0.00000  Uiso   1.00
C1142  C     0.53123   0.73894   0.45819   0.00000  Uiso   1.00
C1143  C     0.84804   0.90196   0.75000   0.00000  Uiso   1.00
C1144  C     0.90191   0.65191   0.25000   0.00000  Uiso   1.00
C1145  C     0.59804   0.84804   0.75000   0.00000  Uiso   1.00
C1146  C     0.84810   0.90191   0.25000   0.00000  Uiso   1.00
C1147  C     0.65196   0.59804   0.75000   0.00000  Uiso   1.00
C1148  C     0.59810   0.65191   0.75000   0.00000  Uiso   1.00
C1149  C     0.90196   0.84804   0.25000   0.00000  Uiso   1.00
C1150  C     0.65191   0.90190   0.75000   0.00000  Uiso   1.00
C1151  C     0.84804   0.59804   0.25000   0.00000  Uiso   1.00
C1152  C     0.90190   0.84810   0.75000   0.00000  Uiso   1.00
C1153  C     0.76106   0.96877   0.54181   0.00000  Uiso   1.00
C1154  C     0.59804   0.65196   0.25000   0.00000  Uiso   1.00
C1155  C     0.84810   0.59810   0.75000   0.00000  Uiso   1.00
C1156  C     0.65196   0.90196   0.25000   0.00000  Uiso   1.00
C1157  C     0.75000   0.50000   0.10244   0.00000  Uiso   1.00
C1158  C     0.75000   0.50000   0.89756   0.00000  Uiso   1.00
C1159  C     0.50000   0.75000   0.10244   0.00000  Uiso   1.00
C1160  C     0.50000   0.75000   0.89756   0.00000  Uiso   1.00
C1161  C     0.50000   0.75000   0.60244   0.00000  Uiso   1.00
C1162  C     0.50000   0.75000   0.39756   0.00000  Uiso   1.00
C1163  C     0.75000   0.50000   0.60244   0.00000  Uiso   1.00
C1164  C     0.76106   0.53123   0.45819   0.00000  Uiso   1.00
C1165  C     0.75000   0.50000   0.39756   0.00000  Uiso   1.00
C1166  C     0.63883   0.93450   0.32994   0.00000  Uiso   1.00
C1167  C     0.86241   0.56953   0.66673   0.00000  Uiso   1.00
C1168  C     0.61117   0.68450   0.17005   0.00000  Uiso   1.00
C1169  C     0.88760   0.81953   0.83327   0.00000  Uiso   1.00
C1170  C     0.86117   0.56550   0.32994   0.00000  Uiso   1.00
C1171  C     0.63760   0.93047   0.66673   0.00000  Uiso   1.00
C1172  C     0.88883   0.81550   0.17005   0.00000  Uiso   1.00
C1173  C     0.61240   0.68047   0.83327   0.00000  Uiso   1.00
C1174  C     0.68450   0.61117   0.82994   0.00000  Uiso   1.00
C1175  C     0.53123   0.76106   0.54181   0.00000  Uiso   1.00
C1176  C     0.81953   0.88760   0.16673   0.00000  Uiso   1.00
C1177  C     0.56550   0.86117   0.67005   0.00000  Uiso   1.00
C1178  C     0.93047   0.63759   0.33327   0.00000  Uiso   1.00
C1179  C     0.81550   0.88883   0.82994   0.00000  Uiso   1.00
C1180  C     0.68047   0.61240   0.16673   0.00000  Uiso   1.00
C1181  C     0.93450   0.63883   0.67006   0.00000  Uiso   1.00
C1182  C     0.56953   0.86240   0.33327   0.00000  Uiso   1.00
C1183  C     0.88883   0.68450   0.82994   0.00000  Uiso   1.00
C1184  C     0.61240   0.81953   0.16673   0.00000  Uiso   1.00
C1185  C     0.86117   0.93450   0.67005   0.00000  Uiso   1.00
C1186  C     0.96877   0.76106   0.45819   0.00000  Uiso   1.00
C1187  C     0.63760   0.56953   0.33327   0.00000  Uiso   1.00
C1188  C     0.61117   0.81550   0.82994   0.00000  Uiso   1.00
C1189  C     0.88759   0.68047   0.16673   0.00000  Uiso   1.00
C1190  C     0.63883   0.56550   0.67005   0.00000  Uiso   1.00
C1191  C     0.86240   0.93047   0.33327   0.00000  Uiso   1.00
C1192  C     0.93450   0.86117   0.32994   0.00000  Uiso   1.00
C1193  C     0.56953   0.63760   0.66673   0.00000  Uiso   1.00
C1194  C     0.81550   0.61117   0.17006   0.00000  Uiso   1.00
C1195  C     0.68047   0.88760   0.83327   0.00000  Uiso   1.00
C1196  C     0.56550   0.63883   0.32994   0.00000  Uiso   1.00
C1197  C     0.73894   0.53123   0.54181   0.00000  Uiso   1.00
C1198  C     0.93047   0.86240   0.66673   0.00000  Uiso   1.00
C1199  C     0.68450   0.88883   0.17005   0.00000  Uiso   1.00
C1200  C     0.81953   0.61241   0.83327   0.00000  Uiso   1.00
C1201  C     0.73894   0.96877   0.45819   0.00000  Uiso   1.00
C1202  C     0.71870   0.98917   0.08208   0.00000  Uiso   1.00
C1203  C     0.78130   0.98917   0.91792   0.00000  Uiso   1.00
C1204  C     0.51083   0.71870   0.08208   0.00000  Uiso   1.00
C1205  C     0.78123   0.98894   0.95819   0.00000  Uiso   1.00
C1206  C     0.51083   0.78130   0.91792   0.00000  Uiso   1.00
C1207  C     0.78130   0.51083   0.08208   0.00000  Uiso   1.00
C1208  C     0.71870   0.51083   0.91792   0.00000  Uiso   1.00
C1209  C     0.98917   0.78130   0.08208   0.00000  Uiso   1.00
C1210  C     0.98917   0.71870   0.91792   0.00000  Uiso   1.00
C1211  C     0.96870   0.73917   0.58208   0.00000  Uiso   1.00
C1212  C     0.53130   0.73917   0.41792   0.00000  Uiso   1.00
C1213  C     0.76083   0.96870   0.58208   0.00000  Uiso   1.00
C1214  C     0.76083   0.53130   0.41792   0.00000  Uiso   1.00
C1215  C     0.53130   0.76083   0.58208   0.00000  Uiso   1.00
C1216  C     0.51106   0.71877   0.04181   0.00000  Uiso   1.00
C1217  C     0.96870   0.76083   0.41792   0.00000  Uiso   1.00
C1218  C     0.73917   0.53130   0.58208   0.00000  Uiso   1.00
C1219  C     0.73917   0.96870   0.41792   0.00000  Uiso   1.00
C1220  C     0.75000   0.50000   0.02132   0.00000  Uiso   1.00
C1221  C     0.75000   0.50000   0.97868   0.00000  Uiso   1.00
C1222  C     0.50000   0.75000   0.02132   0.00000  Uiso   1.00
C1223  C     0.50000   0.75000   0.97868   0.00000  Uiso   1.00
C1224  C     0.50000   0.75000   0.52132   0.00000  Uiso   1.00
C1225  C     0.50000   0.75000   0.47868   0.00000  Uiso   1.00
C1226  C     0.75000   0.50000   0.52132   0.00000  Uiso   1.00
C1227  C     0.51106   0.78123   0.95819   0.00000  Uiso   1.00
C1228  C     0.75000   0.50000   0.47868   0.00000  Uiso   1.00
C1229  C     0.75000   0.50000   0.35522   0.00000  Uiso   1.00
C1230  C     0.75000   0.50000   0.64478   0.00000  Uiso   1.00
C1231  C     0.50000   0.75000   0.35522   0.00000  Uiso   1.00
C1232  C     0.50000   0.75000   0.64478   0.00000  Uiso   1.00
C1233  C     0.50000   0.75000   0.85522   0.00000  Uiso   1.00
C1234  C     0.50000   0.75000   0.14478   0.00000  Uiso   1.00
C1235  C     0.75000   0.50000   0.85522   0.00000  Uiso   1.00
C1236  C     0.75000   0.50000   0.14478   0.00000  Uiso   1.00
C1237  C     0.67998   0.57002   0.25000   0.00000  Uiso   1.00
C1238  C     0.78123   0.51106   0.04181   0.00000  Uiso   1.00
C1239  C     0.82001   0.92999   0.75000   0.00000  Uiso   1.00
C1240  C     0.92998   0.67998   0.25000   0.00000  Uiso   1.00
C1241  C     0.57001   0.82001   0.75000   0.00000  Uiso   1.00
C1242  C     0.82002   0.92998   0.25000   0.00000  Uiso   1.00
C1243  C     0.67999   0.57001   0.75000   0.00000  Uiso   1.00
C1244  C     0.57002   0.82002   0.25000   0.00000  Uiso   1.00
C1245  C     0.92999   0.67999   0.75000   0.00000  Uiso   1.00
C1246  C     0.67998   0.92998   0.75000   0.00000  Uiso   1.00
C1247  C     0.82001   0.57001   0.25000   0.00000  Uiso   1.00
C1248  C     0.92998   0.82002   0.75000   0.00000  Uiso   1.00
C1249  C     0.71877   0.51106   0.95819   0.00000  Uiso   1.00
C1250  C     0.57001   0.67999   0.25000   0.00000  Uiso   1.00
C1251  C     0.82002   0.57002   0.75000   0.00000  Uiso   1.00
C1252  C     0.67999   0.92999   0.25000   0.00000  Uiso   1.00
C1253  C     0.57002   0.67998   0.75000   0.00000  Uiso   1.00
C1254  C     0.92999   0.82001   0.25000   0.00000  Uiso   1.00
C1255  C     0.63904   0.88793   0.28551   0.00000  Uiso   1.00
C1256  C     0.86067   0.61238   0.71455   0.00000  Uiso   1.00
C1257  C     0.61096   0.63793   0.21449   0.00000  Uiso   1.00
C1258  C     0.88933   0.86238   0.78544   0.00000  Uiso   1.00
C1259  C     0.86096   0.61207   0.28551   0.00000  Uiso   1.00
C1260  C     0.98894   0.78123   0.04181   0.00000  Uiso   1.00
C1261  C     0.63933   0.88762   0.71455   0.00000  Uiso   1.00
C1262  C     0.88904   0.86207   0.21449   0.00000  Uiso   1.00
C1263  C     0.61067   0.63762   0.78544   0.00000  Uiso   1.00
C1264  C     0.63793   0.61096   0.78551   0.00000  Uiso   1.00
C1265  C     0.86238   0.88933   0.21455   0.00000  Uiso   1.00
C1266  C     0.61207   0.86096   0.71449   0.00000  Uiso   1.00
C1267  C     0.88762   0.63933   0.28544   0.00000  Uiso   1.00
C1268  C     0.86207   0.88904   0.78551   0.00000  Uiso   1.00
C1269  C     0.63762   0.61067   0.21455   0.00000  Uiso   1.00
C1270  C     0.88793   0.63904   0.71449   0.00000  Uiso   1.00
C1271  C     0.98894   0.71877   0.95819   0.00000  Uiso   1.00
C1272  C     0.61238   0.86067   0.28544   0.00000  Uiso   1.00
C1273  C     0.88904   0.63793   0.78551   0.00000  Uiso   1.00
C1274  C     0.61067   0.86238   0.21455   0.00000  Uiso   1.00
C1275  C     0.86096   0.88793   0.71449   0.00000  Uiso   1.00
C1276  C     0.63933   0.61238   0.28544   0.00000  Uiso   1.00
C1277  C     0.61096   0.86207   0.78551   0.00000  Uiso   1.00
C1278  C     0.88933   0.63762   0.21455   0.00000  Uiso   1.00
C1279  C     0.63904   0.61207   0.71449   0.00000  Uiso   1.00
C1280  C     0.86067   0.88762   0.28544   0.00000  Uiso   1.00
C1281  C     0.88793   0.86096   0.28551   0.00000  Uiso   1.00
C1282  C     0.96877   0.73894   0.54181   0.00000  Uiso   1.00
C1283  C     0.61238   0.63933   0.71455   0.00000  Uiso   1.00
C1284  C     0.86207   0.61096   0.21449   0.00000  Uiso   1.00
C1285  C     0.63762   0.88933   0.78544   0.00000  Uiso   1.00
C1286  C     0.61207   0.63904   0.28551   0.00000  Uiso   1.00
C1287  C     0.88762   0.86067   0.71455   0.00000  Uiso   1.00
C1288  C     0.63793   0.88904   0.21449   0.00000  Uiso   1.00
C1289  C     0.86238   0.61067   0.78544   0.00000  Uiso   1.00
C1290  C     0.59810   0.84810   0.25000   0.00000  Uiso   1.00
C1291  C     0.90196   0.65196   0.75000   0.00000  Uiso   1.00
C1292  C     0.65191   0.59810   0.25000   0.00000  Uiso   1.00
H1293  H     0.69456   0.97966   0.02674   0.00000  Uiso   1.00
H1294  H     0.55545   0.72966   0.47326   0.00000  Uiso   1.00
H1295  H     0.65792   0.54381   0.67976   0.00000  Uiso   1.00
H1296  H     0.63658   0.56334   0.63812   0.00000  Uiso   1.00
H1297  H     0.84771   0.94043   0.35929   0.00000  Uiso   1.00
H1298  H     0.86150   0.95272   0.31135   0.00000  Uiso   1.00
H1299  H     0.89109   0.92503   0.34191   0.00000  Uiso   1.00
H1300  H     0.93988   0.88885   0.31770   0.00000  Uiso   1.00
H1301  H     0.95619   0.84208   0.32024   0.00000  Uiso   1.00
H1302  H     0.93666   0.86342   0.36188   0.00000  Uiso   1.00
H1303  H     0.55957   0.65229   0.64071   0.00000  Uiso   1.00
H1304  H     0.54728   0.63850   0.68865   0.00000  Uiso   1.00
H1305  H     0.77034   0.94456   0.52674   0.00000  Uiso   1.00
H1306  H     0.57497   0.60892   0.65809   0.00000  Uiso   1.00
H1307  H     0.81011   0.63885   0.18231   0.00000  Uiso   1.00
H1308  H     0.79381   0.59208   0.17976   0.00000  Uiso   1.00
H1309  H     0.81334   0.61343   0.13812   0.00000  Uiso   1.00
H1310  H     0.69043   0.90229   0.85929   0.00000  Uiso   1.00
H1311  H     0.70272   0.88850   0.81135   0.00000  Uiso   1.00
H1312  H     0.67503   0.85892   0.84191   0.00000  Uiso   1.00
H1313  H     0.56012   0.61115   0.31770   0.00000  Uiso   1.00
H1314  H     0.54381   0.65792   0.32024   0.00000  Uiso   1.00
H1315  H     0.56334   0.63658   0.36188   0.00000  Uiso   1.00
H1316  H     0.77034   0.55545   0.47326   0.00000  Uiso   1.00
H1317  H     0.94043   0.84771   0.64071   0.00000  Uiso   1.00
H1318  H     0.95272   0.86150   0.68865   0.00000  Uiso   1.00
H1319  H     0.92503   0.89109   0.65809   0.00000  Uiso   1.00
H1320  H     0.68988   0.86115   0.18230   0.00000  Uiso   1.00
H1321  H     0.70619   0.90792   0.17976   0.00000  Uiso   1.00
H1322  H     0.68666   0.88658   0.13812   0.00000  Uiso   1.00
H1323  H     0.80957   0.59771   0.85929   0.00000  Uiso   1.00
H1324  H     0.79728   0.61150   0.81135   0.00000  Uiso   1.00
H1325  H     0.82497   0.64109   0.84191   0.00000  Uiso   1.00
H1326  H     0.55545   0.77034   0.52674   0.00000  Uiso   1.00
H1327  H     0.94456   0.77034   0.47326   0.00000  Uiso   1.00
H1328  H     0.72966   0.55545   0.52674   0.00000  Uiso   1.00
H1329  H     0.72966   0.94456   0.47326   0.00000  Uiso   1.00
H1330  H     0.69434   0.98039   0.09727   0.00000  Uiso   1.00
H1331  H     0.80566   0.98039   0.90273   0.00000  Uiso   1.00
H1332  H     0.51961   0.69434   0.09727   0.00000  Uiso   1.00
H1333  H     0.80545   0.97966   0.97326   0.00000  Uiso   1.00
H1334  H     0.51961   0.80566   0.90273   0.00000  Uiso   1.00
H1335  H     0.80566   0.51961   0.09727   0.00000  Uiso   1.00
H1336  H     0.69434   0.51961   0.90273   0.00000  Uiso   1.00
H1337  H     0.98039   0.80566   0.09727   0.00000  Uiso   1.00
H1338  H     0.98039   0.69434   0.90273   0.00000  Uiso   1.00
H1339  H     0.94434   0.73039   0.59727   0.00000  Uiso   1.00
H1340  H     0.55566   0.73039   0.40273   0.00000  Uiso   1.00
H1341  H     0.76961   0.94434   0.59727   0.00000  Uiso   1.00
H1342  H     0.76961   0.55566   0.40273   0.00000  Uiso   1.00
H1343  H     0.55566   0.76961   0.59727   0.00000  Uiso   1.00
H1344  H     0.52034   0.69456   0.02674   0.00000  Uiso   1.00
H1345  H     0.94434   0.76961   0.40273   0.00000  Uiso   1.00
H1346  H     0.73039   0.55566   0.59727   0.00000  Uiso   1.00
H1347  H     0.73039   0.94434   0.40273   0.00000  Uiso   1.00
H1348  H     0.61115   0.93988   0.31770   0.00000  Uiso   1.00
H1349  H     0.65792   0.95619   0.32024   0.00000  Uiso   1.00
H1350  H     0.63658   0.93666   0.36188   0.00000  Uiso   1.00
H1351  H     0.84772   0.55957   0.64070   0.00000  Uiso   1.00
H1352  H     0.86149   0.54728   0.68865   0.00000  Uiso   1.00
H1353  H     0.89109   0.57496   0.65810   0.00000  Uiso   1.00
H1354  H     0.63885   0.68988   0.18230   0.00000  Uiso   1.00
H1355  H     0.52034   0.80545   0.97326   0.00000  Uiso   1.00
H1356  H     0.59208   0.70619   0.17976   0.00000  Uiso   1.00
H1357  H     0.61342   0.68666   0.13812   0.00000  Uiso   1.00
H1358  H     0.90229   0.80957   0.85929   0.00000  Uiso   1.00
H1359  H     0.88850   0.79728   0.81135   0.00000  Uiso   1.00
H1360  H     0.85892   0.82497   0.84191   0.00000  Uiso   1.00
H1361  H     0.88885   0.56011   0.31769   0.00000  Uiso   1.00
H1362  H     0.84208   0.54381   0.32024   0.00000  Uiso   1.00
H1363  H     0.86343   0.56334   0.36188   0.00000  Uiso   1.00
H1364  H     0.65229   0.94043   0.64071   0.00000  Uiso   1.00
H1365  H     0.63850   0.95272   0.68865   0.00000  Uiso   1.00
H1366  H     0.80545   0.52034   0.02674   0.00000  Uiso   1.00
H1367  H     0.60892   0.92503   0.65809   0.00000  Uiso   1.00
H1368  H     0.86115   0.81012   0.18230   0.00000  Uiso   1.00
H1369  H     0.90792   0.79381   0.17976   0.00000  Uiso   1.00
H1370  H     0.88658   0.81334   0.13812   0.00000  Uiso   1.00
H1371  H     0.59771   0.69043   0.85929   0.00000  Uiso   1.00
H1372  H     0.61150   0.70272   0.81135   0.00000  Uiso   1.00
H1373  H     0.64109   0.67503   0.84191   0.00000  Uiso   1.00
H1374  H     0.68988   0.63885   0.81770   0.00000  Uiso   1.00
H1375  H     0.70619   0.59208   0.82024   0.00000  Uiso   1.00
H1376  H     0.68666   0.61342   0.86188   0.00000  Uiso   1.00
H1377  H     0.69456   0.52034   0.97326   0.00000  Uiso   1.00
H1378  H     0.80957   0.90229   0.14071   0.00000  Uiso   1.00
H1379  H     0.79728   0.88850   0.18865   0.00000  Uiso   1.00
H1380  H     0.82497   0.85892   0.15809   0.00000  Uiso   1.00
H1381  H     0.56012   0.88885   0.68230   0.00000  Uiso   1.00
H1382  H     0.54381   0.84208   0.67976   0.00000  Uiso   1.00
H1383  H     0.56334   0.86342   0.63812   0.00000  Uiso   1.00
H1384  H     0.94043   0.65228   0.35930   0.00000  Uiso   1.00
H1385  H     0.95272   0.63851   0.31135   0.00000  Uiso   1.00
H1386  H     0.92504   0.60891   0.34190   0.00000  Uiso   1.00
H1387  H     0.81012   0.86115   0.81770   0.00000  Uiso   1.00
H1388  H     0.97966   0.80544   0.02674   0.00000  Uiso   1.00
H1389  H     0.79381   0.90792   0.82024   0.00000  Uiso   1.00
H1390  H     0.81334   0.88658   0.86188   0.00000  Uiso   1.00
H1391  H     0.69043   0.59771   0.14071   0.00000  Uiso   1.00
H1392  H     0.70272   0.61150   0.18865   0.00000  Uiso   1.00
H1393  H     0.67503   0.64109   0.15809   0.00000  Uiso   1.00
H1394  H     0.93989   0.61115   0.68231   0.00000  Uiso   1.00
H1395  H     0.95619   0.65792   0.67975   0.00000  Uiso   1.00
H1396  H     0.93666   0.63657   0.63812   0.00000  Uiso   1.00
H1397  H     0.55957   0.84771   0.35929   0.00000  Uiso   1.00
H1398  H     0.54728   0.86150   0.31135   0.00000  Uiso   1.00
H1399  H     0.97966   0.69456   0.97326   0.00000  Uiso   1.00
H1400  H     0.57497   0.89109   0.34191   0.00000  Uiso   1.00
H1401  H     0.86115   0.68988   0.81770   0.00000  Uiso   1.00
H1402  H     0.90792   0.70619   0.82024   0.00000  Uiso   1.00
H1403  H     0.88658   0.68666   0.86188   0.00000  Uiso   1.00
H1404  H     0.59771   0.80957   0.14071   0.00000  Uiso   1.00
H1405  H     0.61150   0.79728   0.18865   0.00000  Uiso   1.00
H1406  H     0.64109   0.82497   0.15809   0.00000  Uiso   1.00
H1407  H     0.88885   0.93988   0.68230   0.00000  Uiso   1.00
H1408  H     0.84208   0.95619   0.67976   0.00000  Uiso   1.00
H1409  H     0.86342   0.93666   0.63812   0.00000  Uiso   1.00
H1410  H     0.94456   0.72966   0.52674   0.00000  Uiso   1.00
H1411  H     0.65229   0.55957   0.35929   0.00000  Uiso   1.00
H1412  H     0.63850   0.54728   0.31135   0.00000  Uiso   1.00
H1413  H     0.60892   0.57497   0.34191   0.00000  Uiso   1.00
H1414  H     0.63885   0.81012   0.81770   0.00000  Uiso   1.00
H1415  H     0.59208   0.79381   0.82024   0.00000  Uiso   1.00
H1416  H     0.61342   0.81334   0.86188   0.00000  Uiso   1.00
H1417  H     0.90228   0.69043   0.14070   0.00000  Uiso   1.00
H1418  H     0.88851   0.70272   0.18865   0.00000  Uiso   1.00
H1419  H     0.85891   0.67504   0.15809   0.00000  Uiso   1.00
H1420  H     0.61115   0.56012   0.68230   0.00000  Uiso   1.00
O1421  O     0.75000   0.50000   0.25000   0.00000  Uiso   1.00
O1422  O     0.75000   0.96964   0.66317   0.00000  Uiso   1.00
O1423  O     0.96964   0.75000   0.33683   0.00000  Uiso   1.00
O1424  O     0.53036   0.75000   0.66317   0.00000  Uiso   1.00
O1425  O     0.50000   0.71964   0.83683   0.00000  Uiso   1.00
O1426  O     0.50000   0.78036   0.16317   0.00000  Uiso   1.00
O1427  O     0.78036   0.50000   0.83683   0.00000  Uiso   1.00
O1428  O     0.71964   0.50000   0.16317   0.00000  Uiso   1.00
O1429  O     0.50000   0.78036   0.83683   0.00000  Uiso   1.00
O1430  O     0.50000   0.71964   0.16317   0.00000  Uiso   1.00
O1431  O     0.71964   0.50000   0.83683   0.00000  Uiso   1.00
O1432  O     0.75000   0.50000   0.75000   0.00000  Uiso   1.00
O1433  O     0.78036   0.50000   0.16317   0.00000  Uiso   1.00
O1434  O     0.70726   0.57307   0.27282   0.00000  Uiso   1.00
O1435  O     0.79275   0.92693   0.72718   0.00000  Uiso   1.00
O1436  O     0.92693   0.70726   0.27282   0.00000  Uiso   1.00
O1437  O     0.57307   0.79275   0.72718   0.00000  Uiso   1.00
O1438  O     0.79275   0.92693   0.27282   0.00000  Uiso   1.00
O1439  O     0.70726   0.57307   0.72718   0.00000  Uiso   1.00
O1440  O     0.57307   0.79275   0.27282   0.00000  Uiso   1.00
O1441  O     0.92693   0.70726   0.72718   0.00000  Uiso   1.00
O1442  O     0.70726   0.92693   0.72718   0.00000  Uiso   1.00
O1443  O     0.50000   0.75000   0.25000   0.00000  Uiso   1.00
O1444  O     0.79275   0.57307   0.27282   0.00000  Uiso   1.00
O1445  O     0.92693   0.79275   0.72718   0.00000  Uiso   1.00
O1446  O     0.57307   0.70726   0.27282   0.00000  Uiso   1.00
O1447  O     0.79275   0.57307   0.72718   0.00000  Uiso   1.00
O1448  O     0.70726   0.92693   0.27282   0.00000  Uiso   1.00
O1449  O     0.57307   0.70726   0.72718   0.00000  Uiso   1.00
O1450  O     0.92693   0.79275   0.27282   0.00000  Uiso   1.00
O1451  O     0.95726   0.82307   0.77282   0.00000  Uiso   1.00
O1452  O     0.54275   0.67693   0.22718   0.00000  Uiso   1.00
O1453  O     0.67693   0.95726   0.77282   0.00000  Uiso   1.00
O1454  O     0.50000   0.75000   0.75000   0.00000  Uiso   1.00
O1455  O     0.82307   0.54275   0.22718   0.00000  Uiso   1.00
O1456  O     0.54275   0.67693   0.77282   0.00000  Uiso   1.00
O1457  O     0.95726   0.82307   0.22718   0.00000  Uiso   1.00
O1458  O     0.82307   0.54275   0.77282   0.00000  Uiso   1.00
O1459  O     0.67693   0.95726   0.22718   0.00000  Uiso   1.00
O1460  O     0.95726   0.67693   0.22718   0.00000  Uiso   1.00
O1461  O     0.54275   0.82307   0.77282   0.00000  Uiso   1.00
O1462  O     0.67693   0.54275   0.22718   0.00000  Uiso   1.00
O1463  O     0.82307   0.95726   0.77282   0.00000  Uiso   1.00
O1464  O     0.54275   0.82307   0.22718   0.00000  Uiso   1.00
O1465  O     0.75000   0.96964   0.33683   0.00000  Uiso   1.00
O1466  O     0.95726   0.67693   0.77282   0.00000  Uiso   1.00
O1467  O     0.82307   0.95726   0.22718   0.00000  Uiso   1.00
O1468  O     0.67693   0.54275   0.77282   0.00000  Uiso   1.00
O1469  O     0.65299   0.89960   0.32071   0.00000  Uiso   1.00
O1470  O     0.84514   0.60173   0.67977   0.00000  Uiso   1.00
O1471  O     0.59701   0.64960   0.17929   0.00000  Uiso   1.00
O1472  O     0.90486   0.85173   0.82022   0.00000  Uiso   1.00
O1473  O     0.84701   0.60040   0.32071   0.00000  Uiso   1.00
O1474  O     0.65486   0.89827   0.67977   0.00000  Uiso   1.00
O1475  O     0.90299   0.85040   0.17929   0.00000  Uiso   1.00
O1476  O     0.75000   0.53036   0.66317   0.00000  Uiso   1.00
O1477  O     0.59514   0.64827   0.82022   0.00000  Uiso   1.00
O1478  O     0.64960   0.59701   0.82071   0.00000  Uiso   1.00
O1479  O     0.85173   0.90486   0.17977   0.00000  Uiso   1.00
O1480  O     0.60040   0.84701   0.67929   0.00000  Uiso   1.00
O1481  O     0.89827   0.65486   0.32022   0.00000  Uiso   1.00
O1482  O     0.85040   0.90299   0.82071   0.00000  Uiso   1.00
O1483  O     0.64827   0.59514   0.17977   0.00000  Uiso   1.00
O1484  O     0.89960   0.65299   0.67929   0.00000  Uiso   1.00
O1485  O     0.60173   0.84514   0.32022   0.00000  Uiso   1.00
O1486  O     0.90299   0.64960   0.82071   0.00000  Uiso   1.00
O1487  O     0.53036   0.75000   0.33683   0.00000  Uiso   1.00
O1488  O     0.59514   0.85173   0.17977   0.00000  Uiso   1.00
O1489  O     0.84701   0.89960   0.67929   0.00000  Uiso   1.00
O1490  O     0.65486   0.60173   0.32022   0.00000  Uiso   1.00
O1491  O     0.59701   0.85040   0.82071   0.00000  Uiso   1.00
O1492  O     0.90486   0.64827   0.17977   0.00000  Uiso   1.00
O1493  O     0.65299   0.60040   0.67929   0.00000  Uiso   1.00
O1494  O     0.84514   0.89827   0.32022   0.00000  Uiso   1.00
O1495  O     0.89960   0.84701   0.32071   0.00000  Uiso   1.00
O1496  O     0.60173   0.65486   0.67977   0.00000  Uiso   1.00
O1497  O     0.85040   0.59701   0.17929   0.00000  Uiso   1.00
O1498  O     0.96964   0.75000   0.66317   0.00000  Uiso   1.00
O1499  O     0.64827   0.90486   0.82022   0.00000  Uiso   1.00
O1500  O     0.60040   0.65299   0.32071   0.00000  Uiso   1.00
O1501  O     0.89827   0.84514   0.67977   0.00000  Uiso   1.00
O1502  O     0.64960   0.90299   0.17929   0.00000  Uiso   1.00
O1503  O     0.85173   0.59514   0.82022   0.00000  Uiso   1.00
O1504  O     0.75000   0.53036   0.33683   0.00000  Uiso   1.00
Zn1505 Zn    0.70660   0.50000   0.21760   0.00000  Uiso   1.00
Zn1506 Zn    0.54340   0.75000   0.28240   0.00000  Uiso   1.00
Zn1507 Zn    0.75000   0.95660   0.71760   0.00000  Uiso   1.00
Zn1508 Zn    0.75000   0.54340   0.28240   0.00000  Uiso   1.00
Zn1509 Zn    0.54340   0.75000   0.71760   0.00000  Uiso   1.00
Zn1510 Zn    0.95660   0.75000   0.28240   0.00000  Uiso   1.00
Zn1511 Zn    0.75000   0.54340   0.71760   0.00000  Uiso   1.00
Zn1512 Zn    0.75000   0.95660   0.28240   0.00000  Uiso   1.00
Zn1513 Zn    0.79340   0.50000   0.78240   0.00000  Uiso   1.00
Zn1514 Zn    0.50000   0.70660   0.21760   0.00000  Uiso   1.00
Zn1515 Zn    0.50000   0.79340   0.78240   0.00000  Uiso   1.00
Zn1516 Zn    0.79340   0.50000   0.21760   0.00000  Uiso   1.00
Zn1517 Zn    0.70660   0.50000   0.78240   0.00000  Uiso   1.00
Zn1518 Zn    0.50000   0.79340   0.21760   0.00000  Uiso   1.00
Zn1519 Zn    0.50000   0.70660   0.78240   0.00000  Uiso   1.00
Zn1520 Zn    0.95660   0.75000   0.71760   0.00000  Uiso   1.00
loop_
_geom_bond_atom_site_label_1
_geom_bond_atom_site_label_2
_geom_bond_distance
_geom_bond_site_symmetry_2
_ccdc_geom_bond_type
C1     C62     1.391   .     A
C1     H153    1.083   .     S
C1     C840    1.404   .     A
C2     H154    1.083   .     S
C2     C85     1.404   .     A
C2     C72     1.391   .     A
C3     C128    1.411   .     A
C3     C99     1.451   .     S
C3     C135    1.411   .     A
C4     C127    1.409   .     A
C4     C138    1.409   .     A
C4     C100    1.453   .     S
C5     C126    1.411   .     A
C5     C137    1.411   .     A
C5     C101    1.451   .     S
C6     C125    1.409   .     A
C6     C102    1.453   .     S
C6     C140    1.409   .     A
C7     C103    1.451   .     S
C7     C124    1.411   .     A
C7     C139    1.411   .     A
C8     C123    1.409   .     A
C8     C143    1.409   .     A
C8     C113    1.453   .     S
C9     C114    1.451   .     S
C9     C122    1.411   .     A
C9     C141    1.411   .     A
C10    C106    1.453   .     S
C10    C121    1.409   .     A
C10    C145    1.409   .     A
C11    C119    1.411   .     A
C11    C144    1.411   .     A
C11    C107    1.451   .     S
C12    C108    1.453   .     S
C12    C147    1.409   .     A
C12    C118    1.409   .     A
C13    H165    1.083   .     S
C13    C846    1.404   .     A
C13    C73     1.391   .     A
C14    C117    1.411   .     A
C14    C110    1.451   .     S
C14    C146    1.411   .     A
C15    C149    1.409   .     A
C15    C116    1.409   .     A
C15    C111    1.453   .     S
C16    C115    1.411   .     A
C16    C112    1.451   .     S
C16    C148    1.411   .     A
C17    C822    1.402   1_545 A
C17    C67     1.402   .     S
C17    C96     1.463   .     S
C18    C823    1.402   1_545 A
C18    C68     1.402   .     S
C18    C95     1.463   .     S
C19    C449    1.402   1_455 A
C19    C64     1.402   .     S
C19    C94     1.463   .     S
C20    C66     1.402   .     A
C20    C450    1.402   1_455 S
C20    C93     1.463   .     S
C21    C92     1.463   .     S
C21    C75     1.402   .     A
C21    C451    1.402   1_455 S
C22    C91     1.463   .     S
C22    C457    1.402   1_455 A
C22    C72     1.402   .     S
C23    C90     1.463   .     S
C23    C833    1.402   1_545 A
C23    C78     1.402   .     S
C24    H176    1.083   .     S
C24    C88     1.404   .     A
C24    C74     1.391   .     A
C25    C74     1.402   .     A
C25    C89     1.463   .     S
C25    C839    1.402   1_545 S
C26    H210    1.109   .     S
C26    O329    1.415   .     S
C26    H208    1.116   .     S
C26    H209    1.110   .     S
C27    O330    1.411   .     S
C27    H212    1.113   .     S
C27    H213    1.110   .     S
C27    H211    1.109   .     S
C28    H216    1.110   .     S
C28    H217    1.109   .     S
C28    O331    1.415   .     S
C28    H214    1.116   .     S
C29    O332    1.411   .     S
C29    H218    1.109   .     S
C29    H220    1.110   .     S
C29    H219    1.113   .     S
C30    H222    1.110   .     S
C30    O333    1.415   .     S
C30    H223    1.109   .     S
C30    H221    1.116   .     S
C31    O334    1.411   .     S
C31    H225    1.113   .     S
C31    H224    1.109   .     S
C31    H227    1.110   .     S
C32    H230    1.109   .     S
C32    O335    1.415   .     S
C32    H228    1.116   .     S
C32    H229    1.110   .     S
C33    H232    1.113   .     S
C33    O337    1.411   .     S
C33    H233    1.110   .     S
C33    H231    1.109   .     S
C34    H235    1.110   .     S
C34    H236    1.109   .     S
C34    O338    1.415   .     S
C34    H234    1.116   .     S
C35    C84     1.404   .     A
C35    H186    1.083   .     S
C35    C75     1.391   .     A
C36    H239    1.113   .     S
C36    H238    1.109   .     S
C36    H240    1.110   .     S
C36    O339    1.411   .     S
C37    H241    1.116   .     S
C37    O340    1.415   .     S
C37    H243    1.109   .     S
C37    H242    1.110   .     S
C38    H245    1.113   .     S
C38    O341    1.411   .     S
C38    H246    1.110   .     S
C38    H244    1.109   .     S
C39    H247    1.116   .     S
C39    O342    1.415   .     S
C39    H250    1.109   .     S
C39    H249    1.110   .     S
C40    H251    1.109   .     S
C40    O343    1.411   .     S
C40    H252    1.113   .     S
C40    H253    1.110   .     S
C41    H256    1.109   .     S
C41    O344    1.415   .     S
C41    H255    1.110   .     S
C41    H254    1.116   .     S
C42    H257    1.109   .     S
C42    H260    1.110   .     S
C42    O345    1.411   .     S
C42    H258    1.113   .     S
C43    H262    1.110   .     S
C43    H263    1.109   .     S
C43    H261    1.116   .     S
C43    O346    1.415   .     S
C44    H265    1.113   .     S
C44    O348    1.411   .     S
C44    H264    1.109   .     S
C44    H266    1.110   .     S
C45    H267    1.116   .     S
C45    H269    1.109   .     S
C45    O349    1.415   .     S
C45    H268    1.110   .     S
C46    C77     1.391   .     A
C46    H187    1.083   .     S
C46    C465    1.404   .     S
C47    H272    1.113   .     S
C47    O350    1.411   .     S
C47    H271    1.109   .     S
C47    H273    1.110   .     S
C48    H274    1.116   .     S
C48    O351    1.415   .     S
C48    H276    1.109   .     S
C48    H275    1.110   .     S
C49    H277    1.109   .     S
C49    H279    1.110   .     S
C49    O352    1.411   .     S
C49    H278    1.113   .     S
C50    H280    1.116   .     S
C50    O353    1.415   .     S
C50    H155    1.110   .     S
C50    H156    1.109   .     S
C51    H157    1.109   .     S
C51    H158    1.113   .     S
C51    O354    1.411   .     S
C51    H159    1.110   .     S
C52    H161    1.110   .     S
C52    H160    1.116   .     S
C52    O355    1.415   .     S
C52    H162    1.109   .     S
C53    H163    1.109   .     S
C53    H166    1.110   .     S
C53    H164    1.113   .     S
C53    O356    1.411   .     S
C54    H167    1.116   .     S
C54    H169    1.109   .     S
C54    H168    1.110   .     S
C54    O357    1.415   .     S
C55    H172    1.110   .     S
C55    O359    1.411   .     S
C55    H171    1.113   .     S
C55    H170    1.109   .     S
C56    H174    1.110   .     S
C56    O360    1.415   .     S
C56    H173    1.116   .     S
C56    H175    1.109   .     S
C57    C78     1.391   .     A
C57    H188    1.083   .     S
C57    C86     1.404   .     S
C58    H178    1.113   .     S
C58    H179    1.110   .     S
C58    H177    1.109   .     S
C58    O361    1.411   .     S
C59    H182    1.109   .     S
C59    H180    1.116   .     S
C59    O362    1.415   .     S
C59    H181    1.110   .     S
C60    H184    1.113   .     S
C60    H185    1.110   .     S
C60    O363    1.411   .     S
C60    H183    1.109   .     S
C61    H189    1.083   .     S
C61    C79     1.391   .     A
C61    C848    1.404   .     S
C62    H190    1.083   .     S
C62    C777    1.402   .     A
C63    C65     1.391   .     A
C63    H191    1.083   .     S
C63    C778    1.402   .     A
C64    C76     1.391   .     A
C64    H192    1.083   .     S
C65    H193    1.083   .     S
C65    C841    1.404   .     A
C66    H194    1.083   .     S
C66    C87     1.391   .     A
C67    C98     1.391   .     A
C67    H195    1.083   .     S
C68    H196    1.083   .     S
C68    C109    1.391   .     A
C69    C120    1.391   .     A
C69    C399    1.402   .     A
C69    H197    1.083   .     S
C70    C131    1.391   .     A
C70    H198    1.083   .     S
C70    C400    1.402   .     S
C71    H199    1.083   .     S
C71    C142    1.391   .     A
C71    C401    1.402   .     S
C72    H200    1.083   .     S
C73    H201    1.083   .     S
C73    C783    1.402   .     A
C74    H202    1.083   .     S
C75    H203    1.083   .     S
C76    H204    1.083   .     S
C76    C82     1.404   .     S
C77    H205    1.083   .     S
C77    C402    1.402   .     A
C78    H206    1.083   .     S
C79    H207    1.083   .     S
C79    C785    1.402   .     S
C80    C761    1.404   1_545 A
C80    C81     1.473   1_554 S
C80    C98     1.404   .     S
C81    C825    1.404   1_545 A
C81    C80     1.473   1_556 S
C81    C109    1.404   .     S
C82    C500    1.404   1_455 A
C82    C83     1.473   1_554 S
C83    C87     1.404   .     A
C83    C82     1.473   1_556 S
C83    C511    1.404   1_455 S
C84    C85     1.473   .     S
C84    C522    1.404   1_455 S
C85    C426    1.404   1_455 S
C86    C773    1.404   1_545 A
C86    C88     1.473   .     S
C87    H215    1.083   .     S
C88    C821    1.404   1_545 S
C89    O364    1.280   .     A
C89    O1085   1.280   1_545 S
C90    O1042   1.280   1_545 A
C90    O336    1.280   .     S
C91    O663    1.280   1_455 A
C91    O347    1.280   .     S
C92    O284    1.280   .     A
C92    O738    1.280   1_455 S
C93    O285    1.280   .     S
C93    O289    1.280   .     S
C94    O286    1.280   .     S
C94    O290    1.280   .     S
C95    O291    1.280   .     A
C95    O287    1.280   .     A
C96    O293    1.280   .     A
C96    O288    1.280   .     A
C97    O294    1.277   .     A
C97    C152    1.453   .     S
C97    O322    1.277   .     A
C98    H226    1.083   .     S
C99    O295    1.277   .     A
C99    O323    1.277   .     A
C100   O296    1.277   .     A
C100   O320    1.277   .     A
C101   O297    1.277   .     A
C101   O321    1.277   .     A
C102   O327    1.277   .     A
C102   O298    1.277   .     A
C103   O299    1.277   .     A
C103   O328    1.277   .     A
C104   C150    1.453   .     S
C104   O300    1.277   .     A
C104   O324    1.277   .     A
C105   C151    1.451   .     S
C105   O301    1.277   .     A
C105   O326    1.277   .     A
C106   O313    1.277   .     A
C106   O302    1.277   .     A
C107   O315    1.277   .     A
C107   O304    1.277   .     A
C108   O311    1.277   .     A
C108   O305    1.277   .     A
C109   H237    1.083   .     S
C110   O312    1.277   .     A
C110   O306    1.277   .     A
C111   O307    1.277   .     A
C111   O318    1.277   .     A
C112   O319    1.277   .     A
C112   O308    1.277   .     A
C113   O309    1.277   .     A
C113   O316    1.277   .     A
C114   O317    1.277   .     A
C114   O310    1.277   .     A
C115   C132    1.396   .     A
C115   O329    1.387   .     S
C116   C130    1.396   .     A
C116   O330    1.385   .     S
C117   C129    1.396   .     A
C117   O331    1.387   .     S
C118   O332    1.385   .     S
C118   C128    1.396   .     A
C119   O333    1.387   .     S
C119   C127    1.396   .     A
C120   C462    1.404   .     A
C120   H248    1.083   .     S
C121   O334    1.385   .     S
C121   C126    1.396   .     A
C122   O335    1.387   .     S
C122   C125    1.396   .     A
C123   C124    1.396   .     A
C123   O337    1.385   .     S
C124   O338    1.387   .     S
C125   O339    1.385   .     S
C126   O340    1.387   .     S
C127   O341    1.385   .     S
C128   O342    1.387   .     S
C129   O343    1.385   .     S
C129   C152    1.409   .     A
C130   O344    1.387   .     S
C130   C151    1.411   .     A
C131   H259    1.083   .     S
C131   C463    1.404   .     S
C132   C150    1.409   .     A
C132   O345    1.385   .     S
C133   C151    1.411   .     A
C133   O346    1.387   .     S
C133   C149    1.396   .     A
C134   O348    1.385   .     S
C134   C150    1.409   .     A
C134   C148    1.396   .     A
C135   O349    1.387   .     S
C135   C147    1.396   .     A
C136   C146    1.396   .     A
C136   C152    1.409   .     A
C136   O350    1.385   .     S
C137   O351    1.387   .     S
C137   C145    1.396   .     A
C138   O352    1.385   .     S
C138   C144    1.396   .     A
C139   O353    1.387   .     S
C139   C143    1.396   .     A
C140   C141    1.396   .     A
C140   O354    1.385   .     S
C141   O355    1.387   .     S
C142   H270    1.083   .     S
C142   C464    1.404   .     S
C143   O356    1.385   .     S
C144   O357    1.387   .     S
C145   O359    1.385   .     S
C146   O360    1.387   .     S
C147   O361    1.385   .     S
C148   O362    1.387   .     S
C149   O363    1.385   .     S
O281   Zn376   1.944   .     S
O281   Zn368   1.944   .     S
O281   Zn365   1.944   .     S
O281   Zn1132  1.944   1_545 S
O282   C850    1.280   .     A
O282   Zn367   1.940   .     S
O283   C471    1.280   .     A
O283   Zn370   1.940   .     S
O284   Zn369   1.940   .     S
O285   Zn379   1.940   .     S
O286   Zn378   1.940   .     S
O287   Zn373   1.940   .     S
O288   Zn365   1.940   .     S
O289   Zn375   1.940   .     S
O290   Zn374   1.940   .     S
O291   Zn377   1.940   .     S
O292   Zn371   1.944   .     S
O292   Zn373   1.944   .     S
O292   Zn377   1.944   .     S
O292   Zn1127  1.944   1_545 S
O293   Zn376   1.940   .     S
O294   Zn368   1.933   .     S
O295   Zn367   1.933   .     S
O296   Zn370   1.933   .     S
O297   Zn369   1.933   .     S
O298   Zn372   1.933   .     S
O299   Zn371   1.933   .     S
O300   Zn366   1.933   .     S
O301   Zn380   1.933   .     S
O302   Zn367   1.933   .     S
O303   Zn378   1.944   .     S
O303   Zn366   1.944   .     S
O303   Zn374   1.944   .     S
O303   Zn750   1.944   1_455 S
O304   Zn368   1.933   .     S
O305   Zn380   1.933   .     S
O306   Zn366   1.933   .     S
O307   Zn371   1.933   .     S
O308   Zn372   1.933   .     S
O309   Zn369   1.933   .     S
O310   Zn370   1.933   .     S
O311   Zn755   1.933   .     S
O312   Zn374   1.933   .     S
O313   Zn1137  1.933   .     S
O314   Zn760   1.944   1_455 S
O314   Zn369   1.944   .     S
O314   Zn375   1.944   .     S
O314   Zn379   1.944   .     S
O315   Zn376   1.933   .     S
O316   Zn379   1.933   .     S
O317   Zn758   1.933   .     S
O318   Zn373   1.933   .     S
O319   Zn1125  1.933   .     S
O320   Zn754   1.933   .     S
O321   Zn375   1.933   .     S
O322   Zn365   1.933   .     S
O323   Zn1133  1.933   .     S
O324   Zn378   1.933   .     S
O325   Zn372   1.940   .     S
O325   C849    1.280   .     S
O326   Zn759   1.933   .     S
O327   Zn1136  1.933   .     S
O328   Zn377   1.933   .     S
O336   Zn371   1.940   .     S
O347   Zn366   1.940   .     S
O358   Zn380   1.940   .     S
O358   C472    1.280   .     S
O364   Zn368   1.940   .     S
Zn365  O1079   1.933   1_545 S
Zn367  O1052   1.944   .     S
Zn370  O683    1.944   .     S
Zn372  O1041   1.944   .     S
Zn373  O1083   1.933   1_545 S
Zn374  O700    1.933   1_455 S
Zn375  O691    1.933   1_455 S
Zn376  O1087   1.933   1_545 S
Zn377  O1073   1.933   1_545 S
Zn378  O697    1.933   1_455 S
Zn379  O706    1.933   1_455 S
Zn380  O694    1.944   .     S
C381   C442    1.391   .     A
C381   H533    1.083   .     S
C381   C1220   1.404   .     A
C382   H534    1.083   .     S
C382   C465    1.404   .     A
C382   C452    1.391   .     A
C383   C508    1.411   .     A
C383   C479    1.451   .     S
C383   C515    1.411   .     A
C384   C507    1.409   .     A
C384   C518    1.409   .     A
C384   C480    1.453   .     S
C385   C506    1.411   .     A
C385   C517    1.411   .     A
C385   C481    1.451   .     S
C386   C505    1.409   .     A
C386   C482    1.453   .     S
C386   C520    1.409   .     A
C387   C483    1.451   .     S
C387   C504    1.411   .     A
C387   C519    1.411   .     A
C388   C503    1.409   .     A
C388   C523    1.409   .     A
C388   C493    1.453   .     S
C389   C494    1.451   .     S
C389   C502    1.411   .     A
C389   C521    1.411   .     A
C390   C486    1.453   .     S
C390   C501    1.409   .     A
C390   C525    1.409   .     A
C391   C499    1.411   .     A
C391   C524    1.411   .     A
C391   C487    1.451   .     S
C392   C488    1.453   .     S
C392   C527    1.409   .     A
C392   C498    1.409   .     A
C393   H545    1.083   .     S
C393   C1226   1.404   .     A
C393   C453    1.391   .     A
C394   C497    1.411   .     A
C394   C490    1.451   .     S
C394   C526    1.411   .     A
C395   C529    1.409   .     A
C395   C496    1.409   .     A
C395   C491    1.453   .     S
C396   C495    1.411   .     A
C396   C492    1.451   .     S
C396   C528    1.411   .     A
C397   C1202   1.402   1_545 A
C397   C447    1.402   .     S
C397   C476    1.463   .     S
C398   C1203   1.402   1_545 A
C398   C448    1.402   .     S
C398   C475    1.463   .     S
C399   C444    1.402   .     S
C399   C474    1.463   .     S
C400   C446    1.402   .     A
C400   C473    1.463   .     S
C401   C472    1.463   .     S
C401   C455    1.402   .     A
C402   C471    1.463   .     S
C402   C452    1.402   .     S
C403   C470    1.463   .     S
C403   C1213   1.402   1_545 A
C403   C458    1.402   .     S
C404   H556    1.083   .     S
C404   C468    1.404   .     A
C404   C454    1.391   .     A
C405   C454    1.402   .     A
C405   C469    1.463   .     S
C405   C1219   1.402   1_545 S
C406   H590    1.109   .     S
C406   O709    1.415   .     S
C406   H588    1.116   .     S
C406   H589    1.110   .     S
C407   O710    1.411   .     S
C407   H592    1.113   .     S
C407   H593    1.110   .     S
C407   H591    1.109   .     S
C408   H596    1.110   .     S
C408   H597    1.109   .     S
C408   O711    1.415   .     S
C408   H594    1.116   .     S
C409   O712    1.411   .     S
C409   H598    1.109   .     S
C409   H600    1.110   .     S
C409   H599    1.113   .     S
C410   H602    1.110   .     S
C410   O713    1.415   .     S
C410   H603    1.109   .     S
C410   H601    1.116   .     S
C411   O714    1.411   .     S
C411   H605    1.113   .     S
C411   H604    1.109   .     S
C411   H607    1.110   .     S
C412   H610    1.109   .     S
C412   O715    1.415   .     S
C412   H608    1.116   .     S
C412   H609    1.110   .     S
C413   H612    1.113   .     S
C413   O717    1.411   .     S
C413   H613    1.110   .     S
C413   H611    1.109   .     S
C414   H615    1.110   .     S
C414   H616    1.109   .     S
C414   O718    1.415   .     S
C414   H614    1.116   .     S
C415   C464    1.404   .     A
C415   H566    1.083   .     S
C415   C455    1.391   .     A
C416   H619    1.113   .     S
C416   H618    1.109   .     S
C416   H620    1.110   .     S
C416   O719    1.411   .     S
C417   H621    1.116   .     S
C417   O720    1.415   .     S
C417   H623    1.109   .     S
C417   H622    1.110   .     S
C418   H625    1.113   .     S
C418   O721    1.411   .     S
C418   H626    1.110   .     S
C418   H624    1.109   .     S
C419   H627    1.116   .     S
C419   O722    1.415   .     S
C419   H630    1.109   .     S
C419   H629    1.110   .     S
C420   H631    1.109   .     S
C420   O723    1.411   .     S
C420   H632    1.113   .     S
C420   H633    1.110   .     S
C421   H636    1.109   .     S
C421   O724    1.415   .     S
C421   H635    1.110   .     S
C421   H634    1.116   .     S
C422   H637    1.109   .     S
C422   H640    1.110   .     S
C422   O725    1.411   .     S
C422   H638    1.113   .     S
C423   H642    1.110   .     S
C423   H643    1.109   .     S
C423   H641    1.116   .     S
C423   O726    1.415   .     S
C424   H645    1.113   .     S
C424   O728    1.411   .     S
C424   H644    1.109   .     S
C424   H646    1.110   .     S
C425   H647    1.116   .     S
C425   H649    1.109   .     S
C425   O729    1.415   .     S
C425   H648    1.110   .     S
C426   C457    1.391   .     A
C426   H567    1.083   .     S
C426   C85     1.404   1_655 S
C427   H652    1.113   .     S
C427   O730    1.411   .     S
C427   H651    1.109   .     S
C427   H653    1.110   .     S
C428   H654    1.116   .     S
C428   O731    1.415   .     S
C428   H656    1.109   .     S
C428   H655    1.110   .     S
C429   H657    1.109   .     S
C429   H659    1.110   .     S
C429   O732    1.411   .     S
C429   H658    1.113   .     S
C430   H660    1.116   .     S
C430   O733    1.415   .     S
C430   H535    1.110   .     S
C430   H536    1.109   .     S
C431   H537    1.109   .     S
C431   H538    1.113   .     S
C431   O734    1.411   .     S
C431   H539    1.110   .     S
C432   H541    1.110   .     S
C432   H540    1.116   .     S
C432   O735    1.415   .     S
C432   H542    1.109   .     S
C433   H543    1.109   .     S
C433   H546    1.110   .     S
C433   H544    1.113   .     S
C433   O736    1.411   .     S
C434   H547    1.116   .     S
C434   H549    1.109   .     S
C434   H548    1.110   .     S
C434   O737    1.415   .     S
C435   H552    1.110   .     S
C435   O739    1.411   .     S
C435   H551    1.113   .     S
C435   H550    1.109   .     S
C436   H554    1.110   .     S
C436   O740    1.415   .     S
C436   H553    1.116   .     S
C436   H555    1.109   .     S
C437   C458    1.391   .     A
C437   H568    1.083   .     S
C437   C466    1.404   .     S
C438   H558    1.113   .     S
C438   H559    1.110   .     S
C438   H557    1.109   .     S
C438   O741    1.411   .     S
C439   H562    1.109   .     S
C439   H560    1.116   .     S
C439   O742    1.415   .     S
C439   H561    1.110   .     S
C440   H564    1.113   .     S
C440   H565    1.110   .     S
C440   O743    1.411   .     S
C440   H563    1.109   .     S
C441   H569    1.083   .     S
C441   C459    1.391   .     A
C441   C1228   1.404   .     S
C442   H570    1.083   .     S
C442   C1157   1.402   .     A
C443   C445    1.391   .     A
C443   H571    1.083   .     S
C443   C1158   1.402   .     A
C444   C456    1.391   .     A
C444   H572    1.083   .     S
C445   H573    1.083   .     S
C445   C1221   1.404   .     A
C446   H574    1.083   .     S
C446   C467    1.391   .     A
C447   C478    1.391   .     A
C447   H575    1.083   .     S
C448   H576    1.083   .     S
C448   C489    1.391   .     A
C449   C500    1.391   .     A
C449   C19     1.402   1_655 A
C449   H577    1.083   .     S
C450   C511    1.391   .     A
C450   H578    1.083   .     S
C450   C20     1.402   1_655 S
C451   H579    1.083   .     S
C451   C522    1.391   .     A
C451   C21     1.402   1_655 S
C452   H580    1.083   .     S
C453   H581    1.083   .     S
C453   C1163   1.402   .     A
C454   H582    1.083   .     S
C455   H583    1.083   .     S
C456   H584    1.083   .     S
C456   C462    1.404   .     S
C457   H585    1.083   .     S
C457   C22     1.402   1_655 A
C458   H586    1.083   .     S
C459   H587    1.083   .     S
C459   C1165   1.402   .     S
C460   C1141   1.404   1_545 A
C460   C461    1.473   1_554 S
C460   C478    1.404   .     S
C461   C1205   1.404   1_545 A
C461   C460    1.473   1_556 S
C461   C489    1.404   .     S
C462   C463    1.473   1_554 S
C463   C467    1.404   .     A
C463   C462    1.473   1_556 S
C464   C465    1.473   .     S
C466   C1153   1.404   1_545 A
C466   C468    1.473   .     S
C467   H595    1.083   .     S
C468   C1201   1.404   1_545 S
C469   O744    1.280   .     A
C469   O1465   1.280   1_545 S
C470   O1422   1.280   1_545 A
C470   O716    1.280   .     S
C471   O727    1.280   .     S
C472   O664    1.280   .     A
C473   O665    1.280   .     S
C473   O669    1.280   .     S
C474   O666    1.280   .     S
C474   O670    1.280   .     S
C475   O671    1.280   .     A
C475   O667    1.280   .     A
C476   O673    1.280   .     A
C476   O668    1.280   .     A
C477   O674    1.277   .     A
C477   C532    1.453   .     S
C477   O702    1.277   .     A
C478   H606    1.083   .     S
C479   O675    1.277   .     A
C479   O703    1.277   .     A
C480   O676    1.277   .     A
C480   O700    1.277   .     A
C481   O677    1.277   .     A
C481   O701    1.277   .     A
C482   O707    1.277   .     A
C482   O678    1.277   .     A
C483   O679    1.277   .     A
C483   O708    1.277   .     A
C484   C530    1.453   .     S
C484   O680    1.277   .     A
C484   O704    1.277   .     A
C485   C531    1.451   .     S
C485   O681    1.277   .     A
C485   O706    1.277   .     A
C486   O693    1.277   .     A
C486   O682    1.277   .     A
C487   O695    1.277   .     A
C487   O684    1.277   .     A
C488   O691    1.277   .     A
C488   O685    1.277   .     A
C489   H617    1.083   .     S
C490   O692    1.277   .     A
C490   O686    1.277   .     A
C491   O687    1.277   .     A
C491   O698    1.277   .     A
C492   O699    1.277   .     A
C492   O688    1.277   .     A
C493   O689    1.277   .     A
C493   O696    1.277   .     A
C494   O697    1.277   .     A
C494   O690    1.277   .     A
C495   C512    1.396   .     A
C495   O709    1.387   .     S
C496   C510    1.396   .     A
C496   O710    1.385   .     S
C497   C509    1.396   .     A
C497   O711    1.387   .     S
C498   O712    1.385   .     S
C498   C508    1.396   .     A
C499   O713    1.387   .     S
C499   C507    1.396   .     A
C500   C82     1.404   1_655 A
C500   H628    1.083   .     S
C501   O714    1.385   .     S
C501   C506    1.396   .     A
C502   O715    1.387   .     S
C502   C505    1.396   .     A
C503   C504    1.396   .     A
C503   O717    1.385   .     S
C504   O718    1.387   .     S
C505   O719    1.385   .     S
C506   O720    1.387   .     S
C507   O721    1.385   .     S
C508   O722    1.387   .     S
C509   O723    1.385   .     S
C509   C532    1.409   .     A
C510   O724    1.387   .     S
C510   C531    1.411   .     A
C511   H639    1.083   .     S
C511   C83     1.404   1_655 S
C512   C530    1.409   .     A
C512   O725    1.385   .     S
C513   C531    1.411   .     A
C513   O726    1.387   .     S
C513   C529    1.396   .     A
C514   O728    1.385   .     S
C514   C530    1.409   .     A
C514   C528    1.396   .     A
C515   O729    1.387   .     S
C515   C527    1.396   .     A
C516   C526    1.396   .     A
C516   C532    1.409   .     A
C516   O730    1.385   .     S
C517   O731    1.387   .     S
C517   C525    1.396   .     A
C518   O732    1.385   .     S
C518   C524    1.396   .     A
C519   O733    1.387   .     S
C519   C523    1.396   .     A
C520   C521    1.396   .     A
C520   O734    1.385   .     S
C521   O735    1.387   .     S
C522   H650    1.083   .     S
C522   C84     1.404   1_655 S
C523   O736    1.385   .     S
C524   O737    1.387   .     S
C525   O739    1.385   .     S
C526   O740    1.387   .     S
C527   O741    1.385   .     S
C528   O742    1.387   .     S
C529   O743    1.385   .     S
O661   Zn756   1.944   .     S
O661   Zn748   1.944   .     S
O661   Zn745   1.944   .     S
O661   Zn1512  1.944   1_545 S
O662   C1230   1.280   .     A
O662   Zn747   1.940   .     S
O663   C91     1.280   1_655 A
O663   Zn750   1.940   .     S
O664   Zn749   1.940   .     S
O665   Zn759   1.940   .     S
O666   Zn758   1.940   .     S
O667   Zn753   1.940   .     S
O668   Zn745   1.940   .     S
O669   Zn755   1.940   .     S
O670   Zn754   1.940   .     S
O671   Zn757   1.940   .     S
O672   Zn751   1.944   .     S
O672   Zn753   1.944   .     S
O672   Zn757   1.944   .     S
O672   Zn1507  1.944   1_545 S
O673   Zn756   1.940   .     S
O674   Zn748   1.933   .     S
O675   Zn747   1.933   .     S
O676   Zn750   1.933   .     S
O677   Zn749   1.933   .     S
O678   Zn752   1.933   .     S
O679   Zn751   1.933   .     S
O680   Zn746   1.933   .     S
O681   Zn760   1.933   .     S
O682   Zn747   1.933   .     S
O683   Zn758   1.944   .     S
O683   Zn746   1.944   .     S
O683   Zn754   1.944   .     S
O684   Zn748   1.933   .     S
O685   Zn760   1.933   .     S
O686   Zn746   1.933   .     S
O687   Zn751   1.933   .     S
O688   Zn752   1.933   .     S
O689   Zn749   1.933   .     S
O690   Zn750   1.933   .     S
O691   Zn375   1.933   1_655 S
O692   Zn754   1.933   .     S
O693   Zn1517  1.933   .     S
O694   Zn749   1.944   .     S
O694   Zn755   1.944   .     S
O694   Zn759   1.944   .     S
O695   Zn756   1.933   .     S
O696   Zn759   1.933   .     S
O697   Zn378   1.933   1_655 S
O698   Zn753   1.933   .     S
O699   Zn1505  1.933   .     S
O700   Zn374   1.933   1_655 S
O701   Zn755   1.933   .     S
O702   Zn745   1.933   .     S
O703   Zn1513  1.933   .     S
O704   Zn758   1.933   .     S
O705   Zn752   1.940   .     S
O705   C1229   1.280   .     S
O706   Zn379   1.933   1_655 S
O707   Zn1516  1.933   .     S
O708   Zn757   1.933   .     S
O716   Zn751   1.940   .     S
O727   Zn746   1.940   .     S
O738   Zn760   1.940   .     S
O738   C92     1.280   1_655 S
O744   Zn748   1.940   .     S
Zn745  O1459   1.933   1_545 S
Zn747  O1432   1.944   .     S
Zn750  O303    1.944   1_655 S
Zn752  O1421   1.944   .     S
Zn753  O1463   1.933   1_545 S
Zn756  O1467   1.933   1_545 S
Zn757  O1453   1.933   1_545 S
Zn760  O314    1.944   1_655 S
C761   C822    1.391   .     A
C761   H913    1.083   .     S
C761   C80     1.404   1_565 A
C762   H914    1.083   .     S
C762   C845    1.404   .     A
C762   C832    1.391   .     A
C763   C888    1.411   .     A
C763   C859    1.451   .     S
C763   C895    1.411   .     A
C764   C887    1.409   .     A
C764   C898    1.409   .     A
C764   C860    1.453   .     S
C765   C886    1.411   .     A
C765   C897    1.411   .     A
C765   C861    1.451   .     S
C766   C885    1.409   .     A
C766   C862    1.453   .     S
C766   C900    1.409   .     A
C767   C863    1.451   .     S
C767   C884    1.411   .     A
C767   C899    1.411   .     A
C768   C883    1.409   .     A
C768   C903    1.409   .     A
C768   C873    1.453   .     S
C769   C874    1.451   .     S
C769   C882    1.411   .     A
C769   C901    1.411   .     A
C770   C866    1.453   .     S
C770   C881    1.409   .     A
C770   C905    1.409   .     A
C771   C879    1.411   .     A
C771   C904    1.411   .     A
C771   C867    1.451   .     S
C772   C868    1.453   .     S
C772   C907    1.409   .     A
C772   C878    1.409   .     A
C773   H925    1.083   .     S
C773   C86     1.404   1_565 A
C773   C833    1.391   .     A
C774   C877    1.411   .     A
C774   C870    1.451   .     S
C774   C906    1.411   .     A
C775   C909    1.409   .     A
C775   C876    1.409   .     A
C775   C871    1.453   .     S
C776   C875    1.411   .     A
C776   C872    1.451   .     S
C776   C908    1.411   .     A
C777   C827    1.402   .     S
C777   C856    1.463   .     S
C778   C828    1.402   .     S
C778   C855    1.463   .     S
C779   C1209   1.402   1_455 A
C779   C824    1.402   .     S
C779   C854    1.463   .     S
C780   C826    1.402   .     A
C780   C1210   1.402   1_455 S
C780   C853    1.463   .     S
C781   C852    1.463   .     S
C781   C835    1.402   .     A
C781   C1211   1.402   1_455 S
C782   C851    1.463   .     S
C782   C1217   1.402   1_455 A
C782   C832    1.402   .     S
C783   C850    1.463   .     S
C783   C838    1.402   .     S
C784   H936    1.083   .     S
C784   C848    1.404   .     A
C784   C834    1.391   .     A
C785   C834    1.402   .     A
C785   C849    1.463   .     S
C786   H970    1.109   .     S
C786   O1089   1.415   .     S
C786   H968    1.116   .     S
C786   H969    1.110   .     S
C787   O1090   1.411   .     S
C787   H972    1.113   .     S
C787   H973    1.110   .     S
C787   H971    1.109   .     S
C788   H976    1.110   .     S
C788   H977    1.109   .     S
C788   O1091   1.415   .     S
C788   H974    1.116   .     S
C789   O1092   1.411   .     S
C789   H978    1.109   .     S
C789   H980    1.110   .     S
C789   H979    1.113   .     S
C790   H982    1.110   .     S
C790   O1093   1.415   .     S
C790   H983    1.109   .     S
C790   H981    1.116   .     S
C791   O1094   1.411   .     S
C791   H985    1.113   .     S
C791   H984    1.109   .     S
C791   H987    1.110   .     S
C792   H990    1.109   .     S
C792   O1095   1.415   .     S
C792   H988    1.116   .     S
C792   H989    1.110   .     S
C793   H992    1.113   .     S
C793   O1097   1.411   .     S
C793   H993    1.110   .     S
C793   H991    1.109   .     S
C794   H995    1.110   .     S
C794   H996    1.109   .     S
C794   O1098   1.415   .     S
C794   H994    1.116   .     S
C795   C844    1.404   .     A
C795   H946    1.083   .     S
C795   C835    1.391   .     A
C796   H999    1.113   .     S
C796   H998    1.109   .     S
C796   H1000   1.110   .     S
C796   O1099   1.411   .     S
C797   H1001   1.116   .     S
C797   O1100   1.415   .     S
C797   H1003   1.109   .     S
C797   H1002   1.110   .     S
C798   H1005   1.113   .     S
C798   O1101   1.411   .     S
C798   H1006   1.110   .     S
C798   H1004   1.109   .     S
C799   H1007   1.116   .     S
C799   O1102   1.415   .     S
C799   H1010   1.109   .     S
C799   H1009   1.110   .     S
C800   H1011   1.109   .     S
C800   O1103   1.411   .     S
C800   H1012   1.113   .     S
C800   H1013   1.110   .     S
C801   H1016   1.109   .     S
C801   O1104   1.415   .     S
C801   H1015   1.110   .     S
C801   H1014   1.116   .     S
C802   H1017   1.109   .     S
C802   H1020   1.110   .     S
C802   O1105   1.411   .     S
C802   H1018   1.113   .     S
C803   H1022   1.110   .     S
C803   H1023   1.109   .     S
C803   H1021   1.116   .     S
C803   O1106   1.415   .     S
C804   H1025   1.113   .     S
C804   O1108   1.411   .     S
C804   H1024   1.109   .     S
C804   H1026   1.110   .     S
C805   H1027   1.116   .     S
C805   H1029   1.109   .     S
C805   O1109   1.415   .     S
C805   H1028   1.110   .     S
C806   C837    1.391   .     A
C806   H947    1.083   .     S
C806   C1225   1.404   .     S
C807   H1032   1.113   .     S
C807   O1110   1.411   .     S
C807   H1031   1.109   .     S
C807   H1033   1.110   .     S
C808   H1034   1.116   .     S
C808   O1111   1.415   .     S
C808   H1036   1.109   .     S
C808   H1035   1.110   .     S
C809   H1037   1.109   .     S
C809   H1039   1.110   .     S
C809   O1112   1.411   .     S
C809   H1038   1.113   .     S
C810   H1040   1.116   .     S
C810   O1113   1.415   .     S
C810   H915    1.110   .     S
C810   H916    1.109   .     S
C811   H917    1.109   .     S
C811   H918    1.113   .     S
C811   O1114   1.411   .     S
C811   H919    1.110   .     S
C812   H921    1.110   .     S
C812   H920    1.116   .     S
C812   O1115   1.415   .     S
C812   H922    1.109   .     S
C813   H923    1.109   .     S
C813   H926    1.110   .     S
C813   H924    1.113   .     S
C813   O1116   1.411   .     S
C814   H927    1.116   .     S
C814   H929    1.109   .     S
C814   H928    1.110   .     S
C814   O1117   1.415   .     S
C815   H932    1.110   .     S
C815   O1119   1.411   .     S
C815   H931    1.113   .     S
C815   H930    1.109   .     S
C816   H934    1.110   .     S
C816   O1120   1.415   .     S
C816   H933    1.116   .     S
C816   H935    1.109   .     S
C817   C838    1.391   .     A
C817   H948    1.083   .     S
C817   C846    1.404   .     S
C818   H938    1.113   .     S
C818   H939    1.110   .     S
C818   H937    1.109   .     S
C818   O1121   1.411   .     S
C819   H942    1.109   .     S
C819   H940    1.116   .     S
C819   O1122   1.415   .     S
C819   H941    1.110   .     S
C820   H944    1.113   .     S
C820   H945    1.110   .     S
C820   O1123   1.411   .     S
C820   H943    1.109   .     S
C821   H949    1.083   .     S
C821   C839    1.391   .     A
C821   C88     1.404   1_565 S
C822   H950    1.083   .     S
C822   C17     1.402   1_565 A
C823   C825    1.391   .     A
C823   H951    1.083   .     S
C823   C18     1.402   1_565 A
C824   C836    1.391   .     A
C824   H952    1.083   .     S
C825   H953    1.083   .     S
C825   C81     1.404   1_565 A
C826   H954    1.083   .     S
C826   C847    1.391   .     A
C827   C858    1.391   .     A
C827   H955    1.083   .     S
C828   H956    1.083   .     S
C828   C869    1.391   .     A
C829   C880    1.391   .     A
C829   C1159   1.402   .     A
C829   H957    1.083   .     S
C830   C891    1.391   .     A
C830   H958    1.083   .     S
C830   C1160   1.402   .     S
C831   H959    1.083   .     S
C831   C902    1.391   .     A
C831   C1161   1.402   .     S
C832   H960    1.083   .     S
C833   H961    1.083   .     S
C833   C23     1.402   1_565 A
C834   H962    1.083   .     S
C835   H963    1.083   .     S
C836   H964    1.083   .     S
C836   C842    1.404   .     S
C837   H965    1.083   .     S
C837   C1162   1.402   .     A
C838   H966    1.083   .     S
C839   H967    1.083   .     S
C839   C25     1.402   1_565 S
C840   C841    1.473   1_554 S
C840   C858    1.404   .     S
C841   C840    1.473   1_556 S
C841   C869    1.404   .     S
C842   C1260   1.404   1_455 A
C842   C843    1.473   1_554 S
C843   C847    1.404   .     A
C843   C842    1.473   1_556 S
C843   C1271   1.404   1_455 S
C844   C845    1.473   .     S
C844   C1282   1.404   1_455 S
C845   C1186   1.404   1_455 S
C846   C848    1.473   .     S
C847   H975    1.083   .     S
C849   O1124   1.280   .     A
C850   O1096   1.280   .     S
C851   O1423   1.280   1_455 A
C851   O1107   1.280   .     S
C852   O1044   1.280   .     A
C852   O1498   1.280   1_455 S
C853   O1045   1.280   .     S
C853   O1049   1.280   .     S
C854   O1046   1.280   .     S
C854   O1050   1.280   .     S
C855   O1051   1.280   .     A
C855   O1047   1.280   .     A
C856   O1053   1.280   .     A
C856   O1048   1.280   .     A
C857   O1054   1.277   .     A
C857   C912    1.453   .     S
C857   O1082   1.277   .     A
C858   H986    1.083   .     S
C859   O1055   1.277   .     A
C859   O1083   1.277   .     A
C860   O1056   1.277   .     A
C860   O1080   1.277   .     A
C861   O1057   1.277   .     A
C861   O1081   1.277   .     A
C862   O1087   1.277   .     A
C862   O1058   1.277   .     A
C863   O1059   1.277   .     A
C863   O1088   1.277   .     A
C864   C910    1.453   .     S
C864   O1060   1.277   .     A
C864   O1084   1.277   .     A
C865   C911    1.451   .     S
C865   O1061   1.277   .     A
C865   O1086   1.277   .     A
C866   O1073   1.277   .     A
C866   O1062   1.277   .     A
C867   O1075   1.277   .     A
C867   O1064   1.277   .     A
C868   O1071   1.277   .     A
C868   O1065   1.277   .     A
C869   H997    1.083   .     S
C870   O1072   1.277   .     A
C870   O1066   1.277   .     A
C871   O1067   1.277   .     A
C871   O1078   1.277   .     A
C872   O1079   1.277   .     A
C872   O1068   1.277   .     A
C873   O1069   1.277   .     A
C873   O1076   1.277   .     A
C874   O1077   1.277   .     A
C874   O1070   1.277   .     A
C875   C892    1.396   .     A
C875   O1089   1.387   .     S
C876   C890    1.396   .     A
C876   O1090   1.385   .     S
C877   C889    1.396   .     A
C877   O1091   1.387   .     S
C878   O1092   1.385   .     S
C878   C888    1.396   .     A
C879   O1093   1.387   .     S
C879   C887    1.396   .     A
C880   C1222   1.404   .     A
C880   H1008   1.083   .     S
C881   O1094   1.385   .     S
C881   C886    1.396   .     A
C882   O1095   1.387   .     S
C882   C885    1.396   .     A
C883   C884    1.396   .     A
C883   O1097   1.385   .     S
C884   O1098   1.387   .     S
C885   O1099   1.385   .     S
C886   O1100   1.387   .     S
C887   O1101   1.385   .     S
C888   O1102   1.387   .     S
C889   O1103   1.385   .     S
C889   C912    1.409   .     A
C890   O1104   1.387   .     S
C890   C911    1.411   .     A
C891   H1019   1.083   .     S
C891   C1223   1.404   .     S
C892   C910    1.409   .     A
C892   O1105   1.385   .     S
C893   C911    1.411   .     A
C893   O1106   1.387   .     S
C893   C909    1.396   .     A
C894   O1108   1.385   .     S
C894   C910    1.409   .     A
C894   C908    1.396   .     A
C895   O1109   1.387   .     S
C895   C907    1.396   .     A
C896   C906    1.396   .     A
C896   C912    1.409   .     A
C896   O1110   1.385   .     S
C897   O1111   1.387   .     S
C897   C905    1.396   .     A
C898   O1112   1.385   .     S
C898   C904    1.396   .     A
C899   O1113   1.387   .     S
C899   C903    1.396   .     A
C900   C901    1.396   .     A
C900   O1114   1.385   .     S
C901   O1115   1.387   .     S
C902   H1030   1.083   .     S
C902   C1224   1.404   .     S
C903   O1116   1.385   .     S
C904   O1117   1.387   .     S
C905   O1119   1.385   .     S
C906   O1120   1.387   .     S
C907   O1121   1.385   .     S
C908   O1122   1.387   .     S
C909   O1123   1.385   .     S
O1041  Zn1136  1.944   .     S
O1041  Zn1128  1.944   .     S
O1041  Zn1125  1.944   .     S
O1042  C90     1.280   1_565 A
O1042  Zn1127  1.940   .     S
O1043  C1231   1.280   .     A
O1043  Zn1130  1.940   .     S
O1044  Zn1129  1.940   .     S
O1045  Zn1139  1.940   .     S
O1046  Zn1138  1.940   .     S
O1047  Zn1133  1.940   .     S
O1048  Zn1125  1.940   .     S
O1049  Zn1135  1.940   .     S
O1050  Zn1134  1.940   .     S
O1051  Zn1137  1.940   .     S
O1052  Zn1131  1.944   .     S
O1052  Zn1133  1.944   .     S
O1052  Zn1137  1.944   .     S
O1053  Zn1136  1.940   .     S
O1054  Zn1128  1.933   .     S
O1055  Zn1127  1.933   .     S
O1056  Zn1130  1.933   .     S
O1057  Zn1129  1.933   .     S
O1058  Zn1132  1.933   .     S
O1059  Zn1131  1.933   .     S
O1060  Zn1126  1.933   .     S
O1061  Zn1140  1.933   .     S
O1062  Zn1127  1.933   .     S
O1063  Zn1138  1.944   .     S
O1063  Zn1126  1.944   .     S
O1063  Zn1134  1.944   .     S
O1063  Zn1510  1.944   1_455 S
O1064  Zn1128  1.933   .     S
O1065  Zn1140  1.933   .     S
O1066  Zn1126  1.933   .     S
O1067  Zn1131  1.933   .     S
O1068  Zn1132  1.933   .     S
O1069  Zn1129  1.933   .     S
O1070  Zn1130  1.933   .     S
O1071  Zn1515  1.933   .     S
O1072  Zn1134  1.933   .     S
O1073  Zn377   1.933   1_565 S
O1074  Zn1520  1.944   1_455 S
O1074  Zn1129  1.944   .     S
O1074  Zn1135  1.944   .     S
O1074  Zn1139  1.944   .     S
O1075  Zn1136  1.933   .     S
O1076  Zn1139  1.933   .     S
O1077  Zn1518  1.933   .     S
O1078  Zn1133  1.933   .     S
O1079  Zn365   1.933   1_565 S
O1080  Zn1514  1.933   .     S
O1081  Zn1135  1.933   .     S
O1082  Zn1125  1.933   .     S
O1083  Zn373   1.933   1_565 S
O1084  Zn1138  1.933   .     S
O1085  Zn1132  1.940   .     S
O1085  C89     1.280   1_565 S
O1086  Zn1519  1.933   .     S
O1087  Zn376   1.933   1_565 S
O1088  Zn1137  1.933   .     S
O1096  Zn1131  1.940   .     S
O1107  Zn1126  1.940   .     S
O1118  Zn1140  1.940   .     S
O1118  C1232   1.280   .     S
O1124  Zn1128  1.940   .     S
Zn1127 O292    1.944   1_565 S
Zn1130 O1443   1.944   .     S
Zn1132 O281    1.944   1_565 S
Zn1134 O1460   1.933   1_455 S
Zn1135 O1451   1.933   1_455 S
Zn1138 O1457   1.933   1_455 S
Zn1139 O1466   1.933   1_455 S
Zn1140 O1454   1.944   .     S
C1141  C1202   1.391   .     A
C1141  H1293   1.083   .     S
C1141  C460    1.404   1_565 A
C1142  H1294   1.083   .     S
C1142  C1225   1.404   .     A
C1142  C1212   1.391   .     A
C1143  C1268   1.411   .     A
C1143  C1239   1.451   .     S
C1143  C1275   1.411   .     A
C1144  C1267   1.409   .     A
C1144  C1278   1.409   .     A
C1144  C1240   1.453   .     S
C1145  C1266   1.411   .     A
C1145  C1277   1.411   .     A
C1145  C1241   1.451   .     S
C1146  C1265   1.409   .     A
C1146  C1242   1.453   .     S
C1146  C1280   1.409   .     A
C1147  C1243   1.451   .     S
C1147  C1264   1.411   .     A
C1147  C1279   1.411   .     A
C1148  C1263   1.409   .     A
C1148  C1283   1.409   .     A
C1148  C1253   1.453   .     S
C1149  C1254   1.451   .     S
C1149  C1262   1.411   .     A
C1149  C1281   1.411   .     A
C1150  C1246   1.453   .     S
C1150  C1261   1.409   .     A
C1150  C1285   1.409   .     A
C1151  C1259   1.411   .     A
C1151  C1284   1.411   .     A
C1151  C1247   1.451   .     S
C1152  C1248   1.453   .     S
C1152  C1287   1.409   .     A
C1152  C1258   1.409   .     A
C1153  H1305   1.083   .     S
C1153  C466    1.404   1_565 A
C1153  C1213   1.391   .     A
C1154  C1257   1.411   .     A
C1154  C1250   1.451   .     S
C1154  C1286   1.411   .     A
C1155  C1289   1.409   .     A
C1155  C1256   1.409   .     A
C1155  C1251   1.453   .     S
C1156  C1255   1.411   .     A
C1156  C1252   1.451   .     S
C1156  C1288   1.411   .     A
C1157  C1207   1.402   .     S
C1157  C1236   1.463   .     S
C1158  C1208   1.402   .     S
C1158  C1235   1.463   .     S
C1159  C1204   1.402   .     S
C1159  C1234   1.463   .     S
C1160  C1206   1.402   .     A
C1160  C1233   1.463   .     S
C1161  C1232   1.463   .     S
C1161  C1215   1.402   .     A
C1162  C1231   1.463   .     S
C1162  C1212   1.402   .     S
C1163  C1230   1.463   .     S
C1163  C1218   1.402   .     S
C1164  H1316   1.083   .     S
C1164  C1228   1.404   .     A
C1164  C1214   1.391   .     A
C1165  C1214   1.402   .     A
C1165  C1229   1.463   .     S
C1166  H1350   1.109   .     S
C1166  O1469   1.415   .     S
C1166  H1348   1.116   .     S
C1166  H1349   1.110   .     S
C1167  O1470   1.411   .     S
C1167  H1352   1.113   .     S
C1167  H1353   1.110   .     S
C1167  H1351   1.109   .     S
C1168  H1356   1.110   .     S
C1168  H1357   1.109   .     S
C1168  O1471   1.415   .     S
C1168  H1354   1.116   .     S
C1169  O1472   1.411   .     S
C1169  H1358   1.109   .     S
C1169  H1360   1.110   .     S
C1169  H1359   1.113   .     S
C1170  H1362   1.110   .     S
C1170  O1473   1.415   .     S
C1170  H1363   1.109   .     S
C1170  H1361   1.116   .     S
C1171  O1474   1.411   .     S
C1171  H1365   1.113   .     S
C1171  H1364   1.109   .     S
C1171  H1367   1.110   .     S
C1172  H1370   1.109   .     S
C1172  O1475   1.415   .     S
C1172  H1368   1.116   .     S
C1172  H1369   1.110   .     S
C1173  H1372   1.113   .     S
C1173  O1477   1.411   .     S
C1173  H1373   1.110   .     S
C1173  H1371   1.109   .     S
C1174  H1375   1.110   .     S
C1174  H1376   1.109   .     S
C1174  O1478   1.415   .     S
C1174  H1374   1.116   .     S
C1175  C1224   1.404   .     A
C1175  H1326   1.083   .     S
C1175  C1215   1.391   .     A
C1176  H1379   1.113   .     S
C1176  H1378   1.109   .     S
C1176  H1380   1.110   .     S
C1176  O1479   1.411   .     S
C1177  H1381   1.116   .     S
C1177  O1480   1.415   .     S
C1177  H1383   1.109   .     S
C1177  H1382   1.110   .     S
C1178  H1385   1.113   .     S
C1178  O1481   1.411   .     S
C1178  H1386   1.110   .     S
C1178  H1384   1.109   .     S
C1179  H1387   1.116   .     S
C1179  O1482   1.415   .     S
C1179  H1390   1.109   .     S
C1179  H1389   1.110   .     S
C1180  H1391   1.109   .     S
C1180  O1483   1.411   .     S
C1180  H1392   1.113   .     S
C1180  H1393   1.110   .     S
C1181  H1396   1.109   .     S
C1181  O1484   1.415   .     S
C1181  H1395   1.110   .     S
C1181  H1394   1.116   .     S
C1182  H1397   1.109   .     S
C1182  H1400   1.110   .     S
C1182  O1485   1.411   .     S
C1182  H1398   1.113   .     S
C1183  H1402   1.110   .     S
C1183  H1403   1.109   .     S
C1183  H1401   1.116   .     S
C1183  O1486   1.415   .     S
C1184  H1405   1.113   .     S
C1184  O1488   1.411   .     S
C1184  H1404   1.109   .     S
C1184  H1406   1.110   .     S
C1185  H1407   1.116   .     S
C1185  H1409   1.109   .     S
C1185  O1489   1.415   .     S
C1185  H1408   1.110   .     S
C1186  C1217   1.391   .     A
C1186  H1327   1.083   .     S
C1186  C845    1.404   1_655 S
C1187  H1412   1.113   .     S
C1187  O1490   1.411   .     S
C1187  H1411   1.109   .     S
C1187  H1413   1.110   .     S
C1188  H1414   1.116   .     S
C1188  O1491   1.415   .     S
C1188  H1416   1.109   .     S
C1188  H1415   1.110   .     S
C1189  H1417   1.109   .     S
C1189  H1419   1.110   .     S
C1189  O1492   1.411   .     S
C1189  H1418   1.113   .     S
C1190  H1420   1.116   .     S
C1190  O1493   1.415   .     S
C1190  H1295   1.110   .     S
C1190  H1296   1.109   .     S
C1191  H1297   1.109   .     S
C1191  H1298   1.113   .     S
C1191  O1494   1.411   .     S
C1191  H1299   1.110   .     S
C1192  H1301   1.110   .     S
C1192  H1300   1.116   .     S
C1192  O1495   1.415   .     S
C1192  H1302   1.109   .     S
C1193  H1303   1.109   .     S
C1193  H1306   1.110   .     S
C1193  H1304   1.113   .     S
C1193  O1496   1.411   .     S
C1194  H1307   1.116   .     S
C1194  H1309   1.109   .     S
C1194  H1308   1.110   .     S
C1194  O1497   1.415   .     S
C1195  H1312   1.110   .     S
C1195  O1499   1.411   .     S
C1195  H1311   1.113   .     S
C1195  H1310   1.109   .     S
C1196  H1314   1.110   .     S
C1196  O1500   1.415   .     S
C1196  H1313   1.116   .     S
C1196  H1315   1.109   .     S
C1197  C1218   1.391   .     A
C1197  H1328   1.083   .     S
C1197  C1226   1.404   .     S
C1198  H1318   1.113   .     S
C1198  H1319   1.110   .     S
C1198  H1317   1.109   .     S
C1198  O1501   1.411   .     S
C1199  H1322   1.109   .     S
C1199  H1320   1.116   .     S
C1199  O1502   1.415   .     S
C1199  H1321   1.110   .     S
C1200  H1324   1.113   .     S
C1200  H1325   1.110   .     S
C1200  O1503   1.411   .     S
C1200  H1323   1.109   .     S
C1201  H1329   1.083   .     S
C1201  C1219   1.391   .     A
C1201  C468    1.404   1_565 S
C1202  H1330   1.083   .     S
C1202  C397    1.402   1_565 A
C1203  C1205   1.391   .     A
C1203  H1331   1.083   .     S
C1203  C398    1.402   1_565 A
C1204  C1216   1.391   .     A
C1204  H1332   1.083   .     S
C1205  H1333   1.083   .     S
C1205  C461    1.404   1_565 A
C1206  H1334   1.083   .     S
C1206  C1227   1.391   .     A
C1207  C1238   1.391   .     A
C1207  H1335   1.083   .     S
C1208  H1336   1.083   .     S
C1208  C1249   1.391   .     A
C1209  C1260   1.391   .     A
C1209  C779    1.402   1_655 A
C1209  H1337   1.083   .     S
C1210  C1271   1.391   .     A
C1210  H1338   1.083   .     S
C1210  C780    1.402   1_655 S
C1211  H1339   1.083   .     S
C1211  C1282   1.391   .     A
C1211  C781    1.402   1_655 S
C1212  H1340   1.083   .     S
C1213  H1341   1.083   .     S
C1213  C403    1.402   1_565 A
C1214  H1342   1.083   .     S
C1215  H1343   1.083   .     S
C1216  H1344   1.083   .     S
C1216  C1222   1.404   .     S
C1217  H1345   1.083   .     S
C1217  C782    1.402   1_655 A
C1218  H1346   1.083   .     S
C1219  H1347   1.083   .     S
C1219  C405    1.402   1_565 S
C1220  C1221   1.473   1_554 S
C1220  C1238   1.404   .     S
C1221  C1220   1.473   1_556 S
C1221  C1249   1.404   .     S
C1222  C1223   1.473   1_554 S
C1223  C1227   1.404   .     A
C1223  C1222   1.473   1_556 S
C1224  C1225   1.473   .     S
C1226  C1228   1.473   .     S
C1227  H1355   1.083   .     S
C1229  O1504   1.280   .     A
C1230  O1476   1.280   .     S
C1231  O1487   1.280   .     S
C1232  O1424   1.280   .     A
C1233  O1425   1.280   .     S
C1233  O1429   1.280   .     S
C1234  O1426   1.280   .     S
C1234  O1430   1.280   .     S
C1235  O1431   1.280   .     A
C1235  O1427   1.280   .     A
C1236  O1433   1.280   .     A
C1236  O1428   1.280   .     A
C1237  O1434   1.277   .     A
C1237  C1292   1.453   .     S
C1237  O1462   1.277   .     A
C1238  H1366   1.083   .     S
C1239  O1435   1.277   .     A
C1239  O1463   1.277   .     A
C1240  O1436   1.277   .     A
C1240  O1460   1.277   .     A
C1241  O1437   1.277   .     A
C1241  O1461   1.277   .     A
C1242  O1467   1.277   .     A
C1242  O1438   1.277   .     A
C1243  O1439   1.277   .     A
C1243  O1468   1.277   .     A
C1244  C1290   1.453   .     S
C1244  O1440   1.277   .     A
C1244  O1464   1.277   .     A
C1245  C1291   1.451   .     S
C1245  O1441   1.277   .     A
C1245  O1466   1.277   .     A
C1246  O1453   1.277   .     A
C1246  O1442   1.277   .     A
C1247  O1455   1.277   .     A
C1247  O1444   1.277   .     A
C1248  O1451   1.277   .     A
C1248  O1445   1.277   .     A
C1249  H1377   1.083   .     S
C1250  O1452   1.277   .     A
C1250  O1446   1.277   .     A
C1251  O1447   1.277   .     A
C1251  O1458   1.277   .     A
C1252  O1459   1.277   .     A
C1252  O1448   1.277   .     A
C1253  O1449   1.277   .     A
C1253  O1456   1.277   .     A
C1254  O1457   1.277   .     A
C1254  O1450   1.277   .     A
C1255  C1272   1.396   .     A
C1255  O1469   1.387   .     S
C1256  C1270   1.396   .     A
C1256  O1470   1.385   .     S
C1257  C1269   1.396   .     A
C1257  O1471   1.387   .     S
C1258  O1472   1.385   .     S
C1258  C1268   1.396   .     A
C1259  O1473   1.387   .     S
C1259  C1267   1.396   .     A
C1260  C842    1.404   1_655 A
C1260  H1388   1.083   .     S
C1261  O1474   1.385   .     S
C1261  C1266   1.396   .     A
C1262  O1475   1.387   .     S
C1262  C1265   1.396   .     A
C1263  C1264   1.396   .     A
C1263  O1477   1.385   .     S
C1264  O1478   1.387   .     S
C1265  O1479   1.385   .     S
C1266  O1480   1.387   .     S
C1267  O1481   1.385   .     S
C1268  O1482   1.387   .     S
C1269  O1483   1.385   .     S
C1269  C1292   1.409   .     A
C1270  O1484   1.387   .     S
C1270  C1291   1.411   .     A
C1271  H1399   1.083   .     S
C1271  C843    1.404   1_655 S
C1272  C1290   1.409   .     A
C1272  O1485   1.385   .     S
C1273  C1291   1.411   .     A
C1273  O1486   1.387   .     S
C1273  C1289   1.396   .     A
C1274  O1488   1.385   .     S
C1274  C1290   1.409   .     A
C1274  C1288   1.396   .     A
C1275  O1489   1.387   .     S
C1275  C1287   1.396   .     A
C1276  C1286   1.396   .     A
C1276  C1292   1.409   .     A
C1276  O1490   1.385   .     S
C1277  O1491   1.387   .     S
C1277  C1285   1.396   .     A
C1278  O1492   1.385   .     S
C1278  C1284   1.396   .     A
C1279  O1493   1.387   .     S
C1279  C1283   1.396   .     A
C1280  C1281   1.396   .     A
C1280  O1494   1.385   .     S
C1281  O1495   1.387   .     S
C1282  H1410   1.083   .     S
C1282  C844    1.404   1_655 S
C1283  O1496   1.385   .     S
C1284  O1497   1.387   .     S
C1285  O1499   1.385   .     S
C1286  O1500   1.387   .     S
C1287  O1501   1.385   .     S
C1288  O1502   1.387   .     S
C1289  O1503   1.385   .     S
O1421  Zn1516  1.944   .     S
O1421  Zn1508  1.944   .     S
O1421  Zn1505  1.944   .     S
O1422  C470    1.280   1_565 A
O1422  Zn1507  1.940   .     S
O1423  C851    1.280   1_655 A
O1423  Zn1510  1.940   .     S
O1424  Zn1509  1.940   .     S
O1425  Zn1519  1.940   .     S
O1426  Zn1518  1.940   .     S
O1427  Zn1513  1.940   .     S
O1428  Zn1505  1.940   .     S
O1429  Zn1515  1.940   .     S
O1430  Zn1514  1.940   .     S
O1431  Zn1517  1.940   .     S
O1432  Zn1511  1.944   .     S
O1432  Zn1513  1.944   .     S
O1432  Zn1517  1.944   .     S
O1433  Zn1516  1.940   .     S
O1434  Zn1508  1.933   .     S
O1435  Zn1507  1.933   .     S
O1436  Zn1510  1.933   .     S
O1437  Zn1509  1.933   .     S
O1438  Zn1512  1.933   .     S
O1439  Zn1511  1.933   .     S
O1440  Zn1506  1.933   .     S
O1441  Zn1520  1.933   .     S
O1442  Zn1507  1.933   .     S
O1443  Zn1518  1.944   .     S
O1443  Zn1506  1.944   .     S
O1443  Zn1514  1.944   .     S
O1444  Zn1508  1.933   .     S
O1445  Zn1520  1.933   .     S
O1446  Zn1506  1.933   .     S
O1447  Zn1511  1.933   .     S
O1448  Zn1512  1.933   .     S
O1449  Zn1509  1.933   .     S
O1450  Zn1510  1.933   .     S
O1451  Zn1135  1.933   1_655 S
O1452  Zn1514  1.933   .     S
O1453  Zn757   1.933   1_565 S
O1454  Zn1509  1.944   .     S
O1454  Zn1515  1.944   .     S
O1454  Zn1519  1.944   .     S
O1455  Zn1516  1.933   .     S
O1456  Zn1519  1.933   .     S
O1457  Zn1138  1.933   1_655 S
O1458  Zn1513  1.933   .     S
O1459  Zn745   1.933   1_565 S
O1460  Zn1134  1.933   1_655 S
O1461  Zn1515  1.933   .     S
O1462  Zn1505  1.933   .     S
O1463  Zn753   1.933   1_565 S
O1464  Zn1518  1.933   .     S
O1465  Zn1512  1.940   .     S
O1465  C469    1.280   1_565 S
O1466  Zn1139  1.933   1_655 S
O1467  Zn756   1.933   1_565 S
O1468  Zn1517  1.933   .     S
O1476  Zn1511  1.940   .     S
O1487  Zn1506  1.940   .     S
O1498  Zn1520  1.940   .     S
O1498  C852    1.280   1_655 S
O1504  Zn1508  1.940   .     S
Zn1507 O672    1.944   1_565 S
Zn1510 O1063   1.944   1_655 S
Zn1512 O661    1.944   1_565 S
Zn1520 O1074   1.944   1_655 S
