data_str_m1_o1_o17_pcu_sym.113
_audit_creation_date              2020-01-03
_audit_creation_method            'Materials Studio'
_symmetry_space_group_name_H-M    'P1'
_symmetry_Int_Tables_number       1
_symmetry_cell_setting            triclinic
loop_
_symmetry_equiv_pos_as_xyz
  x,y,z
_cell_length_a                    36.5549
_cell_length_b                    36.5908
_cell_length_c                    34.4686
_cell_angle_alpha                 89.9970
_cell_angle_beta                  90.0322
_cell_angle_gamma                 90.0510
loop_
_atom_site_label
_atom_site_type_symbol
_atom_site_fract_x
_atom_site_fract_y
_atom_site_fract_z
_atom_site_U_iso_or_equiv
_atom_site_adp_type
_atom_site_occupancy
C1     C     0.03328   0.25002   0.41886   0.00000  Uiso   1.00
C2     C     0.21672   0.49995   0.08114   0.00000  Uiso   1.00
C3     C     0.24987   0.46654   0.54070   0.00000  Uiso   1.00
C4     C     0.03351   0.25002   0.45933   0.00000  Uiso   1.00
C5     C     0.46650   0.24993   0.54067   0.00000  Uiso   1.00
C6     C     0.24987   0.46653   0.45931   0.00000  Uiso   1.00
C7     C     0.25004   0.03347   0.54069   0.00000  Uiso   1.00
C8     C     0.21651   0.49996   0.95928   0.00000  Uiso   1.00
C9     C     0.28349   0.00008   0.04072   0.00000  Uiso   1.00
C10    C     0.00014   0.28346   0.95930   0.00000  Uiso   1.00
C11    C     0.49997   0.21654   0.04070   0.00000  Uiso   1.00
C12    C     0.28350   0.00008   0.95933   0.00000  Uiso   1.00
C13    C     0.49997   0.21676   0.91884   0.00000  Uiso   1.00
C14    C     0.21650   0.49995   0.04067   0.00000  Uiso   1.00
C15    C     0.49998   0.21653   0.95931   0.00000  Uiso   1.00
C16    C     0.00014   0.28347   0.04069   0.00000  Uiso   1.00
C17    C     0.09820   0.34795   0.25020   0.00000  Uiso   1.00
C18    C     0.40181   0.15206   0.74969   0.00000  Uiso   1.00
C19    C     0.15173   0.09789   0.24965   0.00000  Uiso   1.00
C20    C     0.34798   0.40182   0.74975   0.00000  Uiso   1.00
C21    C     0.40202   0.15183   0.24974   0.00000  Uiso   1.00
C22    C     0.09822   0.34795   0.74964   0.00000  Uiso   1.00
C23    C     0.34820   0.40198   0.25028   0.00000  Uiso   1.00
C24    C     0.00013   0.28324   0.08116   0.00000  Uiso   1.00
C25    C     0.15188   0.09805   0.75004   0.00000  Uiso   1.00
C26    C     0.09800   0.15186   0.75003   0.00000  Uiso   1.00
C27    C     0.40180   0.34802   0.24972   0.00000  Uiso   1.00
C28    C     0.15176   0.40211   0.75030   0.00000  Uiso   1.00
C29    C     0.34798   0.09817   0.25026   0.00000  Uiso   1.00
C30    C     0.40202   0.34818   0.75025   0.00000  Uiso   1.00
C31    C     0.09827   0.15211   0.25035   0.00000  Uiso   1.00
C32    C     0.34824   0.09792   0.75023   0.00000  Uiso   1.00
C33    C     0.15181   0.40205   0.24981   0.00000  Uiso   1.00
C34    C     0.00000   0.24997   0.47964   0.00000  Uiso   1.00
C35    C     0.21674   0.49995   0.91882   0.00000  Uiso   1.00
C36    C    -0.00000   0.24997   0.52036   0.00000  Uiso   1.00
C37    C     0.24995  -0.00000   0.47964   0.00000  Uiso   1.00
C38    C     0.24996   0.00000   0.52036   0.00000  Uiso   1.00
C39    C     0.25000   0.00002   0.97964   0.00000  Uiso   1.00
C40    C     0.25000   0.00002   0.02036   0.00000  Uiso   1.00
C41    C     0.00006   0.25000   0.97964   0.00000  Uiso   1.00
C42    C     0.00006   0.25000   0.02036   0.00000  Uiso   1.00
C43    C     0.11767   0.43958   0.29863   0.00000  Uiso   1.00
C44    C     0.39042   0.05286   0.71851   0.00000  Uiso   1.00
C45    C     0.05096   0.10860   0.27573   0.00000  Uiso   1.00
C46    C     0.28326   0.00008   0.08118   0.00000  Uiso   1.00
C47    C     0.35963   0.30242   0.78042   0.00000  Uiso   1.00
C48    C     0.30850   0.13395   0.20461   0.00000  Uiso   1.00
C49    C     0.11070   0.44625   0.71557   0.00000  Uiso   1.00
C50    C     0.45123   0.39374   0.26233   0.00000  Uiso   1.00
C51    C     0.05971   0.11684   0.70243   0.00000  Uiso   1.00
C52    C     0.11233   0.05532   0.71154   0.00000  Uiso   1.00
C53    C     0.39433   0.45112   0.26447   0.00000  Uiso   1.00
C54    C     0.05181   0.39069   0.72125   0.00000  Uiso   1.00
C55    C     0.36307   0.19417   0.21023   0.00000  Uiso   1.00
C56    C     0.30452   0.36167   0.78650   0.00000  Uiso   1.00
C57    C     0.00012   0.28323   0.91884   0.00000  Uiso   1.00
C58    C     0.10931   0.05272   0.28094   0.00000  Uiso   1.00
C59    C     0.44910   0.10855   0.72440   0.00000  Uiso   1.00
C60    C     0.05692   0.38557   0.29227   0.00000  Uiso   1.00
C61    C     0.35973   0.19699   0.78175   0.00000  Uiso   1.00
C62    C     0.13233   0.31042   0.20137   0.00000  Uiso   1.00
C63    C     0.39038   0.44758   0.71958   0.00000  Uiso   1.00
C64    C     0.19904   0.14140   0.22427   0.00000  Uiso   1.00
C65    C     0.13941   0.30375   0.78404   0.00000  Uiso   1.00
C66    C     0.44150   0.11605   0.29539   0.00000  Uiso   1.00
C67    C     0.19444   0.13740   0.78903   0.00000  Uiso   1.00
C68    C     0.49996   0.21677   0.08116   0.00000  Uiso   1.00
C69    C     0.29877   0.35626   0.23767   0.00000  Uiso   1.00
C70    C     0.35567   0.29888   0.23553   0.00000  Uiso   1.00
C71    C     0.13247   0.18950   0.79862   0.00000  Uiso   1.00
C72    C     0.38693   0.05583   0.28977   0.00000  Uiso   1.00
C73    C     0.19814   0.35942   0.77884   0.00000  Uiso   1.00
C74    C     0.14069   0.19729   0.21906   0.00000  Uiso   1.00
C75    C     0.44548   0.38832   0.71348   0.00000  Uiso   1.00
C76    C     0.19308   0.36443   0.20773   0.00000  Uiso   1.00
C77    C     0.30077   0.14183   0.77443   0.00000  Uiso   1.00
C78    C     0.00001   0.24998   0.39850   0.00000  Uiso   1.00
C79    C     0.49999   0.24998   0.60150   0.00000  Uiso   1.00
C80    C     0.24997  -0.00000   0.39850   0.00000  Uiso   1.00
C81    C     0.46672   0.24994   0.58114   0.00000  Uiso   1.00
C82    C     0.24998   0.00000   0.60150   0.00000  Uiso   1.00
C83    C     0.25001   0.00001   0.89850   0.00000  Uiso   1.00
C84    C     0.24999   0.00001   0.10150   0.00000  Uiso   1.00
C85    C     0.00003   0.25000   0.89850   0.00000  Uiso   1.00
C86    C     0.00003   0.25000   0.10150   0.00000  Uiso   1.00
C87    C     0.43336   0.24988   0.47972   0.00000  Uiso   1.00
C88    C     0.06664   0.25005   0.52028   0.00000  Uiso   1.00
C89    C     0.25012   0.06658   0.47976   0.00000  Uiso   1.00
C90    C     0.24978   0.43342   0.52024   0.00000  Uiso   1.00
C91    C     0.06665   0.25006   0.47981   0.00000  Uiso   1.00
C92    C     0.24988   0.46676   0.41884   0.00000  Uiso   1.00
C93    C     0.43335   0.24988   0.52019   0.00000  Uiso   1.00
C94    C     0.24978   0.43342   0.47977   0.00000  Uiso   1.00
C95    C     0.25012   0.06658   0.52023   0.00000  Uiso   1.00
C96    C     0.18336   0.49989   0.97972   0.00000  Uiso   1.00
C97    C     0.31664   0.00015   0.02028   0.00000  Uiso   1.00
C98    C     0.00023   0.31658   0.97976   0.00000  Uiso   1.00
C99    C     0.49990   0.18342   0.02024   0.00000  Uiso   1.00
C100   C     0.31665   0.00014   0.97981   0.00000  Uiso   1.00
C101   C     0.18335   0.49989   0.02019   0.00000  Uiso   1.00
C102   C     0.49990   0.18342   0.97977   0.00000  Uiso   1.00
C103   C     0.25005   0.03324   0.58116   0.00000  Uiso   1.00
C104   C     0.00023   0.31658   0.02023   0.00000  Uiso   1.00
C105   C     0.24999  -0.00000   0.35601   0.00000  Uiso   1.00
C106   C     0.25000   0.00000   0.64399   0.00000  Uiso   1.00
C107   C     0.00001   0.25000   0.35602   0.00000  Uiso   1.00
C108   C     0.49999   0.25000   0.64398   0.00000  Uiso   1.00
C109   C     0.00001   0.25000   0.85601   0.00000  Uiso   1.00
C110   C     0.00001   0.25000   0.14399   0.00000  Uiso   1.00
C111   C     0.25001   0.00000   0.85602   0.00000  Uiso   1.00
C112   C     0.24999   0.00000   0.14398   0.00000  Uiso   1.00
C113   C     0.17990   0.06982   0.25011   0.00000  Uiso   1.00
C114   C     0.46674   0.24993   0.41882   0.00000  Uiso   1.00
C115   C     0.31992   0.43000   0.75003   0.00000  Uiso   1.00
C116   C     0.43005   0.18005   0.24997   0.00000  Uiso   1.00
C117   C     0.07003   0.31988   0.75003   0.00000  Uiso   1.00
C118   C     0.32000   0.43006   0.25006   0.00000  Uiso   1.00
C119   C     0.18003   0.06995   0.75001   0.00000  Uiso   1.00
C120   C     0.06998   0.31992   0.25000   0.00000  Uiso   1.00
C121   C     0.42995   0.18014   0.75007   0.00000  Uiso   1.00
C122   C     0.17996   0.43015   0.74994   0.00000  Uiso   1.00
C123   C     0.31995   0.06995   0.25003   0.00000  Uiso   1.00
C124   C     0.43008   0.32000   0.74997   0.00000  Uiso   1.00
C125   C     0.03326   0.25002   0.58118   0.00000  Uiso   1.00
C126   C     0.07010   0.18018   0.24989   0.00000  Uiso   1.00
C127   C     0.32008   0.06984   0.74990   0.00000  Uiso   1.00
C128   C     0.18002   0.43008   0.25000   0.00000  Uiso   1.00
C129   C     0.06992   0.18001   0.74996   0.00000  Uiso   1.00
C130   C     0.43000   0.31994   0.24994   0.00000  Uiso   1.00
C131   C     0.12014   0.40708   0.27261   0.00000  Uiso   1.00
C132   C     0.38353   0.08941   0.73621   0.00000  Uiso   1.00
C133   C     0.08921   0.11664   0.26331   0.00000  Uiso   1.00
C134   C     0.36726   0.34003   0.76586   0.00000  Uiso   1.00
C135   C     0.34208   0.13058   0.22895   0.00000  Uiso   1.00
C136   C     0.25005   0.03323   0.41884   0.00000  Uiso   1.00
C137   C     0.11699   0.41017   0.73464   0.00000  Uiso   1.00
C138   C     0.41223   0.38489   0.25467   0.00000  Uiso   1.00
C139   C     0.09251   0.11977   0.72804   0.00000  Uiso   1.00
C140   C     0.11889   0.09170   0.72982   0.00000  Uiso   1.00
C141   C     0.38518   0.41224   0.25529   0.00000  Uiso   1.00
C142   C     0.08967   0.38298   0.73506   0.00000  Uiso   1.00
C143   C     0.36909   0.15811   0.22941   0.00000  Uiso   1.00
C144   C     0.34018   0.36742   0.76639   0.00000  Uiso   1.00
C145   C     0.11642   0.08940   0.26363   0.00000  Uiso   1.00
C146   C     0.41081   0.11663   0.73664   0.00000  Uiso   1.00
C147   C     0.24989   0.46677   0.58116   0.00000  Uiso   1.00
C148   C     0.09254   0.38012   0.27197   0.00000  Uiso   1.00
C149   C     0.36657   0.16054   0.76377   0.00000  Uiso   1.00
C150   C     0.12987   0.34292   0.22739   0.00000  Uiso   1.00
C151   C     0.38274   0.40997   0.73414   0.00000  Uiso   1.00
C152   C     0.16079   0.13336   0.23668   0.00000  Uiso   1.00
C153   C     0.13302   0.33989   0.76523   0.00000  Uiso   1.00
C154   C     0.40792   0.11943   0.27105   0.00000  Uiso   1.00
C155   C     0.15812   0.13090   0.77050   0.00000  Uiso   1.00
C156   C     0.33777   0.36511   0.24533   0.00000  Uiso   1.00
C157   C     0.36482   0.33776   0.24471   0.00000  Uiso   1.00
C158   C     0.28328   0.00007   0.91886   0.00000  Uiso   1.00
C159   C     0.12995   0.15717   0.77235   0.00000  Uiso   1.00
C160   C     0.38091   0.09189   0.27059   0.00000  Uiso   1.00
C161   C     0.16030   0.36710   0.76491   0.00000  Uiso   1.00
C162   C     0.13358   0.16061   0.23637   0.00000  Uiso   1.00
C163   C     0.40982   0.38257   0.73361   0.00000  Uiso   1.00
C164   C     0.15746   0.36988   0.22803   0.00000  Uiso   1.00
C165   C     0.33921   0.13342   0.76304   0.00000  Uiso   1.00
C166   C     0.46651   0.24992   0.45928   0.00000  Uiso   1.00
C167   C     0.03349   0.25001   0.54072   0.00000  Uiso   1.00
C168   C     0.25004   0.03346   0.45930   0.00000  Uiso   1.00
H169   H     0.40746   0.24984   0.46440   0.00000  Uiso   1.00
H170   H     0.34254   0.00020   0.03560   0.00000  Uiso   1.00
H171   H     0.00029   0.34245   0.96446   0.00000  Uiso   1.00
H172   H     0.49983   0.15755   0.03554   0.00000  Uiso   1.00
H173   H     0.34255   0.00019   0.96454   0.00000  Uiso   1.00
H174   H     0.15745   0.49984   0.03546   0.00000  Uiso   1.00
H175   H     0.49984   0.15755   0.96448   0.00000  Uiso   1.00
H176   H     0.00029   0.34245   0.03552   0.00000  Uiso   1.00
H177   H     0.05903   0.25006   0.40327   0.00000  Uiso   1.00
H178   H     0.44097   0.24991   0.59673   0.00000  Uiso   1.00
H179   H     0.24981   0.44104   0.40323   0.00000  Uiso   1.00
H180   H     0.09254   0.25009   0.53560   0.00000  Uiso   1.00
H181   H     0.25012   0.05896   0.59676   0.00000  Uiso   1.00
H182   H     0.44099   0.24990   0.40319   0.00000  Uiso   1.00
H183   H     0.05901   0.25005   0.59681   0.00000  Uiso   1.00
H184   H     0.25013   0.05896   0.40323   0.00000  Uiso   1.00
H185   H     0.24983   0.44104   0.59677   0.00000  Uiso   1.00
H186   H     0.30903   0.00012   0.90327   0.00000  Uiso   1.00
H187   H     0.19097   0.49990   0.09673   0.00000  Uiso   1.00
H188   H     0.49990   0.19104   0.90323   0.00000  Uiso   1.00
H189   H     0.00019   0.30896   0.09677   0.00000  Uiso   1.00
H190   H     0.19099   0.49990   0.90319   0.00000  Uiso   1.00
H191   H     0.25019   0.09245   0.46446   0.00000  Uiso   1.00
H192   H     0.30901   0.00013   0.09681   0.00000  Uiso   1.00
H193   H     0.00018   0.30896   0.90323   0.00000  Uiso   1.00
H194   H     0.49989   0.19104   0.09677   0.00000  Uiso   1.00
H195   H     0.12966   0.46542   0.28995   0.00000  Uiso   1.00
H196   H     0.37808   0.02855   0.73079   0.00000  Uiso   1.00
H197   H     0.03524   0.12916   0.29106   0.00000  Uiso   1.00
H198   H     0.38095   0.28696   0.79492   0.00000  Uiso   1.00
H199   H     0.28277   0.12263   0.21463   0.00000  Uiso   1.00
H200   H     0.12282   0.47089   0.72742   0.00000  Uiso   1.00
H201   H     0.46469   0.38244   0.28770   0.00000  Uiso   1.00
H202   H     0.24972   0.40755   0.53554   0.00000  Uiso   1.00
H203   H     0.03411   0.12951   0.71082   0.00000  Uiso   1.00
H204   H     0.13493   0.03998   0.69925   0.00000  Uiso   1.00
H205   H     0.37505   0.46779   0.28056   0.00000  Uiso   1.00
H206   H     0.03634   0.36966   0.70625   0.00000  Uiso   1.00
H207   H     0.38591   0.20895   0.19763   0.00000  Uiso   1.00
H208   H     0.27976   0.37392   0.77516   0.00000  Uiso   1.00
H209   H     0.12097   0.02841   0.26799   0.00000  Uiso   1.00
H210   H     0.46499   0.12912   0.70923   0.00000  Uiso   1.00
H211   H     0.04258   0.36244   0.30483   0.00000  Uiso   1.00
H212   H     0.37231   0.22134   0.76984   0.00000  Uiso   1.00
H213   H     0.09255   0.25009   0.46454   0.00000  Uiso   1.00
H214   H     0.12034   0.28458   0.21006   0.00000  Uiso   1.00
H215   H     0.36905   0.46306   0.70512   0.00000  Uiso   1.00
H216   H     0.21476   0.12084   0.20894   0.00000  Uiso   1.00
H217   H     0.12776   0.27912   0.77169   0.00000  Uiso   1.00
H218   H     0.46723   0.12736   0.28537   0.00000  Uiso   1.00
H219   H     0.21017   0.11470   0.80052   0.00000  Uiso   1.00
H220   H     0.28531   0.36756   0.21230   0.00000  Uiso   1.00
H221   H     0.37495   0.28221   0.21944   0.00000  Uiso   1.00
H222   H     0.11965   0.21512   0.79064   0.00000  Uiso   1.00
H223   H     0.36409   0.04105   0.30237   0.00000  Uiso   1.00
H224   H     0.40745   0.24985   0.53546   0.00000  Uiso   1.00
H225   H     0.21356   0.38046   0.79385   0.00000  Uiso   1.00
H226   H     0.12903   0.22159   0.23201   0.00000  Uiso   1.00
H227   H     0.47024   0.37608   0.72483   0.00000  Uiso   1.00
H228   H     0.20742   0.38756   0.19517   0.00000  Uiso   1.00
H229   H     0.28425   0.12139   0.78905   0.00000  Uiso   1.00
H230   H     0.24971   0.40755   0.46448   0.00000  Uiso   1.00
H231   H     0.25019   0.09245   0.53552   0.00000  Uiso   1.00
H232   H     0.15746   0.49985   0.96440   0.00000  Uiso   1.00
O233   O     0.25000   0.00000   0.25000   0.00000  Uiso   1.00
O234   O     0.25000   0.46964   0.66245   0.00000  Uiso   1.00
O235   O     0.46964   0.25000   0.33755   0.00000  Uiso   1.00
O236   O     0.03037   0.25000   0.66245   0.00000  Uiso   1.00
O237   O     0.00000   0.21964   0.83755   0.00000  Uiso   1.00
O238   O     0.00000   0.28037   0.16245   0.00000  Uiso   1.00
O239   O     0.28037   0.00000   0.83755   0.00000  Uiso   1.00
O240   O     0.21964   0.00000   0.16245   0.00000  Uiso   1.00
O241   O     0.00000   0.28037   0.83755   0.00000  Uiso   1.00
O242   O     0.00000   0.21964   0.16245   0.00000  Uiso   1.00
O243   O     0.21964   0.00000   0.83755   0.00000  Uiso   1.00
O244   O     0.25000   0.00000   0.75000   0.00000  Uiso   1.00
O245   O     0.28037   0.00000   0.16245   0.00000  Uiso   1.00
O246   O     0.20725   0.07308   0.27302   0.00000  Uiso   1.00
O247   O     0.29276   0.42693   0.72698   0.00000  Uiso   1.00
O248   O     0.42693   0.20725   0.27302   0.00000  Uiso   1.00
O249   O     0.07308   0.29276   0.72698   0.00000  Uiso   1.00
O250   O     0.29276   0.42693   0.27302   0.00000  Uiso   1.00
O251   O     0.20725   0.07308   0.72698   0.00000  Uiso   1.00
O252   O     0.07308   0.29276   0.27302   0.00000  Uiso   1.00
O253   O     0.42693   0.20725   0.72698   0.00000  Uiso   1.00
O254   O     0.20725   0.42693   0.72698   0.00000  Uiso   1.00
O255   O     0.00000   0.25000   0.25000   0.00000  Uiso   1.00
O256   O     0.29276   0.07308   0.27302   0.00000  Uiso   1.00
O257   O     0.42693   0.29276   0.72698   0.00000  Uiso   1.00
O258   O     0.07308   0.20725   0.27302   0.00000  Uiso   1.00
O259   O     0.29276   0.07308   0.72698   0.00000  Uiso   1.00
O260   O     0.20725   0.42693   0.27302   0.00000  Uiso   1.00
O261   O     0.07308   0.20725   0.72698   0.00000  Uiso   1.00
O262   O     0.42693   0.29276   0.27302   0.00000  Uiso   1.00
O263   O     0.45725   0.32308   0.77302   0.00000  Uiso   1.00
O264   O     0.04276   0.17693   0.22698   0.00000  Uiso   1.00
O265   O     0.17693   0.45725   0.77302   0.00000  Uiso   1.00
O266   O     0.00000   0.25000   0.75000   0.00000  Uiso   1.00
O267   O     0.32308   0.04276   0.22698   0.00000  Uiso   1.00
O268   O     0.04276   0.17693   0.77302   0.00000  Uiso   1.00
O269   O     0.45725   0.32308   0.22698   0.00000  Uiso   1.00
O270   O     0.32308   0.04276   0.77302   0.00000  Uiso   1.00
O271   O     0.17693   0.45725   0.22698   0.00000  Uiso   1.00
O272   O     0.45725   0.17693   0.22698   0.00000  Uiso   1.00
O273   O     0.04276   0.32308   0.77302   0.00000  Uiso   1.00
O274   O     0.17693   0.04276   0.22698   0.00000  Uiso   1.00
O275   O     0.32308   0.45725   0.77302   0.00000  Uiso   1.00
O276   O     0.04276   0.32308   0.22698   0.00000  Uiso   1.00
O277   O     0.25000   0.46964   0.33755   0.00000  Uiso   1.00
O278   O     0.45725   0.17693   0.77302   0.00000  Uiso   1.00
O279   O     0.32308   0.45725   0.22698   0.00000  Uiso   1.00
O280   O     0.17693   0.04276   0.77302   0.00000  Uiso   1.00
O281   O     0.10396   0.43734   0.33084   0.00000  Uiso   1.00
O282   O     0.40862   0.04977   0.68900   0.00000  Uiso   1.00
O283   O     0.03622   0.07965   0.26753   0.00000  Uiso   1.00
O284   O     0.33005   0.28779   0.77484   0.00000  Uiso   1.00
O285   O     0.30966   0.14772   0.17237   0.00000  Uiso   1.00
O286   O     0.09329   0.44855   0.68543   0.00000  Uiso   1.00
O287   O     0.46902   0.41154   0.23907   0.00000  Uiso   1.00
O288   O     0.25000   0.03037   0.66245   0.00000  Uiso   1.00
O289   O     0.06143   0.10177   0.67088   0.00000  Uiso   1.00
O290   O     0.08197   0.04139   0.71165   0.00000  Uiso   1.00
O291   O     0.42261   0.46536   0.25332   0.00000  Uiso   1.00
O292   O     0.03703   0.41993   0.72795   0.00000  Uiso   1.00
O293   O     0.33292   0.20850   0.20990   0.00000  Uiso   1.00
O294   O     0.30274   0.34465   0.81692   0.00000  Uiso   1.00
O295   O     0.09159   0.04950   0.31077   0.00000  Uiso   1.00
O296   O     0.46370   0.07956   0.73263   0.00000  Uiso   1.00
O297   O     0.04239   0.41558   0.29349   0.00000  Uiso   1.00
O298   O     0.34127   0.19994   0.81110   0.00000  Uiso   1.00
O299   O     0.03037   0.25000   0.33755   0.00000  Uiso   1.00
O300   O     0.14604   0.31266   0.16916   0.00000  Uiso   1.00
O301   O     0.41997   0.46219   0.72514   0.00000  Uiso   1.00
O302   O     0.21378   0.17035   0.23247   0.00000  Uiso   1.00
O303   O     0.15642   0.30136   0.81443   0.00000  Uiso   1.00
O304   O     0.44034   0.10229   0.32764   0.00000  Uiso   1.00
O305   O     0.20788   0.16794   0.79011   0.00000  Uiso   1.00
O306   O     0.28098   0.33846   0.26093   0.00000  Uiso   1.00
O307   O     0.32738   0.28464   0.24668   0.00000  Uiso   1.00
O308   O     0.14722   0.18729   0.83032   0.00000  Uiso   1.00
O309   O     0.41708   0.04150   0.29011   0.00000  Uiso   1.00
O310   O     0.46964   0.25000   0.66245   0.00000  Uiso   1.00
O311   O     0.21295   0.33017   0.77223   0.00000  Uiso   1.00
O312   O     0.15841   0.20051   0.18923   0.00000  Uiso   1.00
O313   O     0.44724   0.40532   0.68306   0.00000  Uiso   1.00
O314   O     0.20761   0.33442   0.20651   0.00000  Uiso   1.00
O315   O     0.28673   0.17104   0.76601   0.00000  Uiso   1.00
O316   O     0.25000   0.03037   0.33755   0.00000  Uiso   1.00
Zn317  Zn    0.20660   0.00000   0.21735   0.00000  Uiso   1.00
Zn318  Zn    0.04341   0.25000   0.28265   0.00000  Uiso   1.00
Zn319  Zn    0.25000   0.45660   0.71735   0.00000  Uiso   1.00
Zn320  Zn    0.25000   0.04341   0.28265   0.00000  Uiso   1.00
Zn321  Zn    0.04341   0.25000   0.71735   0.00000  Uiso   1.00
Zn322  Zn    0.45660   0.25000   0.28265   0.00000  Uiso   1.00
Zn323  Zn    0.25000   0.04341   0.71735   0.00000  Uiso   1.00
Zn324  Zn    0.25000   0.45660   0.28265   0.00000  Uiso   1.00
Zn325  Zn    0.29341   0.00000   0.78265   0.00000  Uiso   1.00
Zn326  Zn    0.00000   0.20660   0.21735   0.00000  Uiso   1.00
Zn327  Zn    0.00000   0.29341   0.78265   0.00000  Uiso   1.00
Zn328  Zn    0.29341   0.00000   0.21735   0.00000  Uiso   1.00
Zn329  Zn    0.20660   0.00000   0.78265   0.00000  Uiso   1.00
Zn330  Zn    0.00000   0.29341   0.21735   0.00000  Uiso   1.00
Zn331  Zn    0.00000   0.20660   0.78265   0.00000  Uiso   1.00
Zn332  Zn    0.45660   0.25000   0.71735   0.00000  Uiso   1.00
C333   C     0.53328   0.25002   0.41886   0.00000  Uiso   1.00
C334   C     0.71672   0.49995   0.08114   0.00000  Uiso   1.00
C335   C     0.74987   0.46654   0.54070   0.00000  Uiso   1.00
C336   C     0.53351   0.25002   0.45933   0.00000  Uiso   1.00
C337   C     0.96650   0.24993   0.54067   0.00000  Uiso   1.00
C338   C     0.74987   0.46653   0.45931   0.00000  Uiso   1.00
C339   C     0.75004   0.03347   0.54069   0.00000  Uiso   1.00
C340   C     0.71651   0.49996   0.95928   0.00000  Uiso   1.00
C341   C     0.78349   0.00008   0.04072   0.00000  Uiso   1.00
C342   C     0.50014   0.28346   0.95930   0.00000  Uiso   1.00
C343   C     0.99997   0.21654   0.04070   0.00000  Uiso   1.00
C344   C     0.78350   0.00008   0.95933   0.00000  Uiso   1.00
C345   C     0.99997   0.21676   0.91884   0.00000  Uiso   1.00
C346   C     0.71650   0.49995   0.04067   0.00000  Uiso   1.00
C347   C     0.99998   0.21653   0.95931   0.00000  Uiso   1.00
C348   C     0.50014   0.28347   0.04069   0.00000  Uiso   1.00
C349   C     0.59820   0.34795   0.25020   0.00000  Uiso   1.00
C350   C     0.90181   0.15206   0.74969   0.00000  Uiso   1.00
C351   C     0.65173   0.09789   0.24965   0.00000  Uiso   1.00
C352   C     0.84798   0.40182   0.74975   0.00000  Uiso   1.00
C353   C     0.90202   0.15183   0.24974   0.00000  Uiso   1.00
C354   C     0.59822   0.34795   0.74964   0.00000  Uiso   1.00
C355   C     0.84820   0.40198   0.25028   0.00000  Uiso   1.00
C356   C     0.50013   0.28324   0.08116   0.00000  Uiso   1.00
C357   C     0.65188   0.09805   0.75004   0.00000  Uiso   1.00
C358   C     0.59800   0.15186   0.75003   0.00000  Uiso   1.00
C359   C     0.90180   0.34802   0.24972   0.00000  Uiso   1.00
C360   C     0.65176   0.40211   0.75030   0.00000  Uiso   1.00
C361   C     0.84798   0.09817   0.25026   0.00000  Uiso   1.00
C362   C     0.90202   0.34818   0.75025   0.00000  Uiso   1.00
C363   C     0.59827   0.15211   0.25035   0.00000  Uiso   1.00
C364   C     0.84824   0.09792   0.75023   0.00000  Uiso   1.00
C365   C     0.65181   0.40205   0.24981   0.00000  Uiso   1.00
C366   C     0.50000   0.24997   0.47964   0.00000  Uiso   1.00
C367   C     0.71674   0.49995   0.91882   0.00000  Uiso   1.00
C368   C     0.50000   0.24997   0.52036   0.00000  Uiso   1.00
C369   C     0.74995  -0.00000   0.47964   0.00000  Uiso   1.00
C370   C     0.74996   0.00000   0.52036   0.00000  Uiso   1.00
C371   C     0.75000   0.00002   0.97964   0.00000  Uiso   1.00
C372   C     0.75000   0.00002   0.02036   0.00000  Uiso   1.00
C373   C     0.50006   0.25000   0.97964   0.00000  Uiso   1.00
C374   C     0.50006   0.25000   0.02036   0.00000  Uiso   1.00
C375   C     0.61767   0.43958   0.29863   0.00000  Uiso   1.00
C376   C     0.89042   0.05286   0.71851   0.00000  Uiso   1.00
C377   C     0.55096   0.10860   0.27573   0.00000  Uiso   1.00
C378   C     0.78326   0.00008   0.08118   0.00000  Uiso   1.00
C379   C     0.85963   0.30242   0.78042   0.00000  Uiso   1.00
C380   C     0.80850   0.13395   0.20461   0.00000  Uiso   1.00
C381   C     0.61070   0.44625   0.71557   0.00000  Uiso   1.00
C382   C     0.95123   0.39374   0.26233   0.00000  Uiso   1.00
C383   C     0.55971   0.11684   0.70243   0.00000  Uiso   1.00
C384   C     0.61233   0.05532   0.71154   0.00000  Uiso   1.00
C385   C     0.89433   0.45112   0.26447   0.00000  Uiso   1.00
C386   C     0.55181   0.39069   0.72125   0.00000  Uiso   1.00
C387   C     0.86307   0.19417   0.21023   0.00000  Uiso   1.00
C388   C     0.80452   0.36167   0.78650   0.00000  Uiso   1.00
C389   C     0.50012   0.28323   0.91884   0.00000  Uiso   1.00
C390   C     0.60931   0.05272   0.28094   0.00000  Uiso   1.00
C391   C     0.94910   0.10855   0.72440   0.00000  Uiso   1.00
C392   C     0.55692   0.38557   0.29227   0.00000  Uiso   1.00
C393   C     0.85973   0.19699   0.78175   0.00000  Uiso   1.00
C394   C     0.63233   0.31042   0.20137   0.00000  Uiso   1.00
C395   C     0.89038   0.44758   0.71958   0.00000  Uiso   1.00
C396   C     0.69904   0.14140   0.22427   0.00000  Uiso   1.00
C397   C     0.63941   0.30375   0.78404   0.00000  Uiso   1.00
C398   C     0.94150   0.11605   0.29539   0.00000  Uiso   1.00
C399   C     0.69444   0.13740   0.78903   0.00000  Uiso   1.00
C400   C     0.99996   0.21677   0.08116   0.00000  Uiso   1.00
C401   C     0.79877   0.35626   0.23767   0.00000  Uiso   1.00
C402   C     0.85567   0.29888   0.23553   0.00000  Uiso   1.00
C403   C     0.63247   0.18950   0.79862   0.00000  Uiso   1.00
C404   C     0.88693   0.05583   0.28977   0.00000  Uiso   1.00
C405   C     0.69814   0.35942   0.77884   0.00000  Uiso   1.00
C406   C     0.64069   0.19729   0.21906   0.00000  Uiso   1.00
C407   C     0.94548   0.38832   0.71348   0.00000  Uiso   1.00
C408   C     0.69308   0.36443   0.20773   0.00000  Uiso   1.00
C409   C     0.80077   0.14183   0.77443   0.00000  Uiso   1.00
C410   C     0.50001   0.24998   0.39850   0.00000  Uiso   1.00
C411   C     0.99999   0.24998   0.60150   0.00000  Uiso   1.00
C412   C     0.74997  -0.00000   0.39850   0.00000  Uiso   1.00
C413   C     0.96672   0.24994   0.58114   0.00000  Uiso   1.00
C414   C     0.74998   0.00000   0.60150   0.00000  Uiso   1.00
C415   C     0.75001   0.00001   0.89850   0.00000  Uiso   1.00
C416   C     0.74999   0.00001   0.10150   0.00000  Uiso   1.00
C417   C     0.50003   0.25000   0.89850   0.00000  Uiso   1.00
C418   C     0.50003   0.25000   0.10150   0.00000  Uiso   1.00
C419   C     0.93336   0.24988   0.47972   0.00000  Uiso   1.00
C420   C     0.56664   0.25005   0.52028   0.00000  Uiso   1.00
C421   C     0.75012   0.06658   0.47976   0.00000  Uiso   1.00
C422   C     0.74978   0.43342   0.52024   0.00000  Uiso   1.00
C423   C     0.56665   0.25006   0.47981   0.00000  Uiso   1.00
C424   C     0.74988   0.46676   0.41884   0.00000  Uiso   1.00
C425   C     0.93335   0.24988   0.52019   0.00000  Uiso   1.00
C426   C     0.74978   0.43342   0.47977   0.00000  Uiso   1.00
C427   C     0.75012   0.06658   0.52023   0.00000  Uiso   1.00
C428   C     0.68336   0.49989   0.97972   0.00000  Uiso   1.00
C429   C     0.81664   0.00015   0.02028   0.00000  Uiso   1.00
C430   C     0.50023   0.31658   0.97976   0.00000  Uiso   1.00
C431   C     0.99990   0.18342   0.02024   0.00000  Uiso   1.00
C432   C     0.81665   0.00014   0.97981   0.00000  Uiso   1.00
C433   C     0.68335   0.49989   0.02019   0.00000  Uiso   1.00
C434   C     0.99990   0.18342   0.97977   0.00000  Uiso   1.00
C435   C     0.75005   0.03324   0.58116   0.00000  Uiso   1.00
C436   C     0.50023   0.31658   0.02023   0.00000  Uiso   1.00
C437   C     0.74999  -0.00000   0.35601   0.00000  Uiso   1.00
C438   C     0.75000   0.00000   0.64399   0.00000  Uiso   1.00
C439   C     0.50001   0.25000   0.35602   0.00000  Uiso   1.00
C440   C     0.99999   0.25000   0.64398   0.00000  Uiso   1.00
C441   C     0.50001   0.25000   0.85601   0.00000  Uiso   1.00
C442   C     0.50001   0.25000   0.14399   0.00000  Uiso   1.00
C443   C     0.75001   0.00000   0.85602   0.00000  Uiso   1.00
C444   C     0.74999   0.00000   0.14398   0.00000  Uiso   1.00
C445   C     0.67990   0.06982   0.25011   0.00000  Uiso   1.00
C446   C     0.96674   0.24993   0.41882   0.00000  Uiso   1.00
C447   C     0.81992   0.43000   0.75003   0.00000  Uiso   1.00
C448   C     0.93005   0.18005   0.24997   0.00000  Uiso   1.00
C449   C     0.57003   0.31988   0.75003   0.00000  Uiso   1.00
C450   C     0.82000   0.43006   0.25006   0.00000  Uiso   1.00
C451   C     0.68003   0.06995   0.75001   0.00000  Uiso   1.00
C452   C     0.56998   0.31992   0.25000   0.00000  Uiso   1.00
C453   C     0.92995   0.18014   0.75007   0.00000  Uiso   1.00
C454   C     0.67996   0.43015   0.74994   0.00000  Uiso   1.00
C455   C     0.81995   0.06995   0.25003   0.00000  Uiso   1.00
C456   C     0.93008   0.32000   0.74997   0.00000  Uiso   1.00
C457   C     0.53326   0.25002   0.58118   0.00000  Uiso   1.00
C458   C     0.57010   0.18018   0.24989   0.00000  Uiso   1.00
C459   C     0.82008   0.06984   0.74990   0.00000  Uiso   1.00
C460   C     0.68002   0.43008   0.25000   0.00000  Uiso   1.00
C461   C     0.56992   0.18001   0.74996   0.00000  Uiso   1.00
C462   C     0.93000   0.31994   0.24994   0.00000  Uiso   1.00
C463   C     0.62014   0.40708   0.27261   0.00000  Uiso   1.00
C464   C     0.88353   0.08941   0.73621   0.00000  Uiso   1.00
C465   C     0.58921   0.11664   0.26331   0.00000  Uiso   1.00
C466   C     0.86726   0.34003   0.76586   0.00000  Uiso   1.00
C467   C     0.84208   0.13058   0.22895   0.00000  Uiso   1.00
C468   C     0.75005   0.03323   0.41884   0.00000  Uiso   1.00
C469   C     0.61699   0.41017   0.73464   0.00000  Uiso   1.00
C470   C     0.91223   0.38489   0.25467   0.00000  Uiso   1.00
C471   C     0.59251   0.11977   0.72804   0.00000  Uiso   1.00
C472   C     0.61889   0.09170   0.72982   0.00000  Uiso   1.00
C473   C     0.88518   0.41224   0.25529   0.00000  Uiso   1.00
C474   C     0.58967   0.38298   0.73506   0.00000  Uiso   1.00
C475   C     0.86909   0.15811   0.22941   0.00000  Uiso   1.00
C476   C     0.84018   0.36742   0.76639   0.00000  Uiso   1.00
C477   C     0.61642   0.08940   0.26363   0.00000  Uiso   1.00
C478   C     0.91081   0.11663   0.73664   0.00000  Uiso   1.00
C479   C     0.74989   0.46677   0.58116   0.00000  Uiso   1.00
C480   C     0.59254   0.38012   0.27197   0.00000  Uiso   1.00
C481   C     0.86657   0.16054   0.76377   0.00000  Uiso   1.00
C482   C     0.62987   0.34292   0.22739   0.00000  Uiso   1.00
C483   C     0.88274   0.40997   0.73414   0.00000  Uiso   1.00
C484   C     0.66079   0.13336   0.23668   0.00000  Uiso   1.00
C485   C     0.63302   0.33989   0.76523   0.00000  Uiso   1.00
C486   C     0.90792   0.11943   0.27105   0.00000  Uiso   1.00
C487   C     0.65812   0.13090   0.77050   0.00000  Uiso   1.00
C488   C     0.83777   0.36511   0.24533   0.00000  Uiso   1.00
C489   C     0.86482   0.33776   0.24471   0.00000  Uiso   1.00
C490   C     0.78328   0.00007   0.91886   0.00000  Uiso   1.00
C491   C     0.62995   0.15717   0.77235   0.00000  Uiso   1.00
C492   C     0.88091   0.09189   0.27059   0.00000  Uiso   1.00
C493   C     0.66030   0.36710   0.76491   0.00000  Uiso   1.00
C494   C     0.63358   0.16061   0.23637   0.00000  Uiso   1.00
C495   C     0.90982   0.38257   0.73361   0.00000  Uiso   1.00
C496   C     0.65746   0.36988   0.22803   0.00000  Uiso   1.00
C497   C     0.83921   0.13342   0.76304   0.00000  Uiso   1.00
C498   C     0.96651   0.24992   0.45928   0.00000  Uiso   1.00
C499   C     0.53349   0.25001   0.54072   0.00000  Uiso   1.00
C500   C     0.75004   0.03346   0.45930   0.00000  Uiso   1.00
H501   H     0.90746   0.24984   0.46440   0.00000  Uiso   1.00
H502   H     0.84254   0.00020   0.03560   0.00000  Uiso   1.00
H503   H     0.50029   0.34245   0.96446   0.00000  Uiso   1.00
H504   H     0.99983   0.15755   0.03554   0.00000  Uiso   1.00
H505   H     0.84255   0.00019   0.96454   0.00000  Uiso   1.00
H506   H     0.65745   0.49984   0.03546   0.00000  Uiso   1.00
H507   H     0.99984   0.15755   0.96448   0.00000  Uiso   1.00
H508   H     0.50029   0.34245   0.03552   0.00000  Uiso   1.00
H509   H     0.55903   0.25006   0.40327   0.00000  Uiso   1.00
H510   H     0.94097   0.24991   0.59673   0.00000  Uiso   1.00
H511   H     0.74981   0.44104   0.40323   0.00000  Uiso   1.00
H512   H     0.59254   0.25009   0.53560   0.00000  Uiso   1.00
H513   H     0.75012   0.05896   0.59676   0.00000  Uiso   1.00
H514   H     0.94099   0.24990   0.40319   0.00000  Uiso   1.00
H515   H     0.55901   0.25005   0.59681   0.00000  Uiso   1.00
H516   H     0.75013   0.05896   0.40323   0.00000  Uiso   1.00
H517   H     0.74983   0.44104   0.59677   0.00000  Uiso   1.00
H518   H     0.80903   0.00012   0.90327   0.00000  Uiso   1.00
H519   H     0.69097   0.49990   0.09673   0.00000  Uiso   1.00
H520   H     0.99990   0.19104   0.90323   0.00000  Uiso   1.00
H521   H     0.50019   0.30896   0.09677   0.00000  Uiso   1.00
H522   H     0.69099   0.49990   0.90319   0.00000  Uiso   1.00
H523   H     0.75019   0.09245   0.46446   0.00000  Uiso   1.00
H524   H     0.80901   0.00013   0.09681   0.00000  Uiso   1.00
H525   H     0.50018   0.30896   0.90323   0.00000  Uiso   1.00
H526   H     0.99989   0.19104   0.09677   0.00000  Uiso   1.00
H527   H     0.62966   0.46542   0.28995   0.00000  Uiso   1.00
H528   H     0.87808   0.02855   0.73079   0.00000  Uiso   1.00
H529   H     0.53524   0.12916   0.29106   0.00000  Uiso   1.00
H530   H     0.88095   0.28696   0.79492   0.00000  Uiso   1.00
H531   H     0.78277   0.12263   0.21463   0.00000  Uiso   1.00
H532   H     0.62282   0.47089   0.72742   0.00000  Uiso   1.00
H533   H     0.96469   0.38244   0.28770   0.00000  Uiso   1.00
H534   H     0.74972   0.40755   0.53554   0.00000  Uiso   1.00
H535   H     0.53411   0.12951   0.71082   0.00000  Uiso   1.00
H536   H     0.63493   0.03998   0.69925   0.00000  Uiso   1.00
H537   H     0.87505   0.46779   0.28056   0.00000  Uiso   1.00
H538   H     0.53634   0.36966   0.70625   0.00000  Uiso   1.00
H539   H     0.88591   0.20895   0.19763   0.00000  Uiso   1.00
H540   H     0.77976   0.37392   0.77516   0.00000  Uiso   1.00
H541   H     0.62097   0.02841   0.26799   0.00000  Uiso   1.00
H542   H     0.96499   0.12912   0.70923   0.00000  Uiso   1.00
H543   H     0.54258   0.36244   0.30483   0.00000  Uiso   1.00
H544   H     0.87231   0.22134   0.76984   0.00000  Uiso   1.00
H545   H     0.59255   0.25009   0.46454   0.00000  Uiso   1.00
H546   H     0.62034   0.28458   0.21006   0.00000  Uiso   1.00
H547   H     0.86905   0.46306   0.70512   0.00000  Uiso   1.00
H548   H     0.71476   0.12084   0.20894   0.00000  Uiso   1.00
H549   H     0.62776   0.27912   0.77169   0.00000  Uiso   1.00
H550   H     0.96723   0.12736   0.28537   0.00000  Uiso   1.00
H551   H     0.71017   0.11470   0.80052   0.00000  Uiso   1.00
H552   H     0.78531   0.36756   0.21230   0.00000  Uiso   1.00
H553   H     0.87495   0.28221   0.21944   0.00000  Uiso   1.00
H554   H     0.61965   0.21512   0.79064   0.00000  Uiso   1.00
H555   H     0.86409   0.04105   0.30237   0.00000  Uiso   1.00
H556   H     0.90745   0.24985   0.53546   0.00000  Uiso   1.00
H557   H     0.71356   0.38046   0.79385   0.00000  Uiso   1.00
H558   H     0.62903   0.22159   0.23201   0.00000  Uiso   1.00
H559   H     0.97024   0.37608   0.72483   0.00000  Uiso   1.00
H560   H     0.70742   0.38756   0.19517   0.00000  Uiso   1.00
H561   H     0.78425   0.12139   0.78905   0.00000  Uiso   1.00
H562   H     0.74971   0.40755   0.46448   0.00000  Uiso   1.00
H563   H     0.75019   0.09245   0.53552   0.00000  Uiso   1.00
H564   H     0.65746   0.49985   0.96440   0.00000  Uiso   1.00
O565   O     0.75000   0.00000   0.25000   0.00000  Uiso   1.00
O566   O     0.75000   0.46964   0.66245   0.00000  Uiso   1.00
O567   O     0.96964   0.25000   0.33755   0.00000  Uiso   1.00
O568   O     0.53037   0.25000   0.66245   0.00000  Uiso   1.00
O569   O     0.50000   0.21964   0.83755   0.00000  Uiso   1.00
O570   O     0.50000   0.28037   0.16245   0.00000  Uiso   1.00
O571   O     0.78037   0.00000   0.83755   0.00000  Uiso   1.00
O572   O     0.71964   0.00000   0.16245   0.00000  Uiso   1.00
O573   O     0.50000   0.28037   0.83755   0.00000  Uiso   1.00
O574   O     0.50000   0.21964   0.16245   0.00000  Uiso   1.00
O575   O     0.71964   0.00000   0.83755   0.00000  Uiso   1.00
O576   O     0.75000   0.00000   0.75000   0.00000  Uiso   1.00
O577   O     0.78037   0.00000   0.16245   0.00000  Uiso   1.00
O578   O     0.70725   0.07308   0.27302   0.00000  Uiso   1.00
O579   O     0.79276   0.42693   0.72698   0.00000  Uiso   1.00
O580   O     0.92693   0.20725   0.27302   0.00000  Uiso   1.00
O581   O     0.57308   0.29276   0.72698   0.00000  Uiso   1.00
O582   O     0.79276   0.42693   0.27302   0.00000  Uiso   1.00
O583   O     0.70725   0.07308   0.72698   0.00000  Uiso   1.00
O584   O     0.57308   0.29276   0.27302   0.00000  Uiso   1.00
O585   O     0.92693   0.20725   0.72698   0.00000  Uiso   1.00
O586   O     0.70725   0.42693   0.72698   0.00000  Uiso   1.00
O587   O     0.50000   0.25000   0.25000   0.00000  Uiso   1.00
O588   O     0.79276   0.07308   0.27302   0.00000  Uiso   1.00
O589   O     0.92693   0.29276   0.72698   0.00000  Uiso   1.00
O590   O     0.57308   0.20725   0.27302   0.00000  Uiso   1.00
O591   O     0.79276   0.07308   0.72698   0.00000  Uiso   1.00
O592   O     0.70725   0.42693   0.27302   0.00000  Uiso   1.00
O593   O     0.57308   0.20725   0.72698   0.00000  Uiso   1.00
O594   O     0.92693   0.29276   0.27302   0.00000  Uiso   1.00
O595   O     0.95725   0.32308   0.77302   0.00000  Uiso   1.00
O596   O     0.54276   0.17693   0.22698   0.00000  Uiso   1.00
O597   O     0.67693   0.45725   0.77302   0.00000  Uiso   1.00
O598   O     0.50000   0.25000   0.75000   0.00000  Uiso   1.00
O599   O     0.82308   0.04276   0.22698   0.00000  Uiso   1.00
O600   O     0.54276   0.17693   0.77302   0.00000  Uiso   1.00
O601   O     0.95725   0.32308   0.22698   0.00000  Uiso   1.00
O602   O     0.82308   0.04276   0.77302   0.00000  Uiso   1.00
O603   O     0.67693   0.45725   0.22698   0.00000  Uiso   1.00
O604   O     0.95725   0.17693   0.22698   0.00000  Uiso   1.00
O605   O     0.54276   0.32308   0.77302   0.00000  Uiso   1.00
O606   O     0.67693   0.04276   0.22698   0.00000  Uiso   1.00
O607   O     0.82308   0.45725   0.77302   0.00000  Uiso   1.00
O608   O     0.54276   0.32308   0.22698   0.00000  Uiso   1.00
O609   O     0.75000   0.46964   0.33755   0.00000  Uiso   1.00
O610   O     0.95725   0.17693   0.77302   0.00000  Uiso   1.00
O611   O     0.82308   0.45725   0.22698   0.00000  Uiso   1.00
O612   O     0.67693   0.04276   0.77302   0.00000  Uiso   1.00
O613   O     0.60396   0.43734   0.33084   0.00000  Uiso   1.00
O614   O     0.90862   0.04977   0.68900   0.00000  Uiso   1.00
O615   O     0.53622   0.07965   0.26753   0.00000  Uiso   1.00
O616   O     0.83005   0.28779   0.77484   0.00000  Uiso   1.00
O617   O     0.80966   0.14772   0.17237   0.00000  Uiso   1.00
O618   O     0.59329   0.44855   0.68543   0.00000  Uiso   1.00
O619   O     0.96902   0.41154   0.23907   0.00000  Uiso   1.00
O620   O     0.75000   0.03037   0.66245   0.00000  Uiso   1.00
O621   O     0.56143   0.10177   0.67088   0.00000  Uiso   1.00
O622   O     0.58197   0.04139   0.71165   0.00000  Uiso   1.00
O623   O     0.92261   0.46536   0.25332   0.00000  Uiso   1.00
O624   O     0.53703   0.41993   0.72795   0.00000  Uiso   1.00
O625   O     0.83292   0.20850   0.20990   0.00000  Uiso   1.00
O626   O     0.80274   0.34465   0.81692   0.00000  Uiso   1.00
O627   O     0.59159   0.04950   0.31077   0.00000  Uiso   1.00
O628   O     0.96370   0.07956   0.73263   0.00000  Uiso   1.00
O629   O     0.54239   0.41558   0.29349   0.00000  Uiso   1.00
O630   O     0.84127   0.19994   0.81110   0.00000  Uiso   1.00
O631   O     0.53037   0.25000   0.33755   0.00000  Uiso   1.00
O632   O     0.64604   0.31266   0.16916   0.00000  Uiso   1.00
O633   O     0.91997   0.46219   0.72514   0.00000  Uiso   1.00
O634   O     0.71378   0.17035   0.23247   0.00000  Uiso   1.00
O635   O     0.65642   0.30136   0.81443   0.00000  Uiso   1.00
O636   O     0.94034   0.10229   0.32764   0.00000  Uiso   1.00
O637   O     0.70788   0.16794   0.79011   0.00000  Uiso   1.00
O638   O     0.78098   0.33846   0.26093   0.00000  Uiso   1.00
O639   O     0.82738   0.28464   0.24668   0.00000  Uiso   1.00
O640   O     0.64722   0.18729   0.83032   0.00000  Uiso   1.00
O641   O     0.91708   0.04150   0.29011   0.00000  Uiso   1.00
O642   O     0.96964   0.25000   0.66245   0.00000  Uiso   1.00
O643   O     0.71295   0.33017   0.77223   0.00000  Uiso   1.00
O644   O     0.65841   0.20051   0.18923   0.00000  Uiso   1.00
O645   O     0.94724   0.40532   0.68306   0.00000  Uiso   1.00
O646   O     0.70761   0.33442   0.20651   0.00000  Uiso   1.00
O647   O     0.78673   0.17104   0.76601   0.00000  Uiso   1.00
O648   O     0.75000   0.03037   0.33755   0.00000  Uiso   1.00
Zn649  Zn    0.70660   0.00000   0.21735   0.00000  Uiso   1.00
Zn650  Zn    0.54341   0.25000   0.28265   0.00000  Uiso   1.00
Zn651  Zn    0.75000   0.45660   0.71735   0.00000  Uiso   1.00
Zn652  Zn    0.75000   0.04341   0.28265   0.00000  Uiso   1.00
Zn653  Zn    0.54341   0.25000   0.71735   0.00000  Uiso   1.00
Zn654  Zn    0.95660   0.25000   0.28265   0.00000  Uiso   1.00
Zn655  Zn    0.75000   0.04341   0.71735   0.00000  Uiso   1.00
Zn656  Zn    0.75000   0.45660   0.28265   0.00000  Uiso   1.00
Zn657  Zn    0.79341   0.00000   0.78265   0.00000  Uiso   1.00
Zn658  Zn    0.50000   0.20660   0.21735   0.00000  Uiso   1.00
Zn659  Zn    0.50000   0.29341   0.78265   0.00000  Uiso   1.00
Zn660  Zn    0.79341   0.00000   0.21735   0.00000  Uiso   1.00
Zn661  Zn    0.70660   0.00000   0.78265   0.00000  Uiso   1.00
Zn662  Zn    0.50000   0.29341   0.21735   0.00000  Uiso   1.00
Zn663  Zn    0.50000   0.20660   0.78265   0.00000  Uiso   1.00
Zn664  Zn    0.95660   0.25000   0.71735   0.00000  Uiso   1.00
C665   C     0.03328   0.75002   0.41886   0.00000  Uiso   1.00
C666   C     0.21672   0.99995   0.08114   0.00000  Uiso   1.00
C667   C     0.24987   0.96654   0.54070   0.00000  Uiso   1.00
C668   C     0.03351   0.75002   0.45933   0.00000  Uiso   1.00
C669   C     0.46650   0.74993   0.54067   0.00000  Uiso   1.00
C670   C     0.24987   0.96653   0.45931   0.00000  Uiso   1.00
C671   C     0.25004   0.53347   0.54069   0.00000  Uiso   1.00
C672   C     0.21651   0.99996   0.95928   0.00000  Uiso   1.00
C673   C     0.28349   0.50008   0.04072   0.00000  Uiso   1.00
C674   C     0.00014   0.78346   0.95930   0.00000  Uiso   1.00
C675   C     0.49997   0.71654   0.04070   0.00000  Uiso   1.00
C676   C     0.28350   0.50008   0.95933   0.00000  Uiso   1.00
C677   C     0.49997   0.71676   0.91884   0.00000  Uiso   1.00
C678   C     0.21650   0.99995   0.04067   0.00000  Uiso   1.00
C679   C     0.49998   0.71653   0.95931   0.00000  Uiso   1.00
C680   C     0.00014   0.78347   0.04069   0.00000  Uiso   1.00
C681   C     0.09820   0.84795   0.25020   0.00000  Uiso   1.00
C682   C     0.40181   0.65206   0.74969   0.00000  Uiso   1.00
C683   C     0.15173   0.59789   0.24965   0.00000  Uiso   1.00
C684   C     0.34798   0.90182   0.74975   0.00000  Uiso   1.00
C685   C     0.40202   0.65183   0.24974   0.00000  Uiso   1.00
C686   C     0.09822   0.84795   0.74964   0.00000  Uiso   1.00
C687   C     0.34820   0.90198   0.25028   0.00000  Uiso   1.00
C688   C     0.00013   0.78324   0.08116   0.00000  Uiso   1.00
C689   C     0.15188   0.59805   0.75004   0.00000  Uiso   1.00
C690   C     0.09800   0.65186   0.75003   0.00000  Uiso   1.00
C691   C     0.40180   0.84802   0.24972   0.00000  Uiso   1.00
C692   C     0.15176   0.90211   0.75030   0.00000  Uiso   1.00
C693   C     0.34798   0.59817   0.25026   0.00000  Uiso   1.00
C694   C     0.40202   0.84818   0.75025   0.00000  Uiso   1.00
C695   C     0.09827   0.65211   0.25035   0.00000  Uiso   1.00
C696   C     0.34824   0.59792   0.75023   0.00000  Uiso   1.00
C697   C     0.15181   0.90205   0.24981   0.00000  Uiso   1.00
C698   C     0.00000   0.74997   0.47964   0.00000  Uiso   1.00
C699   C     0.21674   0.99995   0.91882   0.00000  Uiso   1.00
C700   C    -0.00000   0.74997   0.52036   0.00000  Uiso   1.00
C701   C     0.24995   0.50000   0.47964   0.00000  Uiso   1.00
C702   C     0.24996   0.50000   0.52036   0.00000  Uiso   1.00
C703   C     0.25000   0.50002   0.97964   0.00000  Uiso   1.00
C704   C     0.25000   0.50002   0.02036   0.00000  Uiso   1.00
C705   C     0.00006   0.75000   0.97964   0.00000  Uiso   1.00
C706   C     0.00006   0.75000   0.02036   0.00000  Uiso   1.00
C707   C     0.11767   0.93958   0.29863   0.00000  Uiso   1.00
C708   C     0.39042   0.55286   0.71851   0.00000  Uiso   1.00
C709   C     0.05096   0.60860   0.27573   0.00000  Uiso   1.00
C710   C     0.28326   0.50008   0.08118   0.00000  Uiso   1.00
C711   C     0.35963   0.80242   0.78042   0.00000  Uiso   1.00
C712   C     0.30850   0.63395   0.20461   0.00000  Uiso   1.00
C713   C     0.11070   0.94625   0.71557   0.00000  Uiso   1.00
C714   C     0.45123   0.89374   0.26233   0.00000  Uiso   1.00
C715   C     0.05971   0.61684   0.70243   0.00000  Uiso   1.00
C716   C     0.11233   0.55532   0.71154   0.00000  Uiso   1.00
C717   C     0.39433   0.95112   0.26447   0.00000  Uiso   1.00
C718   C     0.05181   0.89069   0.72125   0.00000  Uiso   1.00
C719   C     0.36307   0.69417   0.21023   0.00000  Uiso   1.00
C720   C     0.30452   0.86167   0.78650   0.00000  Uiso   1.00
C721   C     0.00012   0.78323   0.91884   0.00000  Uiso   1.00
C722   C     0.10931   0.55272   0.28094   0.00000  Uiso   1.00
C723   C     0.44910   0.60855   0.72440   0.00000  Uiso   1.00
C724   C     0.05692   0.88557   0.29227   0.00000  Uiso   1.00
C725   C     0.35973   0.69699   0.78175   0.00000  Uiso   1.00
C726   C     0.13233   0.81042   0.20137   0.00000  Uiso   1.00
C727   C     0.39038   0.94758   0.71958   0.00000  Uiso   1.00
C728   C     0.19904   0.64140   0.22427   0.00000  Uiso   1.00
C729   C     0.13941   0.80375   0.78404   0.00000  Uiso   1.00
C730   C     0.44150   0.61605   0.29539   0.00000  Uiso   1.00
C731   C     0.19444   0.63740   0.78903   0.00000  Uiso   1.00
C732   C     0.49996   0.71677   0.08116   0.00000  Uiso   1.00
C733   C     0.29877   0.85626   0.23767   0.00000  Uiso   1.00
C734   C     0.35567   0.79888   0.23553   0.00000  Uiso   1.00
C735   C     0.13247   0.68950   0.79862   0.00000  Uiso   1.00
C736   C     0.38693   0.55583   0.28977   0.00000  Uiso   1.00
C737   C     0.19814   0.85942   0.77884   0.00000  Uiso   1.00
C738   C     0.14069   0.69729   0.21906   0.00000  Uiso   1.00
C739   C     0.44548   0.88832   0.71348   0.00000  Uiso   1.00
C740   C     0.19308   0.86443   0.20773   0.00000  Uiso   1.00
C741   C     0.30077   0.64183   0.77443   0.00000  Uiso   1.00
C742   C     0.00001   0.74998   0.39850   0.00000  Uiso   1.00
C743   C     0.49999   0.74998   0.60150   0.00000  Uiso   1.00
C744   C     0.24997   0.50000   0.39850   0.00000  Uiso   1.00
C745   C     0.46672   0.74994   0.58114   0.00000  Uiso   1.00
C746   C     0.24998   0.50000   0.60150   0.00000  Uiso   1.00
C747   C     0.25001   0.50001   0.89850   0.00000  Uiso   1.00
C748   C     0.24999   0.50001   0.10150   0.00000  Uiso   1.00
C749   C     0.00003   0.75000   0.89850   0.00000  Uiso   1.00
C750   C     0.00003   0.75000   0.10150   0.00000  Uiso   1.00
C751   C     0.43336   0.74988   0.47972   0.00000  Uiso   1.00
C752   C     0.06664   0.75005   0.52028   0.00000  Uiso   1.00
C753   C     0.25012   0.56658   0.47976   0.00000  Uiso   1.00
C754   C     0.24978   0.93342   0.52024   0.00000  Uiso   1.00
C755   C     0.06665   0.75006   0.47981   0.00000  Uiso   1.00
C756   C     0.24988   0.96676   0.41884   0.00000  Uiso   1.00
C757   C     0.43335   0.74988   0.52019   0.00000  Uiso   1.00
C758   C     0.24978   0.93342   0.47977   0.00000  Uiso   1.00
C759   C     0.25012   0.56658   0.52023   0.00000  Uiso   1.00
C760   C     0.18336   0.99989   0.97972   0.00000  Uiso   1.00
C761   C     0.31664   0.50015   0.02028   0.00000  Uiso   1.00
C762   C     0.00023   0.81658   0.97976   0.00000  Uiso   1.00
C763   C     0.49990   0.68342   0.02024   0.00000  Uiso   1.00
C764   C     0.31665   0.50014   0.97981   0.00000  Uiso   1.00
C765   C     0.18335   0.99989   0.02019   0.00000  Uiso   1.00
C766   C     0.49990   0.68342   0.97977   0.00000  Uiso   1.00
C767   C     0.25005   0.53324   0.58116   0.00000  Uiso   1.00
C768   C     0.00023   0.81658   0.02023   0.00000  Uiso   1.00
C769   C     0.24999   0.50000   0.35601   0.00000  Uiso   1.00
C770   C     0.25000   0.50000   0.64399   0.00000  Uiso   1.00
C771   C     0.00001   0.75000   0.35602   0.00000  Uiso   1.00
C772   C     0.49999   0.75000   0.64398   0.00000  Uiso   1.00
C773   C     0.00001   0.75000   0.85601   0.00000  Uiso   1.00
C774   C     0.00001   0.75000   0.14399   0.00000  Uiso   1.00
C775   C     0.25001   0.50000   0.85602   0.00000  Uiso   1.00
C776   C     0.24999   0.50000   0.14398   0.00000  Uiso   1.00
C777   C     0.17990   0.56982   0.25011   0.00000  Uiso   1.00
C778   C     0.46674   0.74993   0.41882   0.00000  Uiso   1.00
C779   C     0.31992   0.93000   0.75003   0.00000  Uiso   1.00
C780   C     0.43005   0.68005   0.24997   0.00000  Uiso   1.00
C781   C     0.07003   0.81988   0.75003   0.00000  Uiso   1.00
C782   C     0.32000   0.93006   0.25006   0.00000  Uiso   1.00
C783   C     0.18003   0.56995   0.75001   0.00000  Uiso   1.00
C784   C     0.06998   0.81992   0.25000   0.00000  Uiso   1.00
C785   C     0.42995   0.68014   0.75007   0.00000  Uiso   1.00
C786   C     0.17996   0.93015   0.74994   0.00000  Uiso   1.00
C787   C     0.31995   0.56995   0.25003   0.00000  Uiso   1.00
C788   C     0.43008   0.82000   0.74997   0.00000  Uiso   1.00
C789   C     0.03326   0.75002   0.58118   0.00000  Uiso   1.00
C790   C     0.07010   0.68018   0.24989   0.00000  Uiso   1.00
C791   C     0.32008   0.56984   0.74990   0.00000  Uiso   1.00
C792   C     0.18002   0.93008   0.25000   0.00000  Uiso   1.00
C793   C     0.06992   0.68001   0.74996   0.00000  Uiso   1.00
C794   C     0.43000   0.81994   0.24994   0.00000  Uiso   1.00
C795   C     0.12014   0.90708   0.27261   0.00000  Uiso   1.00
C796   C     0.38353   0.58941   0.73621   0.00000  Uiso   1.00
C797   C     0.08921   0.61664   0.26331   0.00000  Uiso   1.00
C798   C     0.36726   0.84003   0.76586   0.00000  Uiso   1.00
C799   C     0.34208   0.63058   0.22895   0.00000  Uiso   1.00
C800   C     0.25005   0.53323   0.41884   0.00000  Uiso   1.00
C801   C     0.11699   0.91017   0.73464   0.00000  Uiso   1.00
C802   C     0.41223   0.88489   0.25467   0.00000  Uiso   1.00
C803   C     0.09251   0.61977   0.72804   0.00000  Uiso   1.00
C804   C     0.11889   0.59170   0.72982   0.00000  Uiso   1.00
C805   C     0.38518   0.91224   0.25529   0.00000  Uiso   1.00
C806   C     0.08967   0.88298   0.73506   0.00000  Uiso   1.00
C807   C     0.36909   0.65811   0.22941   0.00000  Uiso   1.00
C808   C     0.34018   0.86742   0.76639   0.00000  Uiso   1.00
C809   C     0.11642   0.58940   0.26363   0.00000  Uiso   1.00
C810   C     0.41081   0.61663   0.73664   0.00000  Uiso   1.00
C811   C     0.24989   0.96677   0.58116   0.00000  Uiso   1.00
C812   C     0.09254   0.88012   0.27197   0.00000  Uiso   1.00
C813   C     0.36657   0.66054   0.76377   0.00000  Uiso   1.00
C814   C     0.12987   0.84292   0.22739   0.00000  Uiso   1.00
C815   C     0.38274   0.90997   0.73414   0.00000  Uiso   1.00
C816   C     0.16079   0.63336   0.23668   0.00000  Uiso   1.00
C817   C     0.13302   0.83989   0.76523   0.00000  Uiso   1.00
C818   C     0.40792   0.61943   0.27105   0.00000  Uiso   1.00
C819   C     0.15812   0.63090   0.77050   0.00000  Uiso   1.00
C820   C     0.33777   0.86511   0.24533   0.00000  Uiso   1.00
C821   C     0.36482   0.83776   0.24471   0.00000  Uiso   1.00
C822   C     0.28328   0.50007   0.91886   0.00000  Uiso   1.00
C823   C     0.12995   0.65717   0.77235   0.00000  Uiso   1.00
C824   C     0.38091   0.59189   0.27059   0.00000  Uiso   1.00
C825   C     0.16030   0.86710   0.76491   0.00000  Uiso   1.00
C826   C     0.13358   0.66061   0.23637   0.00000  Uiso   1.00
C827   C     0.40982   0.88257   0.73361   0.00000  Uiso   1.00
C828   C     0.15746   0.86988   0.22803   0.00000  Uiso   1.00
C829   C     0.33921   0.63342   0.76304   0.00000  Uiso   1.00
C830   C     0.46651   0.74992   0.45928   0.00000  Uiso   1.00
C831   C     0.03349   0.75001   0.54072   0.00000  Uiso   1.00
C832   C     0.25004   0.53346   0.45930   0.00000  Uiso   1.00
H833   H     0.40746   0.74984   0.46440   0.00000  Uiso   1.00
H834   H     0.34254   0.50020   0.03560   0.00000  Uiso   1.00
H835   H     0.00029   0.84245   0.96446   0.00000  Uiso   1.00
H836   H     0.49983   0.65755   0.03554   0.00000  Uiso   1.00
H837   H     0.34255   0.50019   0.96454   0.00000  Uiso   1.00
H838   H     0.15745   0.99984   0.03546   0.00000  Uiso   1.00
H839   H     0.49984   0.65755   0.96448   0.00000  Uiso   1.00
H840   H     0.00029   0.84245   0.03552   0.00000  Uiso   1.00
H841   H     0.05903   0.75006   0.40327   0.00000  Uiso   1.00
H842   H     0.44097   0.74991   0.59673   0.00000  Uiso   1.00
H843   H     0.24981   0.94104   0.40323   0.00000  Uiso   1.00
H844   H     0.09254   0.75009   0.53560   0.00000  Uiso   1.00
H845   H     0.25012   0.55896   0.59676   0.00000  Uiso   1.00
H846   H     0.44099   0.74990   0.40319   0.00000  Uiso   1.00
H847   H     0.05901   0.75005   0.59681   0.00000  Uiso   1.00
H848   H     0.25013   0.55896   0.40323   0.00000  Uiso   1.00
H849   H     0.24983   0.94104   0.59677   0.00000  Uiso   1.00
H850   H     0.30903   0.50012   0.90327   0.00000  Uiso   1.00
H851   H     0.19097   0.99990   0.09673   0.00000  Uiso   1.00
H852   H     0.49990   0.69104   0.90323   0.00000  Uiso   1.00
H853   H     0.00019   0.80896   0.09677   0.00000  Uiso   1.00
H854   H     0.19099   0.99990   0.90319   0.00000  Uiso   1.00
H855   H     0.25019   0.59245   0.46446   0.00000  Uiso   1.00
H856   H     0.30901   0.50013   0.09681   0.00000  Uiso   1.00
H857   H     0.00018   0.80896   0.90323   0.00000  Uiso   1.00
H858   H     0.49989   0.69104   0.09677   0.00000  Uiso   1.00
H859   H     0.12966   0.96542   0.28995   0.00000  Uiso   1.00
H860   H     0.37808   0.52855   0.73079   0.00000  Uiso   1.00
H861   H     0.03524   0.62916   0.29106   0.00000  Uiso   1.00
H862   H     0.38095   0.78696   0.79492   0.00000  Uiso   1.00
H863   H     0.28277   0.62263   0.21463   0.00000  Uiso   1.00
H864   H     0.12282   0.97089   0.72742   0.00000  Uiso   1.00
H865   H     0.46469   0.88244   0.28770   0.00000  Uiso   1.00
H866   H     0.24972   0.90755   0.53554   0.00000  Uiso   1.00
H867   H     0.03411   0.62951   0.71082   0.00000  Uiso   1.00
H868   H     0.13493   0.53998   0.69925   0.00000  Uiso   1.00
H869   H     0.37505   0.96779   0.28056   0.00000  Uiso   1.00
H870   H     0.03634   0.86966   0.70625   0.00000  Uiso   1.00
H871   H     0.38591   0.70895   0.19763   0.00000  Uiso   1.00
H872   H     0.27976   0.87392   0.77516   0.00000  Uiso   1.00
H873   H     0.12097   0.52841   0.26799   0.00000  Uiso   1.00
H874   H     0.46499   0.62912   0.70923   0.00000  Uiso   1.00
H875   H     0.04258   0.86244   0.30483   0.00000  Uiso   1.00
H876   H     0.37231   0.72134   0.76984   0.00000  Uiso   1.00
H877   H     0.09255   0.75009   0.46454   0.00000  Uiso   1.00
H878   H     0.12034   0.78458   0.21006   0.00000  Uiso   1.00
H879   H     0.36905   0.96306   0.70512   0.00000  Uiso   1.00
H880   H     0.21476   0.62084   0.20894   0.00000  Uiso   1.00
H881   H     0.12776   0.77912   0.77169   0.00000  Uiso   1.00
H882   H     0.46723   0.62736   0.28537   0.00000  Uiso   1.00
H883   H     0.21017   0.61470   0.80052   0.00000  Uiso   1.00
H884   H     0.28531   0.86756   0.21230   0.00000  Uiso   1.00
H885   H     0.37495   0.78221   0.21944   0.00000  Uiso   1.00
H886   H     0.11965   0.71512   0.79064   0.00000  Uiso   1.00
H887   H     0.36409   0.54105   0.30237   0.00000  Uiso   1.00
H888   H     0.40745   0.74985   0.53546   0.00000  Uiso   1.00
H889   H     0.21356   0.88046   0.79385   0.00000  Uiso   1.00
H890   H     0.12903   0.72159   0.23201   0.00000  Uiso   1.00
H891   H     0.47024   0.87608   0.72483   0.00000  Uiso   1.00
H892   H     0.20742   0.88756   0.19517   0.00000  Uiso   1.00
H893   H     0.28425   0.62139   0.78905   0.00000  Uiso   1.00
H894   H     0.24971   0.90755   0.46448   0.00000  Uiso   1.00
H895   H     0.25019   0.59245   0.53552   0.00000  Uiso   1.00
H896   H     0.15746   0.99985   0.96440   0.00000  Uiso   1.00
O897   O     0.25000   0.50000   0.25000   0.00000  Uiso   1.00
O898   O     0.25000   0.96964   0.66245   0.00000  Uiso   1.00
O899   O     0.46964   0.75000   0.33755   0.00000  Uiso   1.00
O900   O     0.03037   0.75000   0.66245   0.00000  Uiso   1.00
O901   O     0.00000   0.71964   0.83755   0.00000  Uiso   1.00
O902   O     0.00000   0.78037   0.16245   0.00000  Uiso   1.00
O903   O     0.28037   0.50000   0.83755   0.00000  Uiso   1.00
O904   O     0.21964   0.50000   0.16245   0.00000  Uiso   1.00
O905   O     0.00000   0.78037   0.83755   0.00000  Uiso   1.00
O906   O     0.00000   0.71964   0.16245   0.00000  Uiso   1.00
O907   O     0.21964   0.50000   0.83755   0.00000  Uiso   1.00
O908   O     0.25000   0.50000   0.75000   0.00000  Uiso   1.00
O909   O     0.28037   0.50000   0.16245   0.00000  Uiso   1.00
O910   O     0.20725   0.57308   0.27302   0.00000  Uiso   1.00
O911   O     0.29276   0.92693   0.72698   0.00000  Uiso   1.00
O912   O     0.42693   0.70725   0.27302   0.00000  Uiso   1.00
O913   O     0.07308   0.79276   0.72698   0.00000  Uiso   1.00
O914   O     0.29276   0.92693   0.27302   0.00000  Uiso   1.00
O915   O     0.20725   0.57308   0.72698   0.00000  Uiso   1.00
O916   O     0.07308   0.79276   0.27302   0.00000  Uiso   1.00
O917   O     0.42693   0.70725   0.72698   0.00000  Uiso   1.00
O918   O     0.20725   0.92693   0.72698   0.00000  Uiso   1.00
O919   O     0.00000   0.75000   0.25000   0.00000  Uiso   1.00
O920   O     0.29276   0.57308   0.27302   0.00000  Uiso   1.00
O921   O     0.42693   0.79276   0.72698   0.00000  Uiso   1.00
O922   O     0.07308   0.70725   0.27302   0.00000  Uiso   1.00
O923   O     0.29276   0.57308   0.72698   0.00000  Uiso   1.00
O924   O     0.20725   0.92693   0.27302   0.00000  Uiso   1.00
O925   O     0.07308   0.70725   0.72698   0.00000  Uiso   1.00
O926   O     0.42693   0.79276   0.27302   0.00000  Uiso   1.00
O927   O     0.45725   0.82308   0.77302   0.00000  Uiso   1.00
O928   O     0.04276   0.67693   0.22698   0.00000  Uiso   1.00
O929   O     0.17693   0.95725   0.77302   0.00000  Uiso   1.00
O930   O     0.00000   0.75000   0.75000   0.00000  Uiso   1.00
O931   O     0.32308   0.54276   0.22698   0.00000  Uiso   1.00
O932   O     0.04276   0.67693   0.77302   0.00000  Uiso   1.00
O933   O     0.45725   0.82308   0.22698   0.00000  Uiso   1.00
O934   O     0.32308   0.54276   0.77302   0.00000  Uiso   1.00
O935   O     0.17693   0.95725   0.22698   0.00000  Uiso   1.00
O936   O     0.45725   0.67693   0.22698   0.00000  Uiso   1.00
O937   O     0.04276   0.82308   0.77302   0.00000  Uiso   1.00
O938   O     0.17693   0.54276   0.22698   0.00000  Uiso   1.00
O939   O     0.32308   0.95725   0.77302   0.00000  Uiso   1.00
O940   O     0.04276   0.82308   0.22698   0.00000  Uiso   1.00
O941   O     0.25000   0.96964   0.33755   0.00000  Uiso   1.00
O942   O     0.45725   0.67693   0.77302   0.00000  Uiso   1.00
O943   O     0.32308   0.95725   0.22698   0.00000  Uiso   1.00
O944   O     0.17693   0.54276   0.77302   0.00000  Uiso   1.00
O945   O     0.10396   0.93734   0.33084   0.00000  Uiso   1.00
O946   O     0.40862   0.54977   0.68900   0.00000  Uiso   1.00
O947   O     0.03622   0.57965   0.26753   0.00000  Uiso   1.00
O948   O     0.33005   0.78779   0.77484   0.00000  Uiso   1.00
O949   O     0.30966   0.64772   0.17237   0.00000  Uiso   1.00
O950   O     0.09329   0.94855   0.68543   0.00000  Uiso   1.00
O951   O     0.46902   0.91154   0.23907   0.00000  Uiso   1.00
O952   O     0.25000   0.53037   0.66245   0.00000  Uiso   1.00
O953   O     0.06143   0.60177   0.67088   0.00000  Uiso   1.00
O954   O     0.08197   0.54139   0.71165   0.00000  Uiso   1.00
O955   O     0.42261   0.96536   0.25332   0.00000  Uiso   1.00
O956   O     0.03703   0.91993   0.72795   0.00000  Uiso   1.00
O957   O     0.33292   0.70850   0.20990   0.00000  Uiso   1.00
O958   O     0.30274   0.84465   0.81692   0.00000  Uiso   1.00
O959   O     0.09159   0.54950   0.31077   0.00000  Uiso   1.00
O960   O     0.46370   0.57956   0.73263   0.00000  Uiso   1.00
O961   O     0.04239   0.91558   0.29349   0.00000  Uiso   1.00
O962   O     0.34127   0.69994   0.81110   0.00000  Uiso   1.00
O963   O     0.03037   0.75000   0.33755   0.00000  Uiso   1.00
O964   O     0.14604   0.81266   0.16916   0.00000  Uiso   1.00
O965   O     0.41997   0.96219   0.72514   0.00000  Uiso   1.00
O966   O     0.21378   0.67035   0.23247   0.00000  Uiso   1.00
O967   O     0.15642   0.80136   0.81443   0.00000  Uiso   1.00
O968   O     0.44034   0.60229   0.32764   0.00000  Uiso   1.00
O969   O     0.20788   0.66794   0.79011   0.00000  Uiso   1.00
O970   O     0.28098   0.83846   0.26093   0.00000  Uiso   1.00
O971   O     0.32738   0.78464   0.24668   0.00000  Uiso   1.00
O972   O     0.14722   0.68729   0.83032   0.00000  Uiso   1.00
O973   O     0.41708   0.54150   0.29011   0.00000  Uiso   1.00
O974   O     0.46964   0.75000   0.66245   0.00000  Uiso   1.00
O975   O     0.21295   0.83017   0.77223   0.00000  Uiso   1.00
O976   O     0.15841   0.70051   0.18923   0.00000  Uiso   1.00
O977   O     0.44724   0.90532   0.68306   0.00000  Uiso   1.00
O978   O     0.20761   0.83442   0.20651   0.00000  Uiso   1.00
O979   O     0.28673   0.67104   0.76601   0.00000  Uiso   1.00
O980   O     0.25000   0.53037   0.33755   0.00000  Uiso   1.00
Zn981  Zn    0.20660   0.50000   0.21735   0.00000  Uiso   1.00
Zn982  Zn    0.04341   0.75000   0.28265   0.00000  Uiso   1.00
Zn983  Zn    0.25000   0.95660   0.71735   0.00000  Uiso   1.00
Zn984  Zn    0.25000   0.54341   0.28265   0.00000  Uiso   1.00
Zn985  Zn    0.04341   0.75000   0.71735   0.00000  Uiso   1.00
Zn986  Zn    0.45660   0.75000   0.28265   0.00000  Uiso   1.00
Zn987  Zn    0.25000   0.54341   0.71735   0.00000  Uiso   1.00
Zn988  Zn    0.25000   0.95660   0.28265   0.00000  Uiso   1.00
Zn989  Zn    0.29341   0.50000   0.78265   0.00000  Uiso   1.00
Zn990  Zn    0.00000   0.70660   0.21735   0.00000  Uiso   1.00
Zn991  Zn    0.00000   0.79341   0.78265   0.00000  Uiso   1.00
Zn992  Zn    0.29341   0.50000   0.21735   0.00000  Uiso   1.00
Zn993  Zn    0.20660   0.50000   0.78265   0.00000  Uiso   1.00
Zn994  Zn    0.00000   0.79341   0.21735   0.00000  Uiso   1.00
Zn995  Zn    0.00000   0.70660   0.78265   0.00000  Uiso   1.00
Zn996  Zn    0.45660   0.75000   0.71735   0.00000  Uiso   1.00
C997   C     0.53328   0.75002   0.41886   0.00000  Uiso   1.00
C998   C     0.71672   0.99995   0.08114   0.00000  Uiso   1.00
C999   C     0.74987   0.96654   0.54070   0.00000  Uiso   1.00
C1000  C     0.53351   0.75002   0.45933   0.00000  Uiso   1.00
C1001  C     0.96650   0.74993   0.54067   0.00000  Uiso   1.00
C1002  C     0.74987   0.96653   0.45931   0.00000  Uiso   1.00
C1003  C     0.75004   0.53347   0.54069   0.00000  Uiso   1.00
C1004  C     0.71651   0.99996   0.95928   0.00000  Uiso   1.00
C1005  C     0.78349   0.50008   0.04072   0.00000  Uiso   1.00
C1006  C     0.50014   0.78346   0.95930   0.00000  Uiso   1.00
C1007  C     0.99997   0.71654   0.04070   0.00000  Uiso   1.00
C1008  C     0.78350   0.50008   0.95933   0.00000  Uiso   1.00
C1009  C     0.99997   0.71676   0.91884   0.00000  Uiso   1.00
C1010  C     0.71650   0.99995   0.04067   0.00000  Uiso   1.00
C1011  C     0.99998   0.71653   0.95931   0.00000  Uiso   1.00
C1012  C     0.50014   0.78347   0.04069   0.00000  Uiso   1.00
C1013  C     0.59820   0.84795   0.25020   0.00000  Uiso   1.00
C1014  C     0.90181   0.65206   0.74969   0.00000  Uiso   1.00
C1015  C     0.65173   0.59789   0.24965   0.00000  Uiso   1.00
C1016  C     0.84798   0.90182   0.74975   0.00000  Uiso   1.00
C1017  C     0.90202   0.65183   0.24974   0.00000  Uiso   1.00
C1018  C     0.59822   0.84795   0.74964   0.00000  Uiso   1.00
C1019  C     0.84820   0.90198   0.25028   0.00000  Uiso   1.00
C1020  C     0.50013   0.78324   0.08116   0.00000  Uiso   1.00
C1021  C     0.65188   0.59805   0.75004   0.00000  Uiso   1.00
C1022  C     0.59800   0.65186   0.75003   0.00000  Uiso   1.00
C1023  C     0.90180   0.84802   0.24972   0.00000  Uiso   1.00
C1024  C     0.65176   0.90211   0.75030   0.00000  Uiso   1.00
C1025  C     0.84798   0.59817   0.25026   0.00000  Uiso   1.00
C1026  C     0.90202   0.84818   0.75025   0.00000  Uiso   1.00
C1027  C     0.59827   0.65211   0.25035   0.00000  Uiso   1.00
C1028  C     0.84824   0.59792   0.75023   0.00000  Uiso   1.00
C1029  C     0.65181   0.90205   0.24981   0.00000  Uiso   1.00
C1030  C     0.50000   0.74997   0.47964   0.00000  Uiso   1.00
C1031  C     0.71674   0.99995   0.91882   0.00000  Uiso   1.00
C1032  C     0.50000   0.74997   0.52036   0.00000  Uiso   1.00
C1033  C     0.74995   0.50000   0.47964   0.00000  Uiso   1.00
C1034  C     0.74996   0.50000   0.52036   0.00000  Uiso   1.00
C1035  C     0.75000   0.50002   0.97964   0.00000  Uiso   1.00
C1036  C     0.75000   0.50002   0.02036   0.00000  Uiso   1.00
C1037  C     0.50006   0.75000   0.97964   0.00000  Uiso   1.00
C1038  C     0.50006   0.75000   0.02036   0.00000  Uiso   1.00
C1039  C     0.61767   0.93958   0.29863   0.00000  Uiso   1.00
C1040  C     0.89042   0.55286   0.71851   0.00000  Uiso   1.00
C1041  C     0.55096   0.60860   0.27573   0.00000  Uiso   1.00
C1042  C     0.78326   0.50008   0.08118   0.00000  Uiso   1.00
C1043  C     0.85963   0.80242   0.78042   0.00000  Uiso   1.00
C1044  C     0.80850   0.63395   0.20461   0.00000  Uiso   1.00
C1045  C     0.61070   0.94625   0.71557   0.00000  Uiso   1.00
C1046  C     0.95123   0.89374   0.26233   0.00000  Uiso   1.00
C1047  C     0.55971   0.61684   0.70243   0.00000  Uiso   1.00
C1048  C     0.61233   0.55532   0.71154   0.00000  Uiso   1.00
C1049  C     0.89433   0.95112   0.26447   0.00000  Uiso   1.00
C1050  C     0.55181   0.89069   0.72125   0.00000  Uiso   1.00
C1051  C     0.86307   0.69417   0.21023   0.00000  Uiso   1.00
C1052  C     0.80452   0.86167   0.78650   0.00000  Uiso   1.00
C1053  C     0.50012   0.78323   0.91884   0.00000  Uiso   1.00
C1054  C     0.60931   0.55272   0.28094   0.00000  Uiso   1.00
C1055  C     0.94910   0.60855   0.72440   0.00000  Uiso   1.00
C1056  C     0.55692   0.88557   0.29227   0.00000  Uiso   1.00
C1057  C     0.85973   0.69699   0.78175   0.00000  Uiso   1.00
C1058  C     0.63233   0.81042   0.20137   0.00000  Uiso   1.00
C1059  C     0.89038   0.94758   0.71958   0.00000  Uiso   1.00
C1060  C     0.69904   0.64140   0.22427   0.00000  Uiso   1.00
C1061  C     0.63941   0.80375   0.78404   0.00000  Uiso   1.00
C1062  C     0.94150   0.61605   0.29539   0.00000  Uiso   1.00
C1063  C     0.69444   0.63740   0.78903   0.00000  Uiso   1.00
C1064  C     0.99996   0.71677   0.08116   0.00000  Uiso   1.00
C1065  C     0.79877   0.85626   0.23767   0.00000  Uiso   1.00
C1066  C     0.85567   0.79888   0.23553   0.00000  Uiso   1.00
C1067  C     0.63247   0.68950   0.79862   0.00000  Uiso   1.00
C1068  C     0.88693   0.55583   0.28977   0.00000  Uiso   1.00
C1069  C     0.69814   0.85942   0.77884   0.00000  Uiso   1.00
C1070  C     0.64069   0.69729   0.21906   0.00000  Uiso   1.00
C1071  C     0.94548   0.88832   0.71348   0.00000  Uiso   1.00
C1072  C     0.69308   0.86443   0.20773   0.00000  Uiso   1.00
C1073  C     0.80077   0.64183   0.77443   0.00000  Uiso   1.00
C1074  C     0.50001   0.74998   0.39850   0.00000  Uiso   1.00
C1075  C     0.99999   0.74998   0.60150   0.00000  Uiso   1.00
C1076  C     0.74997   0.50000   0.39850   0.00000  Uiso   1.00
C1077  C     0.96672   0.74994   0.58114   0.00000  Uiso   1.00
C1078  C     0.74998   0.50000   0.60150   0.00000  Uiso   1.00
C1079  C     0.75001   0.50001   0.89850   0.00000  Uiso   1.00
C1080  C     0.74999   0.50001   0.10150   0.00000  Uiso   1.00
C1081  C     0.50003   0.75000   0.89850   0.00000  Uiso   1.00
C1082  C     0.50003   0.75000   0.10150   0.00000  Uiso   1.00
C1083  C     0.93336   0.74988   0.47972   0.00000  Uiso   1.00
C1084  C     0.56664   0.75005   0.52028   0.00000  Uiso   1.00
C1085  C     0.75012   0.56658   0.47976   0.00000  Uiso   1.00
C1086  C     0.74978   0.93342   0.52024   0.00000  Uiso   1.00
C1087  C     0.56665   0.75006   0.47981   0.00000  Uiso   1.00
C1088  C     0.74988   0.96676   0.41884   0.00000  Uiso   1.00
C1089  C     0.93335   0.74988   0.52019   0.00000  Uiso   1.00
C1090  C     0.74978   0.93342   0.47977   0.00000  Uiso   1.00
C1091  C     0.75012   0.56658   0.52023   0.00000  Uiso   1.00
C1092  C     0.68336   0.99989   0.97972   0.00000  Uiso   1.00
C1093  C     0.81664   0.50015   0.02028   0.00000  Uiso   1.00
C1094  C     0.50023   0.81658   0.97976   0.00000  Uiso   1.00
C1095  C     0.99990   0.68342   0.02024   0.00000  Uiso   1.00
C1096  C     0.81665   0.50014   0.97981   0.00000  Uiso   1.00
C1097  C     0.68335   0.99989   0.02019   0.00000  Uiso   1.00
C1098  C     0.99990   0.68342   0.97977   0.00000  Uiso   1.00
C1099  C     0.75005   0.53324   0.58116   0.00000  Uiso   1.00
C1100  C     0.50023   0.81658   0.02023   0.00000  Uiso   1.00
C1101  C     0.74999   0.50000   0.35601   0.00000  Uiso   1.00
C1102  C     0.75000   0.50000   0.64399   0.00000  Uiso   1.00
C1103  C     0.50001   0.75000   0.35602   0.00000  Uiso   1.00
C1104  C     0.99999   0.75000   0.64398   0.00000  Uiso   1.00
C1105  C     0.50001   0.75000   0.85601   0.00000  Uiso   1.00
C1106  C     0.50001   0.75000   0.14399   0.00000  Uiso   1.00
C1107  C     0.75001   0.50000   0.85602   0.00000  Uiso   1.00
C1108  C     0.74999   0.50000   0.14398   0.00000  Uiso   1.00
C1109  C     0.67990   0.56982   0.25011   0.00000  Uiso   1.00
C1110  C     0.96674   0.74993   0.41882   0.00000  Uiso   1.00
C1111  C     0.81992   0.93000   0.75003   0.00000  Uiso   1.00
C1112  C     0.93005   0.68005   0.24997   0.00000  Uiso   1.00
C1113  C     0.57003   0.81988   0.75003   0.00000  Uiso   1.00
C1114  C     0.82000   0.93006   0.25006   0.00000  Uiso   1.00
C1115  C     0.68003   0.56995   0.75001   0.00000  Uiso   1.00
C1116  C     0.56998   0.81992   0.25000   0.00000  Uiso   1.00
C1117  C     0.92995   0.68014   0.75007   0.00000  Uiso   1.00
C1118  C     0.67996   0.93015   0.74994   0.00000  Uiso   1.00
C1119  C     0.81995   0.56995   0.25003   0.00000  Uiso   1.00
C1120  C     0.93008   0.82000   0.74997   0.00000  Uiso   1.00
C1121  C     0.53326   0.75002   0.58118   0.00000  Uiso   1.00
C1122  C     0.57010   0.68018   0.24989   0.00000  Uiso   1.00
C1123  C     0.82008   0.56984   0.74990   0.00000  Uiso   1.00
C1124  C     0.68002   0.93008   0.25000   0.00000  Uiso   1.00
C1125  C     0.56992   0.68001   0.74996   0.00000  Uiso   1.00
C1126  C     0.93000   0.81994   0.24994   0.00000  Uiso   1.00
C1127  C     0.62014   0.90708   0.27261   0.00000  Uiso   1.00
C1128  C     0.88353   0.58941   0.73621   0.00000  Uiso   1.00
C1129  C     0.58921   0.61664   0.26331   0.00000  Uiso   1.00
C1130  C     0.86726   0.84003   0.76586   0.00000  Uiso   1.00
C1131  C     0.84208   0.63058   0.22895   0.00000  Uiso   1.00
C1132  C     0.75005   0.53323   0.41884   0.00000  Uiso   1.00
C1133  C     0.61699   0.91017   0.73464   0.00000  Uiso   1.00
C1134  C     0.91223   0.88489   0.25467   0.00000  Uiso   1.00
C1135  C     0.59251   0.61977   0.72804   0.00000  Uiso   1.00
C1136  C     0.61889   0.59170   0.72982   0.00000  Uiso   1.00
C1137  C     0.88518   0.91224   0.25529   0.00000  Uiso   1.00
C1138  C     0.58967   0.88298   0.73506   0.00000  Uiso   1.00
C1139  C     0.86909   0.65811   0.22941   0.00000  Uiso   1.00
C1140  C     0.84018   0.86742   0.76639   0.00000  Uiso   1.00
C1141  C     0.61642   0.58940   0.26363   0.00000  Uiso   1.00
C1142  C     0.91081   0.61663   0.73664   0.00000  Uiso   1.00
C1143  C     0.74989   0.96677   0.58116   0.00000  Uiso   1.00
C1144  C     0.59254   0.88012   0.27197   0.00000  Uiso   1.00
C1145  C     0.86657   0.66054   0.76377   0.00000  Uiso   1.00
C1146  C     0.62987   0.84292   0.22739   0.00000  Uiso   1.00
C1147  C     0.88274   0.90997   0.73414   0.00000  Uiso   1.00
C1148  C     0.66079   0.63336   0.23668   0.00000  Uiso   1.00
C1149  C     0.63302   0.83989   0.76523   0.00000  Uiso   1.00
C1150  C     0.90792   0.61943   0.27105   0.00000  Uiso   1.00
C1151  C     0.65812   0.63090   0.77050   0.00000  Uiso   1.00
C1152  C     0.83777   0.86511   0.24533   0.00000  Uiso   1.00
C1153  C     0.86482   0.83776   0.24471   0.00000  Uiso   1.00
C1154  C     0.78328   0.50007   0.91886   0.00000  Uiso   1.00
C1155  C     0.62995   0.65717   0.77235   0.00000  Uiso   1.00
C1156  C     0.88091   0.59189   0.27059   0.00000  Uiso   1.00
C1157  C     0.66030   0.86710   0.76491   0.00000  Uiso   1.00
C1158  C     0.63358   0.66061   0.23637   0.00000  Uiso   1.00
C1159  C     0.90982   0.88257   0.73361   0.00000  Uiso   1.00
C1160  C     0.65746   0.86988   0.22803   0.00000  Uiso   1.00
C1161  C     0.83921   0.63342   0.76304   0.00000  Uiso   1.00
C1162  C     0.96651   0.74992   0.45928   0.00000  Uiso   1.00
C1163  C     0.53349   0.75001   0.54072   0.00000  Uiso   1.00
C1164  C     0.75004   0.53346   0.45930   0.00000  Uiso   1.00
H1165  H     0.90746   0.74984   0.46440   0.00000  Uiso   1.00
H1166  H     0.84254   0.50020   0.03560   0.00000  Uiso   1.00
H1167  H     0.50029   0.84245   0.96446   0.00000  Uiso   1.00
H1168  H     0.99983   0.65755   0.03554   0.00000  Uiso   1.00
H1169  H     0.84255   0.50019   0.96454   0.00000  Uiso   1.00
H1170  H     0.65745   0.99984   0.03546   0.00000  Uiso   1.00
H1171  H     0.99984   0.65755   0.96448   0.00000  Uiso   1.00
H1172  H     0.50029   0.84245   0.03552   0.00000  Uiso   1.00
H1173  H     0.55903   0.75006   0.40327   0.00000  Uiso   1.00
H1174  H     0.94097   0.74991   0.59673   0.00000  Uiso   1.00
H1175  H     0.74981   0.94104   0.40323   0.00000  Uiso   1.00
H1176  H     0.59254   0.75009   0.53560   0.00000  Uiso   1.00
H1177  H     0.75012   0.55896   0.59676   0.00000  Uiso   1.00
H1178  H     0.94099   0.74990   0.40319   0.00000  Uiso   1.00
H1179  H     0.55901   0.75005   0.59681   0.00000  Uiso   1.00
H1180  H     0.75013   0.55896   0.40323   0.00000  Uiso   1.00
H1181  H     0.74983   0.94104   0.59677   0.00000  Uiso   1.00
H1182  H     0.80903   0.50012   0.90327   0.00000  Uiso   1.00
H1183  H     0.69097   0.99990   0.09673   0.00000  Uiso   1.00
H1184  H     0.99990   0.69104   0.90323   0.00000  Uiso   1.00
H1185  H     0.50019   0.80896   0.09677   0.00000  Uiso   1.00
H1186  H     0.69099   0.99990   0.90319   0.00000  Uiso   1.00
H1187  H     0.75019   0.59245   0.46446   0.00000  Uiso   1.00
H1188  H     0.80901   0.50013   0.09681   0.00000  Uiso   1.00
H1189  H     0.50018   0.80896   0.90323   0.00000  Uiso   1.00
H1190  H     0.99989   0.69104   0.09677   0.00000  Uiso   1.00
H1191  H     0.62966   0.96542   0.28995   0.00000  Uiso   1.00
H1192  H     0.87808   0.52855   0.73079   0.00000  Uiso   1.00
H1193  H     0.53524   0.62916   0.29106   0.00000  Uiso   1.00
H1194  H     0.88095   0.78696   0.79492   0.00000  Uiso   1.00
H1195  H     0.78277   0.62263   0.21463   0.00000  Uiso   1.00
H1196  H     0.62282   0.97089   0.72742   0.00000  Uiso   1.00
H1197  H     0.96469   0.88244   0.28770   0.00000  Uiso   1.00
H1198  H     0.74972   0.90755   0.53554   0.00000  Uiso   1.00
H1199  H     0.53411   0.62951   0.71082   0.00000  Uiso   1.00
H1200  H     0.63493   0.53998   0.69925   0.00000  Uiso   1.00
H1201  H     0.87505   0.96779   0.28056   0.00000  Uiso   1.00
H1202  H     0.53634   0.86966   0.70625   0.00000  Uiso   1.00
H1203  H     0.88591   0.70895   0.19763   0.00000  Uiso   1.00
H1204  H     0.77976   0.87392   0.77516   0.00000  Uiso   1.00
H1205  H     0.62097   0.52841   0.26799   0.00000  Uiso   1.00
H1206  H     0.96499   0.62912   0.70923   0.00000  Uiso   1.00
H1207  H     0.54258   0.86244   0.30483   0.00000  Uiso   1.00
H1208  H     0.87231   0.72134   0.76984   0.00000  Uiso   1.00
H1209  H     0.59255   0.75009   0.46454   0.00000  Uiso   1.00
H1210  H     0.62034   0.78458   0.21006   0.00000  Uiso   1.00
H1211  H     0.86905   0.96306   0.70512   0.00000  Uiso   1.00
H1212  H     0.71476   0.62084   0.20894   0.00000  Uiso   1.00
H1213  H     0.62776   0.77912   0.77169   0.00000  Uiso   1.00
H1214  H     0.96723   0.62736   0.28537   0.00000  Uiso   1.00
H1215  H     0.71017   0.61470   0.80052   0.00000  Uiso   1.00
H1216  H     0.78531   0.86756   0.21230   0.00000  Uiso   1.00
H1217  H     0.87495   0.78221   0.21944   0.00000  Uiso   1.00
H1218  H     0.61965   0.71512   0.79064   0.00000  Uiso   1.00
H1219  H     0.86409   0.54105   0.30237   0.00000  Uiso   1.00
H1220  H     0.90745   0.74985   0.53546   0.00000  Uiso   1.00
H1221  H     0.71356   0.88046   0.79385   0.00000  Uiso   1.00
H1222  H     0.62903   0.72159   0.23201   0.00000  Uiso   1.00
H1223  H     0.97024   0.87608   0.72483   0.00000  Uiso   1.00
H1224  H     0.70742   0.88756   0.19517   0.00000  Uiso   1.00
H1225  H     0.78425   0.62139   0.78905   0.00000  Uiso   1.00
H1226  H     0.74971   0.90755   0.46448   0.00000  Uiso   1.00
H1227  H     0.75019   0.59245   0.53552   0.00000  Uiso   1.00
H1228  H     0.65746   0.99985   0.96440   0.00000  Uiso   1.00
O1229  O     0.75000   0.50000   0.25000   0.00000  Uiso   1.00
O1230  O     0.75000   0.96964   0.66245   0.00000  Uiso   1.00
O1231  O     0.96964   0.75000   0.33755   0.00000  Uiso   1.00
O1232  O     0.53037   0.75000   0.66245   0.00000  Uiso   1.00
O1233  O     0.50000   0.71964   0.83755   0.00000  Uiso   1.00
O1234  O     0.50000   0.78037   0.16245   0.00000  Uiso   1.00
O1235  O     0.78037   0.50000   0.83755   0.00000  Uiso   1.00
O1236  O     0.71964   0.50000   0.16245   0.00000  Uiso   1.00
O1237  O     0.50000   0.78037   0.83755   0.00000  Uiso   1.00
O1238  O     0.50000   0.71964   0.16245   0.00000  Uiso   1.00
O1239  O     0.71964   0.50000   0.83755   0.00000  Uiso   1.00
O1240  O     0.75000   0.50000   0.75000   0.00000  Uiso   1.00
O1241  O     0.78037   0.50000   0.16245   0.00000  Uiso   1.00
O1242  O     0.70725   0.57308   0.27302   0.00000  Uiso   1.00
O1243  O     0.79276   0.92693   0.72698   0.00000  Uiso   1.00
O1244  O     0.92693   0.70725   0.27302   0.00000  Uiso   1.00
O1245  O     0.57308   0.79276   0.72698   0.00000  Uiso   1.00
O1246  O     0.79276   0.92693   0.27302   0.00000  Uiso   1.00
O1247  O     0.70725   0.57308   0.72698   0.00000  Uiso   1.00
O1248  O     0.57308   0.79276   0.27302   0.00000  Uiso   1.00
O1249  O     0.92693   0.70725   0.72698   0.00000  Uiso   1.00
O1250  O     0.70725   0.92693   0.72698   0.00000  Uiso   1.00
O1251  O     0.50000   0.75000   0.25000   0.00000  Uiso   1.00
O1252  O     0.79276   0.57308   0.27302   0.00000  Uiso   1.00
O1253  O     0.92693   0.79276   0.72698   0.00000  Uiso   1.00
O1254  O     0.57308   0.70725   0.27302   0.00000  Uiso   1.00
O1255  O     0.79276   0.57308   0.72698   0.00000  Uiso   1.00
O1256  O     0.70725   0.92693   0.27302   0.00000  Uiso   1.00
O1257  O     0.57308   0.70725   0.72698   0.00000  Uiso   1.00
O1258  O     0.92693   0.79276   0.27302   0.00000  Uiso   1.00
O1259  O     0.95725   0.82308   0.77302   0.00000  Uiso   1.00
O1260  O     0.54276   0.67693   0.22698   0.00000  Uiso   1.00
O1261  O     0.67693   0.95725   0.77302   0.00000  Uiso   1.00
O1262  O     0.50000   0.75000   0.75000   0.00000  Uiso   1.00
O1263  O     0.82308   0.54276   0.22698   0.00000  Uiso   1.00
O1264  O     0.54276   0.67693   0.77302   0.00000  Uiso   1.00
O1265  O     0.95725   0.82308   0.22698   0.00000  Uiso   1.00
O1266  O     0.82308   0.54276   0.77302   0.00000  Uiso   1.00
O1267  O     0.67693   0.95725   0.22698   0.00000  Uiso   1.00
O1268  O     0.95725   0.67693   0.22698   0.00000  Uiso   1.00
O1269  O     0.54276   0.82308   0.77302   0.00000  Uiso   1.00
O1270  O     0.67693   0.54276   0.22698   0.00000  Uiso   1.00
O1271  O     0.82308   0.95725   0.77302   0.00000  Uiso   1.00
O1272  O     0.54276   0.82308   0.22698   0.00000  Uiso   1.00
O1273  O     0.75000   0.96964   0.33755   0.00000  Uiso   1.00
O1274  O     0.95725   0.67693   0.77302   0.00000  Uiso   1.00
O1275  O     0.82308   0.95725   0.22698   0.00000  Uiso   1.00
O1276  O     0.67693   0.54276   0.77302   0.00000  Uiso   1.00
O1277  O     0.60396   0.93734   0.33084   0.00000  Uiso   1.00
O1278  O     0.90862   0.54977   0.68900   0.00000  Uiso   1.00
O1279  O     0.53622   0.57965   0.26753   0.00000  Uiso   1.00
O1280  O     0.83005   0.78779   0.77484   0.00000  Uiso   1.00
O1281  O     0.80966   0.64772   0.17237   0.00000  Uiso   1.00
O1282  O     0.59329   0.94855   0.68543   0.00000  Uiso   1.00
O1283  O     0.96902   0.91154   0.23907   0.00000  Uiso   1.00
O1284  O     0.75000   0.53037   0.66245   0.00000  Uiso   1.00
O1285  O     0.56143   0.60177   0.67088   0.00000  Uiso   1.00
O1286  O     0.58197   0.54139   0.71165   0.00000  Uiso   1.00
O1287  O     0.92261   0.96536   0.25332   0.00000  Uiso   1.00
O1288  O     0.53703   0.91993   0.72795   0.00000  Uiso   1.00
O1289  O     0.83292   0.70850   0.20990   0.00000  Uiso   1.00
O1290  O     0.80274   0.84465   0.81692   0.00000  Uiso   1.00
O1291  O     0.59159   0.54950   0.31077   0.00000  Uiso   1.00
O1292  O     0.96370   0.57956   0.73263   0.00000  Uiso   1.00
O1293  O     0.54239   0.91558   0.29349   0.00000  Uiso   1.00
O1294  O     0.84127   0.69994   0.81110   0.00000  Uiso   1.00
O1295  O     0.53037   0.75000   0.33755   0.00000  Uiso   1.00
O1296  O     0.64604   0.81266   0.16916   0.00000  Uiso   1.00
O1297  O     0.91997   0.96219   0.72514   0.00000  Uiso   1.00
O1298  O     0.71378   0.67035   0.23247   0.00000  Uiso   1.00
O1299  O     0.65642   0.80136   0.81443   0.00000  Uiso   1.00
O1300  O     0.94034   0.60229   0.32764   0.00000  Uiso   1.00
O1301  O     0.70788   0.66794   0.79011   0.00000  Uiso   1.00
O1302  O     0.78098   0.83846   0.26093   0.00000  Uiso   1.00
O1303  O     0.82738   0.78464   0.24668   0.00000  Uiso   1.00
O1304  O     0.64722   0.68729   0.83032   0.00000  Uiso   1.00
O1305  O     0.91708   0.54150   0.29011   0.00000  Uiso   1.00
O1306  O     0.96964   0.75000   0.66245   0.00000  Uiso   1.00
O1307  O     0.71295   0.83017   0.77223   0.00000  Uiso   1.00
O1308  O     0.65841   0.70051   0.18923   0.00000  Uiso   1.00
O1309  O     0.94724   0.90532   0.68306   0.00000  Uiso   1.00
O1310  O     0.70761   0.83442   0.20651   0.00000  Uiso   1.00
O1311  O     0.78673   0.67104   0.76601   0.00000  Uiso   1.00
O1312  O     0.75000   0.53037   0.33755   0.00000  Uiso   1.00
Zn1313 Zn    0.70660   0.50000   0.21735   0.00000  Uiso   1.00
Zn1314 Zn    0.54341   0.75000   0.28265   0.00000  Uiso   1.00
Zn1315 Zn    0.75000   0.95660   0.71735   0.00000  Uiso   1.00
Zn1316 Zn    0.75000   0.54341   0.28265   0.00000  Uiso   1.00
Zn1317 Zn    0.54341   0.75000   0.71735   0.00000  Uiso   1.00
Zn1318 Zn    0.95660   0.75000   0.28265   0.00000  Uiso   1.00
Zn1319 Zn    0.75000   0.54341   0.71735   0.00000  Uiso   1.00
Zn1320 Zn    0.75000   0.95660   0.28265   0.00000  Uiso   1.00
Zn1321 Zn    0.79341   0.50000   0.78265   0.00000  Uiso   1.00
Zn1322 Zn    0.50000   0.70660   0.21735   0.00000  Uiso   1.00
Zn1323 Zn    0.50000   0.79341   0.78265   0.00000  Uiso   1.00
Zn1324 Zn    0.79341   0.50000   0.21735   0.00000  Uiso   1.00
Zn1325 Zn    0.70660   0.50000   0.78265   0.00000  Uiso   1.00
Zn1326 Zn    0.50000   0.79341   0.21735   0.00000  Uiso   1.00
Zn1327 Zn    0.50000   0.70660   0.78265   0.00000  Uiso   1.00
Zn1328 Zn    0.95660   0.75000   0.71735   0.00000  Uiso   1.00
loop_
_geom_bond_atom_site_label_1
_geom_bond_atom_site_label_2
_geom_bond_distance
_geom_bond_site_symmetry_2
_ccdc_geom_bond_type
C1     C78     1.404   .     A
C1     H177    1.084   .     S
C1     C4      1.395   .     A
C2     C14     1.395   .     A
C2     H187    1.084   .     S
C2     C748    1.404   .     S
C3     C147    1.395   .     A
C3     C90     1.402   .     A
C3     C702    1.411   .     A
C4     C91     1.402   .     A
C4     C34     1.411   .     A
C5     C368    1.411   .     A
C5     C81     1.395   .     A
C5     C93     1.402   .     A
C6     C94     1.402   .     A
C6     C92     1.395   .     A
C6     C701    1.411   .     A
C7     C103    1.395   .     A
C7     C95     1.402   .     A
C7     C38     1.411   .     S
C8     C35     1.395   .     A
C8     C96     1.402   .     A
C8     C703    1.411   .     S
C9     C97     1.402   .     A
C9     C46     1.395   .     A
C9     C40     1.411   .     A
C10    C41     1.411   .     A
C10    C98     1.402   .     A
C10    C57     1.395   .     A
C11    C99     1.402   .     A
C11    C68     1.395   .     A
C11    C374    1.411   .     S
C12    C158    1.395   .     A
C12    C39     1.411   .     A
C12    C100    1.402   .     A
C13    H188    1.084   .     S
C13    C15     1.395   .     A
C13    C417    1.404   .     S
C14    C101    1.402   .     A
C14    C704    1.411   .     S
C15    C102    1.402   .     A
C15    C373    1.411   .     S
C16    C104    1.402   .     A
C16    C24     1.395   .     A
C16    C42     1.411   .     A
C17    C120    1.454   .     S
C17    C148    1.411   .     A
C17    C150    1.412   .     A
C18    C121    1.453   .     S
C18    C149    1.412   .     A
C18    C146    1.412   .     A
C19    C113    1.455   .     S
C19    C145    1.413   .     A
C19    C152    1.412   .     A
C20    C144    1.412   .     A
C20    C151    1.412   .     A
C20    C115    1.455   .     S
C21    C116    1.454   .     S
C21    C154    1.412   .     A
C21    C143    1.412   .     A
C22    C142    1.412   .     A
C22    C153    1.412   .     A
C22    C117    1.454   .     S
C23    C118    1.456   .     S
C23    C141    1.413   .     A
C23    C156    1.412   .     A
C24    C86     1.404   .     A
C24    H189    1.084   .     S
C25    C119    1.455   .     S
C25    C140    1.412   .     A
C25    C155    1.412   .     A
C26    C139    1.412   .     A
C26    C159    1.411   .     A
C26    C129    1.455   .     S
C27    C138    1.412   .     A
C27    C157    1.413   .     A
C27    C130    1.456   .     S
C28    C161    1.411   .     A
C28    C137    1.412   .     A
C28    C122    1.454   .     S
C29    C135    1.412   .     A
C29    C160    1.412   .     A
C29    C123    1.454   .     S
C30    C134    1.412   .     A
C30    C163    1.412   .     A
C30    C124    1.455   .     S
C31    C162    1.413   .     A
C31    C133    1.412   .     A
C31    C126    1.455   .     S
C32    C127    1.454   .     S
C32    C165    1.412   .     A
C32    C132    1.413   .     A
C33    C164    1.411   .     A
C33    C131    1.412   .     A
C33    C128    1.454   .     S
C34    C36     1.403   .     S
C34    C498    1.411   1_455 S
C35    H190    1.084   .     S
C35    C747    1.404   .     S
C36    C337    1.411   1_455 A
C36    C167    1.411   .     S
C37    C38     1.403   .     A
C37    C670    1.411   1_545 A
C37    C168    1.411   .     S
C38    C667    1.411   1_545 A
C39    C672    1.411   1_545 S
C39    C40     1.403   1_556 S
C40    C678    1.411   1_545 S
C40    C39     1.403   1_554 S
C41    C347    1.411   1_455 S
C41    C42     1.403   1_556 S
C42    C343    1.411   1_455 S
C42    C41     1.403   1_554 S
C43    C131    1.492   .     S
C43    O281    1.221   .     D
C43    H195    1.084   .     S
C44    H196    1.083   .     S
C44    C132    1.492   .     S
C44    O282    1.221   .     D
C45    O283    1.221   .     D
C45    C133    1.491   .     S
C45    H197    1.085   .     S
C46    H192    1.084   .     S
C46    C84     1.404   .     A
C47    H198    1.085   .     S
C47    C134    1.491   .     S
C47    O284    1.221   .     D
C48    C135    1.492   .     S
C48    H199    1.084   .     S
C48    O285    1.221   .     D
C49    C137    1.493   .     S
C49    O286    1.221   .     D
C49    H200    1.084   .     S
C50    C138    1.485   .     S
C50    O287    1.221   .     D
C50    H201    1.085   .     S
C51    O289    1.221   .     D
C51    C139    1.492   .     S
C51    H203    1.084   .     S
C52    H204    1.085   .     S
C52    O290    1.221   .     D
C52    C140    1.492   .     S
C53    O291    1.220   .     D
C53    C141    1.495   .     S
C53    H205    1.085   .     S
C54    O292    1.221   .     D
C54    H206    1.085   .     S
C54    C142    1.491   .     S
C55    C143    1.492   .     S
C55    O293    1.221   .     D
C55    H207    1.085   .     S
C56    O294    1.221   .     D
C56    H208    1.083   .     S
C56    C144    1.492   .     S
C57    C85     1.404   .     A
C57    H193    1.084   .     S
C58    H209    1.083   .     S
C58    O295    1.221   .     D
C58    C145    1.491   .     S
C59    H210    1.085   .     S
C59    O296    1.221   .     D
C59    C146    1.492   .     S
C60    C148    1.492   .     S
C60    O297    1.221   .     D
C60    H211    1.085   .     S
C61    C149    1.492   .     S
C61    H212    1.083   .     S
C61    O298    1.221   .     D
C62    H214    1.084   .     S
C62    C150    1.492   .     S
C62    O300    1.221   .     D
C63    C151    1.491   .     S
C63    H215    1.085   .     S
C63    O301    1.221   .     D
C64    C152    1.491   .     S
C64    O302    1.221   .     D
C64    H216    1.085   .     S
C65    H217    1.083   .     S
C65    C153    1.492   .     S
C65    O303    1.221   .     D
C66    O304    1.221   .     D
C66    C154    1.492   .     S
C66    H218    1.084   .     S
C67    O305    1.221   .     D
C67    H219    1.085   .     S
C67    C155    1.492   .     S
C68    H194    1.084   .     S
C68    C418    1.404   .     S
C69    H220    1.085   .     S
C69    O306    1.221   .     D
C69    C156    1.485   .     S
C70    C157    1.495   .     S
C70    H221    1.085   .     S
C70    O307    1.220   .     D
C71    O308    1.221   .     D
C71    H222    1.084   .     S
C71    C159    1.492   .     S
C72    O309    1.221   .     D
C72    H223    1.085   .     S
C72    C160    1.492   .     S
C73    C161    1.491   .     S
C73    O311    1.221   .     D
C73    H225    1.085   .     S
C74    C162    1.491   .     S
C74    H226    1.083   .     S
C74    O312    1.221   .     D
C75    H227    1.083   .     S
C75    O313    1.221   .     D
C75    C163    1.492   .     S
C76    H228    1.085   .     S
C76    C164    1.492   .     S
C76    O314    1.221   .     D
C77    O315    1.221   .     D
C77    H229    1.085   .     S
C77    C165    1.491   .     S
C78    C107    1.464   .     S
C78    C446    1.404   1_455 S
C79    C108    1.464   .     S
C79    C81     1.404   .     A
C79    C457    1.404   .     S
C80    C756    1.404   1_545 A
C80    C105    1.464   .     S
C80    C136    1.404   .     S
C81    H178    1.084   .     S
C82    C106    1.464   .     S
C82    C103    1.404   .     A
C82    C811    1.404   1_545 S
C83    C111    1.464   .     S
C83    C158    1.404   .     A
C83    C699    1.404   1_545 S
C84    C112    1.464   .     S
C84    C666    1.404   1_545 S
C85    C109    1.464   .     S
C85    C345    1.404   1_455 S
C86    C110    1.464   .     S
C86    C400    1.404   1_455 S
C87    H169    1.084   .     S
C87    C93     1.395   .     A
C87    C166    1.402   .     A
C88    C91     1.395   .     A
C88    H180    1.084   .     S
C88    C167    1.402   .     A
C89    C95     1.395   .     A
C89    C168    1.402   .     A
C89    H191    1.084   .     S
C90    H202    1.084   .     S
C90    C94     1.395   .     A
C91    H213    1.084   .     S
C92    C744    1.404   .     A
C92    H179    1.084   .     S
C93    H224    1.084   .     S
C94    H230    1.084   .     S
C95    H231    1.084   .     S
C96    H232    1.084   .     S
C96    C101    1.395   1_556 S
C97    H170    1.084   .     S
C97    C100    1.395   1_554 S
C98    H171    1.084   .     S
C98    C104    1.395   1_556 S
C99    H172    1.084   .     S
C99    C102    1.395   1_554 S
C100   H173    1.084   .     S
C100   C97     1.395   1_556 S
C101   H174    1.084   .     S
C101   C96     1.395   1_554 S
C102   H175    1.084   .     S
C102   C99     1.395   1_556 S
C103   H181    1.084   .     S
C104   H176    1.084   .     S
C104   C98     1.395   1_554 S
C105   O941    1.280   1_545 A
C105   O316    1.280   .     S
C106   O288    1.280   .     A
C106   O898    1.280   1_545 S
C107   O299    1.280   .     A
C107   O567    1.280   1_455 S
C108   O310    1.280   .     A
C108   O568    1.280   .     S
C109   O241    1.280   .     A
C109   O237    1.280   .     A
C110   O242    1.280   .     A
C110   O238    1.280   .     A
C111   O243    1.280   .     A
C111   O239    1.280   .     A
C112   O245    1.280   .     A
C112   O240    1.280   .     A
C113   O246    1.279   .     A
C113   O274    1.276   .     A
C114   H182    1.084   .     S
C114   C166    1.395   .     A
C114   C410    1.404   .     S
C115   O247    1.276   .     A
C115   O275    1.279   .     A
C116   O248    1.279   .     A
C116   O272    1.277   .     A
C117   O273    1.279   .     A
C117   O249    1.276   .     A
C118   O250    1.277   .     A
C118   O279    1.279   .     A
C119   O251    1.278   .     A
C119   O280    1.278   .     A
C120   O252    1.277   .     A
C120   O276    1.278   .     A
C121   O253    1.276   .     A
C121   O278    1.278   .     A
C122   O254    1.279   .     A
C122   O265    1.276   .     A
C123   O256    1.277   .     A
C123   O267    1.279   .     A
C124   O257    1.279   .     A
C124   O263    1.276   .     A
C125   C167    1.395   .     A
C125   H183    1.084   .     S
C125   C411    1.404   1_455 S
C126   O258    1.276   .     A
C126   O264    1.279   .     A
C127   O270    1.277   .     A
C127   O259    1.279   .     A
C128   O260    1.278   .     A
C128   O271    1.277   .     A
C129   O268    1.277   .     A
C129   O261    1.278   .     A
C130   O269    1.277   .     A
C130   O262    1.279   .     A
C131   C148    1.410   .     A
C132   C146    1.409   .     A
C133   C145    1.409   .     A
C134   C144    1.410   .     A
C135   C143    1.410   .     A
C136   H184    1.084   .     S
C136   C168    1.395   .     A
C137   C142    1.409   .     A
C138   C141    1.407   .     A
C139   C140    1.411   .     A
C147   H185    1.084   .     S
C147   C746    1.404   .     S
C149   C165    1.408   .     A
C150   C164    1.410   .     A
C151   C163    1.410   .     A
C152   C162    1.409   .     A
C153   C161    1.409   .     A
C154   C160    1.410   .     A
C155   C159    1.411   .     A
C156   C157    1.407   .     A
C158   H186    1.084   .     S
C166   C366    1.411   .     S
O233   Zn317   1.945   .     S
O233   Zn328   1.946   .     S
O233   Zn320   1.947   .     S
O233   Zn988   1.946   1_545 S
O234   Zn319   1.952   .     S
O234   C770    1.280   .     S
O235   Zn322   1.951   .     S
O235   C439    1.280   .     S
O236   Zn321   1.951   .     S
O236   C440    1.280   1_455 S
O237   Zn331   1.952   .     S
O238   Zn330   1.952   .     S
O239   Zn325   1.952   .     S
O240   Zn317   1.952   .     S
O241   Zn327   1.952   .     S
O242   Zn326   1.952   .     S
O243   Zn329   1.951   .     S
O244   Zn325   1.945   .     S
O244   Zn329   1.946   .     S
O244   Zn323   1.946   .     S
O244   Zn983   1.947   1_545 S
O245   Zn328   1.951   .     S
O246   Zn320   1.932   .     S
O247   Zn319   1.932   .     S
O248   Zn322   1.931   .     S
O249   Zn321   1.931   .     S
O250   Zn324   1.933   .     S
O251   Zn323   1.933   .     S
O252   Zn318   1.932   .     S
O253   Zn332   1.932   .     S
O254   Zn319   1.931   .     S
O255   Zn318   1.945   .     S
O255   Zn326   1.947   .     S
O255   Zn654   1.946   1_455 S
O255   Zn330   1.946   .     S
O256   Zn320   1.931   .     S
O257   Zn332   1.933   .     S
O258   Zn318   1.933   .     S
O259   Zn323   1.931   .     S
O260   Zn324   1.931   .     S
O261   Zn321   1.933   .     S
O262   Zn322   1.933   .     S
O263   Zn659   1.932   .     S
O264   Zn326   1.932   .     S
O265   Zn993   1.931   .     S
O266   Zn321   1.946   .     S
O266   Zn327   1.947   .     S
O266   Zn331   1.946   .     S
O266   Zn664   1.945   1_455 S
O267   Zn328   1.931   .     S
O268   Zn331   1.933   .     S
O269   Zn662   1.933   .     S
O270   Zn325   1.932   .     S
O271   Zn981   1.932   .     S
O272   Zn658   1.931   .     S
O273   Zn327   1.931   .     S
O274   Zn317   1.933   .     S
O275   Zn989   1.933   .     S
O276   Zn330   1.931   .     S
O277   C769    1.280   .     A
O277   Zn324   1.952   .     S
O278   Zn663   1.931   .     S
O279   Zn992   1.933   .     S
O280   Zn329   1.933   .     S
O288   Zn323   1.952   .     S
O299   Zn318   1.952   .     S
O310   Zn332   1.952   .     S
O316   Zn320   1.952   .     S
Zn317  O935    1.932   1_545 S
Zn319  O908    1.947   .     S
Zn322  O587    1.946   .     S
Zn324  O897    1.946   .     S
Zn325  O939    1.933   1_545 S
Zn326  O604    1.931   1_455 S
Zn327  O595    1.932   1_455 S
Zn328  O943    1.933   1_545 S
Zn329  O929    1.931   1_545 S
Zn330  O601    1.933   1_455 S
Zn331  O610    1.931   1_455 S
Zn332  O598    1.945   .     S
C333   C410    1.404   .     A
C333   H509    1.084   .     S
C333   C336    1.395   .     A
C334   C346    1.395   .     A
C334   H519    1.084   .     S
C334   C1080   1.404   .     S
C335   C479    1.395   .     A
C335   C422    1.402   .     A
C335   C1034   1.411   .     A
C336   C423    1.402   .     A
C336   C366    1.411   .     A
C337   C36     1.411   1_655 A
C337   C413    1.395   .     A
C337   C425    1.402   .     A
C338   C426    1.402   .     A
C338   C424    1.395   .     A
C338   C1033   1.411   .     A
C339   C435    1.395   .     A
C339   C427    1.402   .     A
C339   C370    1.411   .     S
C340   C367    1.395   .     A
C340   C428    1.402   .     A
C340   C1035   1.411   .     S
C341   C429    1.402   .     A
C341   C378    1.395   .     A
C341   C372    1.411   .     A
C342   C373    1.411   .     A
C342   C430    1.402   .     A
C342   C389    1.395   .     A
C343   C431    1.402   .     A
C343   C400    1.395   .     A
C343   C42     1.411   1_655 S
C344   C490    1.395   .     A
C344   C371    1.411   .     A
C344   C432    1.402   .     A
C345   H520    1.084   .     S
C345   C347    1.395   .     A
C345   C85     1.404   1_655 S
C346   C433    1.402   .     A
C346   C1036   1.411   .     S
C347   C434    1.402   .     A
C347   C41     1.411   1_655 S
C348   C436    1.402   .     A
C348   C356    1.395   .     A
C348   C374    1.411   .     A
C349   C452    1.454   .     S
C349   C480    1.411   .     A
C349   C482    1.412   .     A
C350   C453    1.453   .     S
C350   C481    1.412   .     A
C350   C478    1.412   .     A
C351   C445    1.455   .     S
C351   C477    1.413   .     A
C351   C484    1.412   .     A
C352   C476    1.412   .     A
C352   C483    1.412   .     A
C352   C447    1.455   .     S
C353   C448    1.454   .     S
C353   C486    1.412   .     A
C353   C475    1.412   .     A
C354   C474    1.412   .     A
C354   C485    1.412   .     A
C354   C449    1.454   .     S
C355   C450    1.456   .     S
C355   C473    1.413   .     A
C355   C488    1.412   .     A
C356   C418    1.404   .     A
C356   H521    1.084   .     S
C357   C451    1.455   .     S
C357   C472    1.412   .     A
C357   C487    1.412   .     A
C358   C471    1.412   .     A
C358   C491    1.411   .     A
C358   C461    1.455   .     S
C359   C470    1.412   .     A
C359   C489    1.413   .     A
C359   C462    1.456   .     S
C360   C493    1.411   .     A
C360   C469    1.412   .     A
C360   C454    1.454   .     S
C361   C467    1.412   .     A
C361   C492    1.412   .     A
C361   C455    1.454   .     S
C362   C466    1.412   .     A
C362   C495    1.412   .     A
C362   C456    1.455   .     S
C363   C494    1.413   .     A
C363   C465    1.412   .     A
C363   C458    1.455   .     S
C364   C459    1.454   .     S
C364   C497    1.412   .     A
C364   C464    1.413   .     A
C365   C496    1.411   .     A
C365   C463    1.412   .     A
C365   C460    1.454   .     S
C366   C368    1.403   .     S
C367   H522    1.084   .     S
C367   C1079   1.404   .     S
C368   C499    1.411   .     S
C369   C370    1.403   .     A
C369   C1002   1.411   1_545 A
C369   C500    1.411   .     S
C370   C999    1.411   1_545 A
C371   C1004   1.411   1_545 S
C371   C372    1.403   1_556 S
C372   C1010   1.411   1_545 S
C372   C371    1.403   1_554 S
C373   C374    1.403   1_556 S
C374   C373    1.403   1_554 S
C375   C463    1.492   .     S
C375   O613    1.221   .     D
C375   H527    1.084   .     S
C376   H528    1.083   .     S
C376   C464    1.492   .     S
C376   O614    1.221   .     D
C377   O615    1.221   .     D
C377   C465    1.491   .     S
C377   H529    1.085   .     S
C378   H524    1.084   .     S
C378   C416    1.404   .     A
C379   H530    1.085   .     S
C379   C466    1.491   .     S
C379   O616    1.221   .     D
C380   C467    1.492   .     S
C380   H531    1.084   .     S
C380   O617    1.221   .     D
C381   C469    1.493   .     S
C381   O618    1.221   .     D
C381   H532    1.084   .     S
C382   C470    1.485   .     S
C382   O619    1.221   .     D
C382   H533    1.085   .     S
C383   O621    1.221   .     D
C383   C471    1.492   .     S
C383   H535    1.084   .     S
C384   H536    1.085   .     S
C384   O622    1.221   .     D
C384   C472    1.492   .     S
C385   O623    1.220   .     D
C385   C473    1.495   .     S
C385   H537    1.085   .     S
C386   O624    1.221   .     D
C386   H538    1.085   .     S
C386   C474    1.491   .     S
C387   C475    1.492   .     S
C387   O625    1.221   .     D
C387   H539    1.085   .     S
C388   O626    1.221   .     D
C388   H540    1.083   .     S
C388   C476    1.492   .     S
C389   C417    1.404   .     A
C389   H525    1.084   .     S
C390   H541    1.083   .     S
C390   O627    1.221   .     D
C390   C477    1.491   .     S
C391   H542    1.085   .     S
C391   O628    1.221   .     D
C391   C478    1.492   .     S
C392   C480    1.492   .     S
C392   O629    1.221   .     D
C392   H543    1.085   .     S
C393   C481    1.492   .     S
C393   H544    1.083   .     S
C393   O630    1.221   .     D
C394   H546    1.084   .     S
C394   C482    1.492   .     S
C394   O632    1.221   .     D
C395   C483    1.491   .     S
C395   H547    1.085   .     S
C395   O633    1.221   .     D
C396   C484    1.491   .     S
C396   O634    1.221   .     D
C396   H548    1.085   .     S
C397   H549    1.083   .     S
C397   C485    1.492   .     S
C397   O635    1.221   .     D
C398   O636    1.221   .     D
C398   C486    1.492   .     S
C398   H550    1.084   .     S
C399   O637    1.221   .     D
C399   H551    1.085   .     S
C399   C487    1.492   .     S
C400   H526    1.084   .     S
C400   C86     1.404   1_655 S
C401   H552    1.085   .     S
C401   O638    1.221   .     D
C401   C488    1.485   .     S
C402   C489    1.495   .     S
C402   H553    1.085   .     S
C402   O639    1.220   .     D
C403   O640    1.221   .     D
C403   H554    1.084   .     S
C403   C491    1.492   .     S
C404   O641    1.221   .     D
C404   H555    1.085   .     S
C404   C492    1.492   .     S
C405   C493    1.491   .     S
C405   O643    1.221   .     D
C405   H557    1.085   .     S
C406   C494    1.491   .     S
C406   H558    1.083   .     S
C406   O644    1.221   .     D
C407   H559    1.083   .     S
C407   O645    1.221   .     D
C407   C495    1.492   .     S
C408   H560    1.085   .     S
C408   C496    1.492   .     S
C408   O646    1.221   .     D
C409   O647    1.221   .     D
C409   H561    1.085   .     S
C409   C497    1.491   .     S
C410   C439    1.464   .     S
C411   C440    1.464   .     S
C411   C413    1.404   .     A
C411   C125    1.404   1_655 S
C412   C1088   1.404   1_545 A
C412   C437    1.464   .     S
C412   C468    1.404   .     S
C413   H510    1.084   .     S
C414   C438    1.464   .     S
C414   C435    1.404   .     A
C414   C1143   1.404   1_545 S
C415   C443    1.464   .     S
C415   C490    1.404   .     A
C415   C1031   1.404   1_545 S
C416   C444    1.464   .     S
C416   C998    1.404   1_545 S
C417   C441    1.464   .     S
C418   C442    1.464   .     S
C419   H501    1.084   .     S
C419   C425    1.395   .     A
C419   C498    1.402   .     A
C420   C423    1.395   .     A
C420   H512    1.084   .     S
C420   C499    1.402   .     A
C421   C427    1.395   .     A
C421   C500    1.402   .     A
C421   H523    1.084   .     S
C422   H534    1.084   .     S
C422   C426    1.395   .     A
C423   H545    1.084   .     S
C424   C1076   1.404   .     A
C424   H511    1.084   .     S
C425   H556    1.084   .     S
C426   H562    1.084   .     S
C427   H563    1.084   .     S
C428   H564    1.084   .     S
C428   C433    1.395   1_556 S
C429   H502    1.084   .     S
C429   C432    1.395   1_554 S
C430   H503    1.084   .     S
C430   C436    1.395   1_556 S
C431   H504    1.084   .     S
C431   C434    1.395   1_554 S
C432   H505    1.084   .     S
C432   C429    1.395   1_556 S
C433   H506    1.084   .     S
C433   C428    1.395   1_554 S
C434   H507    1.084   .     S
C434   C431    1.395   1_556 S
C435   H513    1.084   .     S
C436   H508    1.084   .     S
C436   C430    1.395   1_554 S
C437   O1273   1.280   1_545 A
C437   O648    1.280   .     S
C438   O620    1.280   .     A
C438   O1230   1.280   1_545 S
C439   O631    1.280   .     A
C440   O642    1.280   .     A
C440   O236    1.280   1_655 S
C441   O573    1.280   .     A
C441   O569    1.280   .     A
C442   O574    1.280   .     A
C442   O570    1.280   .     A
C443   O575    1.280   .     A
C443   O571    1.280   .     A
C444   O577    1.280   .     A
C444   O572    1.280   .     A
C445   O578    1.279   .     A
C445   O606    1.276   .     A
C446   H514    1.084   .     S
C446   C498    1.395   .     A
C446   C78     1.404   1_655 S
C447   O579    1.276   .     A
C447   O607    1.279   .     A
C448   O580    1.279   .     A
C448   O604    1.277   .     A
C449   O605    1.279   .     A
C449   O581    1.276   .     A
C450   O582    1.277   .     A
C450   O611    1.279   .     A
C451   O583    1.278   .     A
C451   O612    1.278   .     A
C452   O584    1.277   .     A
C452   O608    1.278   .     A
C453   O585    1.276   .     A
C453   O610    1.278   .     A
C454   O586    1.279   .     A
C454   O597    1.276   .     A
C455   O588    1.277   .     A
C455   O599    1.279   .     A
C456   O589    1.279   .     A
C456   O595    1.276   .     A
C457   C499    1.395   .     A
C457   H515    1.084   .     S
C458   O590    1.276   .     A
C458   O596    1.279   .     A
C459   O602    1.277   .     A
C459   O591    1.279   .     A
C460   O592    1.278   .     A
C460   O603    1.277   .     A
C461   O600    1.277   .     A
C461   O593    1.278   .     A
C462   O601    1.277   .     A
C462   O594    1.279   .     A
C463   C480    1.410   .     A
C464   C478    1.409   .     A
C465   C477    1.409   .     A
C466   C476    1.410   .     A
C467   C475    1.410   .     A
C468   H516    1.084   .     S
C468   C500    1.395   .     A
C469   C474    1.409   .     A
C470   C473    1.407   .     A
C471   C472    1.411   .     A
C479   H517    1.084   .     S
C479   C1078   1.404   .     S
C481   C497    1.408   .     A
C482   C496    1.410   .     A
C483   C495    1.410   .     A
C484   C494    1.409   .     A
C485   C493    1.409   .     A
C486   C492    1.410   .     A
C487   C491    1.411   .     A
C488   C489    1.407   .     A
C490   H518    1.084   .     S
C498   C34     1.411   1_655 S
O565   Zn649   1.945   .     S
O565   Zn660   1.946   .     S
O565   Zn652   1.947   .     S
O565   Zn1320  1.946   1_545 S
O566   Zn651   1.952   .     S
O566   C1102   1.280   .     S
O567   Zn654   1.951   .     S
O567   C107    1.280   1_655 S
O568   Zn653   1.951   .     S
O569   Zn663   1.952   .     S
O570   Zn662   1.952   .     S
O571   Zn657   1.952   .     S
O572   Zn649   1.952   .     S
O573   Zn659   1.952   .     S
O574   Zn658   1.952   .     S
O575   Zn661   1.951   .     S
O576   Zn657   1.945   .     S
O576   Zn661   1.946   .     S
O576   Zn655   1.946   .     S
O576   Zn1315  1.947   1_545 S
O577   Zn660   1.951   .     S
O578   Zn652   1.932   .     S
O579   Zn651   1.932   .     S
O580   Zn654   1.931   .     S
O581   Zn653   1.931   .     S
O582   Zn656   1.933   .     S
O583   Zn655   1.933   .     S
O584   Zn650   1.932   .     S
O585   Zn664   1.932   .     S
O586   Zn651   1.931   .     S
O587   Zn650   1.945   .     S
O587   Zn658   1.947   .     S
O587   Zn662   1.946   .     S
O588   Zn652   1.931   .     S
O589   Zn664   1.933   .     S
O590   Zn650   1.933   .     S
O591   Zn655   1.931   .     S
O592   Zn656   1.931   .     S
O593   Zn653   1.933   .     S
O594   Zn654   1.933   .     S
O595   Zn327   1.932   1_655 S
O596   Zn658   1.932   .     S
O597   Zn1325  1.931   .     S
O598   Zn653   1.946   .     S
O598   Zn659   1.947   .     S
O598   Zn663   1.946   .     S
O599   Zn660   1.931   .     S
O600   Zn663   1.933   .     S
O601   Zn330   1.933   1_655 S
O602   Zn657   1.932   .     S
O603   Zn1313  1.932   .     S
O604   Zn326   1.931   1_655 S
O605   Zn659   1.931   .     S
O606   Zn649   1.933   .     S
O607   Zn1321  1.933   .     S
O608   Zn662   1.931   .     S
O609   C1101   1.280   .     A
O609   Zn656   1.952   .     S
O610   Zn331   1.931   1_655 S
O611   Zn1324  1.933   .     S
O612   Zn661   1.933   .     S
O620   Zn655   1.952   .     S
O631   Zn650   1.952   .     S
O642   Zn664   1.952   .     S
O648   Zn652   1.952   .     S
Zn649  O1267   1.932   1_545 S
Zn651  O1240   1.947   .     S
Zn654  O255    1.946   1_655 S
Zn656  O1229   1.946   .     S
Zn657  O1271   1.933   1_545 S
Zn660  O1275   1.933   1_545 S
Zn661  O1261   1.931   1_545 S
Zn664  O266    1.945   1_655 S
C665   C742    1.404   .     A
C665   H841    1.084   .     S
C665   C668    1.395   .     A
C666   C678    1.395   .     A
C666   H851    1.084   .     S
C666   C84     1.404   1_565 S
C667   C811    1.395   .     A
C667   C754    1.402   .     A
C667   C38     1.411   1_565 A
C668   C755    1.402   .     A
C668   C698    1.411   .     A
C669   C1032   1.411   .     A
C669   C745    1.395   .     A
C669   C757    1.402   .     A
C670   C758    1.402   .     A
C670   C756    1.395   .     A
C670   C37     1.411   1_565 A
C671   C767    1.395   .     A
C671   C759    1.402   .     A
C671   C702    1.411   .     S
C672   C699    1.395   .     A
C672   C760    1.402   .     A
C672   C39     1.411   1_565 S
C673   C761    1.402   .     A
C673   C710    1.395   .     A
C673   C704    1.411   .     A
C674   C705    1.411   .     A
C674   C762    1.402   .     A
C674   C721    1.395   .     A
C675   C763    1.402   .     A
C675   C732    1.395   .     A
C675   C1038   1.411   .     S
C676   C822    1.395   .     A
C676   C703    1.411   .     A
C676   C764    1.402   .     A
C677   H852    1.084   .     S
C677   C679    1.395   .     A
C677   C1081   1.404   .     S
C678   C765    1.402   .     A
C678   C40     1.411   1_565 S
C679   C766    1.402   .     A
C679   C1037   1.411   .     S
C680   C768    1.402   .     A
C680   C688    1.395   .     A
C680   C706    1.411   .     A
C681   C784    1.454   .     S
C681   C812    1.411   .     A
C681   C814    1.412   .     A
C682   C785    1.453   .     S
C682   C813    1.412   .     A
C682   C810    1.412   .     A
C683   C777    1.455   .     S
C683   C809    1.413   .     A
C683   C816    1.412   .     A
C684   C808    1.412   .     A
C684   C815    1.412   .     A
C684   C779    1.455   .     S
C685   C780    1.454   .     S
C685   C818    1.412   .     A
C685   C807    1.412   .     A
C686   C806    1.412   .     A
C686   C817    1.412   .     A
C686   C781    1.454   .     S
C687   C782    1.456   .     S
C687   C805    1.413   .     A
C687   C820    1.412   .     A
C688   C750    1.404   .     A
C688   H853    1.084   .     S
C689   C783    1.455   .     S
C689   C804    1.412   .     A
C689   C819    1.412   .     A
C690   C803    1.412   .     A
C690   C823    1.411   .     A
C690   C793    1.455   .     S
C691   C802    1.412   .     A
C691   C821    1.413   .     A
C691   C794    1.456   .     S
C692   C825    1.411   .     A
C692   C801    1.412   .     A
C692   C786    1.454   .     S
C693   C799    1.412   .     A
C693   C824    1.412   .     A
C693   C787    1.454   .     S
C694   C798    1.412   .     A
C694   C827    1.412   .     A
C694   C788    1.455   .     S
C695   C826    1.413   .     A
C695   C797    1.412   .     A
C695   C790    1.455   .     S
C696   C791    1.454   .     S
C696   C829    1.412   .     A
C696   C796    1.413   .     A
C697   C828    1.411   .     A
C697   C795    1.412   .     A
C697   C792    1.454   .     S
C698   C700    1.403   .     S
C698   C1162   1.411   1_455 S
C699   H854    1.084   .     S
C699   C83     1.404   1_565 S
C700   C1001   1.411   1_455 A
C700   C831    1.411   .     S
C701   C702    1.403   .     A
C701   C832    1.411   .     S
C703   C704    1.403   1_556 S
C704   C703    1.403   1_554 S
C705   C1011   1.411   1_455 S
C705   C706    1.403   1_556 S
C706   C1007   1.411   1_455 S
C706   C705    1.403   1_554 S
C707   C795    1.492   .     S
C707   O945    1.221   .     D
C707   H859    1.084   .     S
C708   H860    1.083   .     S
C708   C796    1.492   .     S
C708   O946    1.221   .     D
C709   O947    1.221   .     D
C709   C797    1.491   .     S
C709   H861    1.085   .     S
C710   H856    1.084   .     S
C710   C748    1.404   .     A
C711   H862    1.085   .     S
C711   C798    1.491   .     S
C711   O948    1.221   .     D
C712   C799    1.492   .     S
C712   H863    1.084   .     S
C712   O949    1.221   .     D
C713   C801    1.493   .     S
C713   O950    1.221   .     D
C713   H864    1.084   .     S
C714   C802    1.485   .     S
C714   O951    1.221   .     D
C714   H865    1.085   .     S
C715   O953    1.221   .     D
C715   C803    1.492   .     S
C715   H867    1.084   .     S
C716   H868    1.085   .     S
C716   O954    1.221   .     D
C716   C804    1.492   .     S
C717   O955    1.220   .     D
C717   C805    1.495   .     S
C717   H869    1.085   .     S
C718   O956    1.221   .     D
C718   H870    1.085   .     S
C718   C806    1.491   .     S
C719   C807    1.492   .     S
C719   O957    1.221   .     D
C719   H871    1.085   .     S
C720   O958    1.221   .     D
C720   H872    1.083   .     S
C720   C808    1.492   .     S
C721   C749    1.404   .     A
C721   H857    1.084   .     S
C722   H873    1.083   .     S
C722   O959    1.221   .     D
C722   C809    1.491   .     S
C723   H874    1.085   .     S
C723   O960    1.221   .     D
C723   C810    1.492   .     S
C724   C812    1.492   .     S
C724   O961    1.221   .     D
C724   H875    1.085   .     S
C725   C813    1.492   .     S
C725   H876    1.083   .     S
C725   O962    1.221   .     D
C726   H878    1.084   .     S
C726   C814    1.492   .     S
C726   O964    1.221   .     D
C727   C815    1.491   .     S
C727   H879    1.085   .     S
C727   O965    1.221   .     D
C728   C816    1.491   .     S
C728   O966    1.221   .     D
C728   H880    1.085   .     S
C729   H881    1.083   .     S
C729   C817    1.492   .     S
C729   O967    1.221   .     D
C730   O968    1.221   .     D
C730   C818    1.492   .     S
C730   H882    1.084   .     S
C731   O969    1.221   .     D
C731   H883    1.085   .     S
C731   C819    1.492   .     S
C732   H858    1.084   .     S
C732   C1082   1.404   .     S
C733   H884    1.085   .     S
C733   O970    1.221   .     D
C733   C820    1.485   .     S
C734   C821    1.495   .     S
C734   H885    1.085   .     S
C734   O971    1.220   .     D
C735   O972    1.221   .     D
C735   H886    1.084   .     S
C735   C823    1.492   .     S
C736   O973    1.221   .     D
C736   H887    1.085   .     S
C736   C824    1.492   .     S
C737   C825    1.491   .     S
C737   O975    1.221   .     D
C737   H889    1.085   .     S
C738   C826    1.491   .     S
C738   H890    1.083   .     S
C738   O976    1.221   .     D
C739   H891    1.083   .     S
C739   O977    1.221   .     D
C739   C827    1.492   .     S
C740   H892    1.085   .     S
C740   C828    1.492   .     S
C740   O978    1.221   .     D
C741   O979    1.221   .     D
C741   H893    1.085   .     S
C741   C829    1.491   .     S
C742   C771    1.464   .     S
C742   C1110   1.404   1_455 S
C743   C772    1.464   .     S
C743   C745    1.404   .     A
C743   C1121   1.404   .     S
C744   C769    1.464   .     S
C744   C800    1.404   .     S
C745   H842    1.084   .     S
C746   C770    1.464   .     S
C746   C767    1.404   .     A
C747   C775    1.464   .     S
C747   C822    1.404   .     A
C748   C776    1.464   .     S
C749   C773    1.464   .     S
C749   C1009   1.404   1_455 S
C750   C774    1.464   .     S
C750   C1064   1.404   1_455 S
C751   H833    1.084   .     S
C751   C757    1.395   .     A
C751   C830    1.402   .     A
C752   C755    1.395   .     A
C752   H844    1.084   .     S
C752   C831    1.402   .     A
C753   C759    1.395   .     A
C753   C832    1.402   .     A
C753   H855    1.084   .     S
C754   H866    1.084   .     S
C754   C758    1.395   .     A
C755   H877    1.084   .     S
C756   C80     1.404   1_565 A
C756   H843    1.084   .     S
C757   H888    1.084   .     S
C758   H894    1.084   .     S
C759   H895    1.084   .     S
C760   H896    1.084   .     S
C760   C765    1.395   1_556 S
C761   H834    1.084   .     S
C761   C764    1.395   1_554 S
C762   H835    1.084   .     S
C762   C768    1.395   1_556 S
C763   H836    1.084   .     S
C763   C766    1.395   1_554 S
C764   H837    1.084   .     S
C764   C761    1.395   1_556 S
C765   H838    1.084   .     S
C765   C760    1.395   1_554 S
C766   H839    1.084   .     S
C766   C763    1.395   1_556 S
C767   H845    1.084   .     S
C768   H840    1.084   .     S
C768   C762    1.395   1_554 S
C769   O980    1.280   .     S
C770   O952    1.280   .     A
C771   O963    1.280   .     A
C771   O1231   1.280   1_455 S
C772   O974    1.280   .     A
C772   O1232   1.280   .     S
C773   O905    1.280   .     A
C773   O901    1.280   .     A
C774   O906    1.280   .     A
C774   O902    1.280   .     A
C775   O907    1.280   .     A
C775   O903    1.280   .     A
C776   O909    1.280   .     A
C776   O904    1.280   .     A
C777   O910    1.279   .     A
C777   O938    1.276   .     A
C778   H846    1.084   .     S
C778   C830    1.395   .     A
C778   C1074   1.404   .     S
C779   O911    1.276   .     A
C779   O939    1.279   .     A
C780   O912    1.279   .     A
C780   O936    1.277   .     A
C781   O937    1.279   .     A
C781   O913    1.276   .     A
C782   O914    1.277   .     A
C782   O943    1.279   .     A
C783   O915    1.278   .     A
C783   O944    1.278   .     A
C784   O916    1.277   .     A
C784   O940    1.278   .     A
C785   O917    1.276   .     A
C785   O942    1.278   .     A
C786   O918    1.279   .     A
C786   O929    1.276   .     A
C787   O920    1.277   .     A
C787   O931    1.279   .     A
C788   O921    1.279   .     A
C788   O927    1.276   .     A
C789   C831    1.395   .     A
C789   H847    1.084   .     S
C789   C1075   1.404   1_455 S
C790   O922    1.276   .     A
C790   O928    1.279   .     A
C791   O934    1.277   .     A
C791   O923    1.279   .     A
C792   O924    1.278   .     A
C792   O935    1.277   .     A
C793   O932    1.277   .     A
C793   O925    1.278   .     A
C794   O933    1.277   .     A
C794   O926    1.279   .     A
C795   C812    1.410   .     A
C796   C810    1.409   .     A
C797   C809    1.409   .     A
C798   C808    1.410   .     A
C799   C807    1.410   .     A
C800   H848    1.084   .     S
C800   C832    1.395   .     A
C801   C806    1.409   .     A
C802   C805    1.407   .     A
C803   C804    1.411   .     A
C811   H849    1.084   .     S
C811   C82     1.404   1_565 S
C813   C829    1.408   .     A
C814   C828    1.410   .     A
C815   C827    1.410   .     A
C816   C826    1.409   .     A
C817   C825    1.409   .     A
C818   C824    1.410   .     A
C819   C823    1.411   .     A
C820   C821    1.407   .     A
C822   H850    1.084   .     S
C830   C1030   1.411   .     S
O897   Zn981   1.945   .     S
O897   Zn992   1.946   .     S
O897   Zn984   1.947   .     S
O898   Zn983   1.952   .     S
O898   C106    1.280   1_565 S
O899   Zn986   1.951   .     S
O899   C1103   1.280   .     S
O900   Zn985   1.951   .     S
O900   C1104   1.280   1_455 S
O901   Zn995   1.952   .     S
O902   Zn994   1.952   .     S
O903   Zn989   1.952   .     S
O904   Zn981   1.952   .     S
O905   Zn991   1.952   .     S
O906   Zn990   1.952   .     S
O907   Zn993   1.951   .     S
O908   Zn989   1.945   .     S
O908   Zn993   1.946   .     S
O908   Zn987   1.946   .     S
O909   Zn992   1.951   .     S
O910   Zn984   1.932   .     S
O911   Zn983   1.932   .     S
O912   Zn986   1.931   .     S
O913   Zn985   1.931   .     S
O914   Zn988   1.933   .     S
O915   Zn987   1.933   .     S
O916   Zn982   1.932   .     S
O917   Zn996   1.932   .     S
O918   Zn983   1.931   .     S
O919   Zn982   1.945   .     S
O919   Zn990   1.947   .     S
O919   Zn1318  1.946   1_455 S
O919   Zn994   1.946   .     S
O920   Zn984   1.931   .     S
O921   Zn996   1.933   .     S
O922   Zn982   1.933   .     S
O923   Zn987   1.931   .     S
O924   Zn988   1.931   .     S
O925   Zn985   1.933   .     S
O926   Zn986   1.933   .     S
O927   Zn1323  1.932   .     S
O928   Zn990   1.932   .     S
O929   Zn329   1.931   1_565 S
O930   Zn985   1.946   .     S
O930   Zn991   1.947   .     S
O930   Zn995   1.946   .     S
O930   Zn1328  1.945   1_455 S
O931   Zn992   1.931   .     S
O932   Zn995   1.933   .     S
O933   Zn1326  1.933   .     S
O934   Zn989   1.932   .     S
O935   Zn317   1.932   1_565 S
O936   Zn1322  1.931   .     S
O937   Zn991   1.931   .     S
O938   Zn981   1.933   .     S
O939   Zn325   1.933   1_565 S
O940   Zn994   1.931   .     S
O941   C105    1.280   1_565 A
O941   Zn988   1.952   .     S
O942   Zn1327  1.931   .     S
O943   Zn328   1.933   1_565 S
O944   Zn993   1.933   .     S
O952   Zn987   1.952   .     S
O963   Zn982   1.952   .     S
O974   Zn996   1.952   .     S
O980   Zn984   1.952   .     S
Zn983  O244    1.947   1_565 S
Zn986  O1251   1.946   .     S
Zn988  O233    1.946   1_565 S
Zn990  O1268   1.931   1_455 S
Zn991  O1259   1.932   1_455 S
Zn994  O1265   1.933   1_455 S
Zn995  O1274   1.931   1_455 S
Zn996  O1262   1.945   .     S
C997   C1074   1.404   .     A
C997   H1173   1.084   .     S
C997   C1000   1.395   .     A
C998   C1010   1.395   .     A
C998   H1183   1.084   .     S
C998   C416    1.404   1_565 S
C999   C1143   1.395   .     A
C999   C1086   1.402   .     A
C999   C370    1.411   1_565 A
C1000  C1087   1.402   .     A
C1000  C1030   1.411   .     A
C1001  C700    1.411   1_655 A
C1001  C1077   1.395   .     A
C1001  C1089   1.402   .     A
C1002  C1090   1.402   .     A
C1002  C1088   1.395   .     A
C1002  C369    1.411   1_565 A
C1003  C1099   1.395   .     A
C1003  C1091   1.402   .     A
C1003  C1034   1.411   .     S
C1004  C1031   1.395   .     A
C1004  C1092   1.402   .     A
C1004  C371    1.411   1_565 S
C1005  C1093   1.402   .     A
C1005  C1042   1.395   .     A
C1005  C1036   1.411   .     A
C1006  C1037   1.411   .     A
C1006  C1094   1.402   .     A
C1006  C1053   1.395   .     A
C1007  C1095   1.402   .     A
C1007  C1064   1.395   .     A
C1007  C706    1.411   1_655 S
C1008  C1154   1.395   .     A
C1008  C1035   1.411   .     A
C1008  C1096   1.402   .     A
C1009  H1184   1.084   .     S
C1009  C1011   1.395   .     A
C1009  C749    1.404   1_655 S
C1010  C1097   1.402   .     A
C1010  C372    1.411   1_565 S
C1011  C1098   1.402   .     A
C1011  C705    1.411   1_655 S
C1012  C1100   1.402   .     A
C1012  C1020   1.395   .     A
C1012  C1038   1.411   .     A
C1013  C1116   1.454   .     S
C1013  C1144   1.411   .     A
C1013  C1146   1.412   .     A
C1014  C1117   1.453   .     S
C1014  C1145   1.412   .     A
C1014  C1142   1.412   .     A
C1015  C1109   1.455   .     S
C1015  C1141   1.413   .     A
C1015  C1148   1.412   .     A
C1016  C1140   1.412   .     A
C1016  C1147   1.412   .     A
C1016  C1111   1.455   .     S
C1017  C1112   1.454   .     S
C1017  C1150   1.412   .     A
C1017  C1139   1.412   .     A
C1018  C1138   1.412   .     A
C1018  C1149   1.412   .     A
C1018  C1113   1.454   .     S
C1019  C1114   1.456   .     S
C1019  C1137   1.413   .     A
C1019  C1152   1.412   .     A
C1020  C1082   1.404   .     A
C1020  H1185   1.084   .     S
C1021  C1115   1.455   .     S
C1021  C1136   1.412   .     A
C1021  C1151   1.412   .     A
C1022  C1135   1.412   .     A
C1022  C1155   1.411   .     A
C1022  C1125   1.455   .     S
C1023  C1134   1.412   .     A
C1023  C1153   1.413   .     A
C1023  C1126   1.456   .     S
C1024  C1157   1.411   .     A
C1024  C1133   1.412   .     A
C1024  C1118   1.454   .     S
C1025  C1131   1.412   .     A
C1025  C1156   1.412   .     A
C1025  C1119   1.454   .     S
C1026  C1130   1.412   .     A
C1026  C1159   1.412   .     A
C1026  C1120   1.455   .     S
C1027  C1158   1.413   .     A
C1027  C1129   1.412   .     A
C1027  C1122   1.455   .     S
C1028  C1123   1.454   .     S
C1028  C1161   1.412   .     A
C1028  C1128   1.413   .     A
C1029  C1160   1.411   .     A
C1029  C1127   1.412   .     A
C1029  C1124   1.454   .     S
C1030  C1032   1.403   .     S
C1031  H1186   1.084   .     S
C1031  C415    1.404   1_565 S
C1032  C1163   1.411   .     S
C1033  C1034   1.403   .     A
C1033  C1164   1.411   .     S
C1035  C1036   1.403   1_556 S
C1036  C1035   1.403   1_554 S
C1037  C1038   1.403   1_556 S
C1038  C1037   1.403   1_554 S
C1039  C1127   1.492   .     S
C1039  O1277   1.221   .     D
C1039  H1191   1.084   .     S
C1040  H1192   1.083   .     S
C1040  C1128   1.492   .     S
C1040  O1278   1.221   .     D
C1041  O1279   1.221   .     D
C1041  C1129   1.491   .     S
C1041  H1193   1.085   .     S
C1042  H1188   1.084   .     S
C1042  C1080   1.404   .     A
C1043  H1194   1.085   .     S
C1043  C1130   1.491   .     S
C1043  O1280   1.221   .     D
C1044  C1131   1.492   .     S
C1044  H1195   1.084   .     S
C1044  O1281   1.221   .     D
C1045  C1133   1.493   .     S
C1045  O1282   1.221   .     D
C1045  H1196   1.084   .     S
C1046  C1134   1.485   .     S
C1046  O1283   1.221   .     D
C1046  H1197   1.085   .     S
C1047  O1285   1.221   .     D
C1047  C1135   1.492   .     S
C1047  H1199   1.084   .     S
C1048  H1200   1.085   .     S
C1048  O1286   1.221   .     D
C1048  C1136   1.492   .     S
C1049  O1287   1.220   .     D
C1049  C1137   1.495   .     S
C1049  H1201   1.085   .     S
C1050  O1288   1.221   .     D
C1050  H1202   1.085   .     S
C1050  C1138   1.491   .     S
C1051  C1139   1.492   .     S
C1051  O1289   1.221   .     D
C1051  H1203   1.085   .     S
C1052  O1290   1.221   .     D
C1052  H1204   1.083   .     S
C1052  C1140   1.492   .     S
C1053  C1081   1.404   .     A
C1053  H1189   1.084   .     S
C1054  H1205   1.083   .     S
C1054  O1291   1.221   .     D
C1054  C1141   1.491   .     S
C1055  H1206   1.085   .     S
C1055  O1292   1.221   .     D
C1055  C1142   1.492   .     S
C1056  C1144   1.492   .     S
C1056  O1293   1.221   .     D
C1056  H1207   1.085   .     S
C1057  C1145   1.492   .     S
C1057  H1208   1.083   .     S
C1057  O1294   1.221   .     D
C1058  H1210   1.084   .     S
C1058  C1146   1.492   .     S
C1058  O1296   1.221   .     D
C1059  C1147   1.491   .     S
C1059  H1211   1.085   .     S
C1059  O1297   1.221   .     D
C1060  C1148   1.491   .     S
C1060  O1298   1.221   .     D
C1060  H1212   1.085   .     S
C1061  H1213   1.083   .     S
C1061  C1149   1.492   .     S
C1061  O1299   1.221   .     D
C1062  O1300   1.221   .     D
C1062  C1150   1.492   .     S
C1062  H1214   1.084   .     S
C1063  O1301   1.221   .     D
C1063  H1215   1.085   .     S
C1063  C1151   1.492   .     S
C1064  H1190   1.084   .     S
C1064  C750    1.404   1_655 S
C1065  H1216   1.085   .     S
C1065  O1302   1.221   .     D
C1065  C1152   1.485   .     S
C1066  C1153   1.495   .     S
C1066  H1217   1.085   .     S
C1066  O1303   1.220   .     D
C1067  O1304   1.221   .     D
C1067  H1218   1.084   .     S
C1067  C1155   1.492   .     S
C1068  O1305   1.221   .     D
C1068  H1219   1.085   .     S
C1068  C1156   1.492   .     S
C1069  C1157   1.491   .     S
C1069  O1307   1.221   .     D
C1069  H1221   1.085   .     S
C1070  C1158   1.491   .     S
C1070  H1222   1.083   .     S
C1070  O1308   1.221   .     D
C1071  H1223   1.083   .     S
C1071  O1309   1.221   .     D
C1071  C1159   1.492   .     S
C1072  H1224   1.085   .     S
C1072  C1160   1.492   .     S
C1072  O1310   1.221   .     D
C1073  O1311   1.221   .     D
C1073  H1225   1.085   .     S
C1073  C1161   1.491   .     S
C1074  C1103   1.464   .     S
C1075  C1104   1.464   .     S
C1075  C1077   1.404   .     A
C1075  C789    1.404   1_655 S
C1076  C1101   1.464   .     S
C1076  C1132   1.404   .     S
C1077  H1174   1.084   .     S
C1078  C1102   1.464   .     S
C1078  C1099   1.404   .     A
C1079  C1107   1.464   .     S
C1079  C1154   1.404   .     A
C1080  C1108   1.464   .     S
C1081  C1105   1.464   .     S
C1082  C1106   1.464   .     S
C1083  H1165   1.084   .     S
C1083  C1089   1.395   .     A
C1083  C1162   1.402   .     A
C1084  C1087   1.395   .     A
C1084  H1176   1.084   .     S
C1084  C1163   1.402   .     A
C1085  C1091   1.395   .     A
C1085  C1164   1.402   .     A
C1085  H1187   1.084   .     S
C1086  H1198   1.084   .     S
C1086  C1090   1.395   .     A
C1087  H1209   1.084   .     S
C1088  C412    1.404   1_565 A
C1088  H1175   1.084   .     S
C1089  H1220   1.084   .     S
C1090  H1226   1.084   .     S
C1091  H1227   1.084   .     S
C1092  H1228   1.084   .     S
C1092  C1097   1.395   1_556 S
C1093  H1166   1.084   .     S
C1093  C1096   1.395   1_554 S
C1094  H1167   1.084   .     S
C1094  C1100   1.395   1_556 S
C1095  H1168   1.084   .     S
C1095  C1098   1.395   1_554 S
C1096  H1169   1.084   .     S
C1096  C1093   1.395   1_556 S
C1097  H1170   1.084   .     S
C1097  C1092   1.395   1_554 S
C1098  H1171   1.084   .     S
C1098  C1095   1.395   1_556 S
C1099  H1177   1.084   .     S
C1100  H1172   1.084   .     S
C1100  C1094   1.395   1_554 S
C1101  O1312   1.280   .     S
C1102  O1284   1.280   .     A
C1103  O1295   1.280   .     A
C1104  O1306   1.280   .     A
C1104  O900    1.280   1_655 S
C1105  O1237   1.280   .     A
C1105  O1233   1.280   .     A
C1106  O1238   1.280   .     A
C1106  O1234   1.280   .     A
C1107  O1239   1.280   .     A
C1107  O1235   1.280   .     A
C1108  O1241   1.280   .     A
C1108  O1236   1.280   .     A
C1109  O1242   1.279   .     A
C1109  O1270   1.276   .     A
C1110  H1178   1.084   .     S
C1110  C1162   1.395   .     A
C1110  C742    1.404   1_655 S
C1111  O1243   1.276   .     A
C1111  O1271   1.279   .     A
C1112  O1244   1.279   .     A
C1112  O1268   1.277   .     A
C1113  O1269   1.279   .     A
C1113  O1245   1.276   .     A
C1114  O1246   1.277   .     A
C1114  O1275   1.279   .     A
C1115  O1247   1.278   .     A
C1115  O1276   1.278   .     A
C1116  O1248   1.277   .     A
C1116  O1272   1.278   .     A
C1117  O1249   1.276   .     A
C1117  O1274   1.278   .     A
C1118  O1250   1.279   .     A
C1118  O1261   1.276   .     A
C1119  O1252   1.277   .     A
C1119  O1263   1.279   .     A
C1120  O1253   1.279   .     A
C1120  O1259   1.276   .     A
C1121  C1163   1.395   .     A
C1121  H1179   1.084   .     S
C1122  O1254   1.276   .     A
C1122  O1260   1.279   .     A
C1123  O1266   1.277   .     A
C1123  O1255   1.279   .     A
C1124  O1256   1.278   .     A
C1124  O1267   1.277   .     A
C1125  O1264   1.277   .     A
C1125  O1257   1.278   .     A
C1126  O1265   1.277   .     A
C1126  O1258   1.279   .     A
C1127  C1144   1.410   .     A
C1128  C1142   1.409   .     A
C1129  C1141   1.409   .     A
C1130  C1140   1.410   .     A
C1131  C1139   1.410   .     A
C1132  H1180   1.084   .     S
C1132  C1164   1.395   .     A
C1133  C1138   1.409   .     A
C1134  C1137   1.407   .     A
C1135  C1136   1.411   .     A
C1143  H1181   1.084   .     S
C1143  C414    1.404   1_565 S
C1145  C1161   1.408   .     A
C1146  C1160   1.410   .     A
C1147  C1159   1.410   .     A
C1148  C1158   1.409   .     A
C1149  C1157   1.409   .     A
C1150  C1156   1.410   .     A
C1151  C1155   1.411   .     A
C1152  C1153   1.407   .     A
C1154  H1182   1.084   .     S
C1162  C698    1.411   1_655 S
O1229  Zn1313  1.945   .     S
O1229  Zn1324  1.946   .     S
O1229  Zn1316  1.947   .     S
O1230  Zn1315  1.952   .     S
O1230  C438    1.280   1_565 S
O1231  Zn1318  1.951   .     S
O1231  C771    1.280   1_655 S
O1232  Zn1317  1.951   .     S
O1233  Zn1327  1.952   .     S
O1234  Zn1326  1.952   .     S
O1235  Zn1321  1.952   .     S
O1236  Zn1313  1.952   .     S
O1237  Zn1323  1.952   .     S
O1238  Zn1322  1.952   .     S
O1239  Zn1325  1.951   .     S
O1240  Zn1321  1.945   .     S
O1240  Zn1325  1.946   .     S
O1240  Zn1319  1.946   .     S
O1241  Zn1324  1.951   .     S
O1242  Zn1316  1.932   .     S
O1243  Zn1315  1.932   .     S
O1244  Zn1318  1.931   .     S
O1245  Zn1317  1.931   .     S
O1246  Zn1320  1.933   .     S
O1247  Zn1319  1.933   .     S
O1248  Zn1314  1.932   .     S
O1249  Zn1328  1.932   .     S
O1250  Zn1315  1.931   .     S
O1251  Zn1314  1.945   .     S
O1251  Zn1322  1.947   .     S
O1251  Zn1326  1.946   .     S
O1252  Zn1316  1.931   .     S
O1253  Zn1328  1.933   .     S
O1254  Zn1314  1.933   .     S
O1255  Zn1319  1.931   .     S
O1256  Zn1320  1.931   .     S
O1257  Zn1317  1.933   .     S
O1258  Zn1318  1.933   .     S
O1259  Zn991   1.932   1_655 S
O1260  Zn1322  1.932   .     S
O1261  Zn661   1.931   1_565 S
O1262  Zn1317  1.946   .     S
O1262  Zn1323  1.947   .     S
O1262  Zn1327  1.946   .     S
O1263  Zn1324  1.931   .     S
O1264  Zn1327  1.933   .     S
O1265  Zn994   1.933   1_655 S
O1266  Zn1321  1.932   .     S
O1267  Zn649   1.932   1_565 S
O1268  Zn990   1.931   1_655 S
O1269  Zn1323  1.931   .     S
O1270  Zn1313  1.933   .     S
O1271  Zn657   1.933   1_565 S
O1272  Zn1326  1.931   .     S
O1273  C437    1.280   1_565 A
O1273  Zn1320  1.952   .     S
O1274  Zn995   1.931   1_655 S
O1275  Zn660   1.933   1_565 S
O1276  Zn1325  1.933   .     S
O1284  Zn1319  1.952   .     S
O1295  Zn1314  1.952   .     S
O1306  Zn1328  1.952   .     S
O1312  Zn1316  1.952   .     S
Zn1315 O576    1.947   1_565 S
Zn1318 O919    1.946   1_655 S
Zn1320 O565    1.946   1_565 S
Zn1328 O930    1.945   1_655 S
