data_str_m2_o2_o10_pcu_sym.10
_audit_creation_date              2020-01-03
_audit_creation_method            'Materials Studio'
_symmetry_space_group_name_H-M    'P1'
_symmetry_Int_Tables_number       1
_symmetry_cell_setting            triclinic
loop_
_symmetry_equiv_pos_as_xyz
  x,y,z
_cell_length_a                    26.2058
_cell_length_b                    30.2605
_cell_length_c                    27.8091
_cell_angle_alpha                 87.5067
_cell_angle_beta                  96.5697
_cell_angle_gamma                 90.2261
loop_
_atom_site_label
_atom_site_type_symbol
_atom_site_fract_x
_atom_site_fract_y
_atom_site_fract_z
_atom_site_U_iso_or_equiv
_atom_site_adp_type
_atom_site_occupancy
C1     C     0.16716   0.16467   0.25079   0.00000  Uiso   1.00
C2     C     0.18670   0.28589   0.44646   0.00000  Uiso   1.00
C3     C     0.16496   0.24794   0.02745   0.00000  Uiso   1.00
C4     C     0.16474   0.25004   0.47238   0.00000  Uiso   1.00
C5     C     0.06823   0.24887   0.23829   0.00000  Uiso   1.00
C6     C     0.26502   0.25092   0.26193   0.00000  Uiso   1.00
C7     C     0.01412   0.24075   0.23444   0.00000  Uiso   1.00
C8     C     0.31932   0.25749   0.26728   0.00000  Uiso   1.00
C9     C     0.16640   0.04205   0.28794   0.00000  Uiso   1.00
C10    C     0.13743   0.45359   0.21081   0.00000  Uiso   1.00
C11    C     0.16744   0.08772   0.29261   0.00000  Uiso   1.00
C12    C     0.16600   0.33485   0.24882   0.00000  Uiso   1.00
C13    C     0.13497   0.40767   0.21104   0.00000  Uiso   1.00
C14    C     0.16805   0.11581   0.25063   0.00000  Uiso   1.00
C15    C     0.16768   0.38282   0.24587   0.00000  Uiso   1.00
C16    C     0.16951   0.09662   0.20554   0.00000  Uiso   1.00
C17    C     0.20402   0.40390   0.27774   0.00000  Uiso   1.00
C18    C     0.17257   0.05101   0.20155   0.00000  Uiso   1.00
C19    C     0.20848   0.44989   0.27609   0.00000  Uiso   1.00
C20    C     0.17130   0.02343   0.24359   0.00000  Uiso   1.00
C21    C     0.17381   0.47498   0.24269   0.00000  Uiso   1.00
C22    C     0.32739   0.20627   0.20063   0.00000  Uiso   1.00
C23    C     0.20724   0.26498   0.05721   0.00000  Uiso   1.00
C24    C     0.32023   0.21565   0.15048   0.00000  Uiso   1.00
C25    C     0.29849   0.18389   0.11933   0.00000  Uiso   1.00
C26    C     0.28524   0.14223   0.13777   0.00000  Uiso   1.00
C27    C     0.29344   0.13232   0.18760   0.00000  Uiso   1.00
C28    C     0.31413   0.16428   0.21902   0.00000  Uiso   1.00
C29    C     0.00578   0.28902   0.30465   0.00000  Uiso   1.00
C30    C     0.00098   0.33472   0.29445   0.00000  Uiso   1.00
C31    C     0.01761   0.36457   0.32994   0.00000  Uiso   1.00
C32    C     0.03857   0.34891   0.37599   0.00000  Uiso   1.00
C33    C     0.04241   0.30340   0.38675   0.00000  Uiso   1.00
C34    C     0.14410   0.21505   0.44436   0.00000  Uiso   1.00
C35    C     0.02548   0.27347   0.35142   0.00000  Uiso   1.00
C36    C     0.17464   0.10319   0.34243   0.00000  Uiso   1.00
C37    C     0.22023   0.12500   0.35870   0.00000  Uiso   1.00
C38    C     0.23075   0.13477   0.40724   0.00000  Uiso   1.00
C39    C     0.19712   0.12102   0.44056   0.00000  Uiso   1.00
C40    C     0.15175   0.09897   0.42475   0.00000  Uiso   1.00
C41    C     0.14036   0.09016   0.37578   0.00000  Uiso   1.00
C42    C     0.09598   0.38679   0.17644   0.00000  Uiso   1.00
C43    C     0.11001   0.36887   0.13405   0.00000  Uiso   1.00
C44    C     0.07314   0.34826   0.10212   0.00000  Uiso   1.00
C45    C     0.20661   0.26707   0.10744   0.00000  Uiso   1.00
C46    C     0.02198   0.34616   0.11185   0.00000  Uiso   1.00
C47    C     0.00757   0.36492   0.15335   0.00000  Uiso   1.00
C48    C     0.04440   0.38542   0.18543   0.00000  Uiso   1.00
C49    C     0.17906   0.03406   0.15329   0.00000  Uiso   1.00
C50    C     0.22109   0.00707   0.14704   0.00000  Uiso   1.00
C51    C     0.22881   0.49377   0.10096   0.00000  Uiso   1.00
C52    C     0.19469   0.00723   0.06068   0.00000  Uiso   1.00
C53    C     0.15259   0.03382   0.06652   0.00000  Uiso   1.00
C54    C     0.14479   0.04728   0.11257   0.00000  Uiso   1.00
C55    C     0.24924   0.47038   0.30989   0.00000  Uiso   1.00
C56    C     0.14411   0.21621   0.39395   0.00000  Uiso   1.00
C57    C     0.28277   0.00243   0.29301   0.00000  Uiso   1.00
C58    C     0.32060   0.02161   0.32512   0.00000  Uiso   1.00
C59    C     0.32562   0.00885   0.37430   0.00000  Uiso   1.00
C60    C     0.29285   0.47683   0.39147   0.00000  Uiso   1.00
C61    C     0.25489   0.45760   0.35952   0.00000  Uiso   1.00
C62    C     0.08229   0.20228   0.02972   0.00000  Uiso   1.00
C63    C     0.03747   0.22234   0.00647   0.00000  Uiso   1.00
C64    C     0.32779   0.19631   0.49277   0.00000  Uiso   1.00
C65    C     0.32948   0.15051   0.00291   0.00000  Uiso   1.00
C66    C     0.04104   0.13043   0.02505   0.00000  Uiso   1.00
C67    C     0.12695   0.23057   0.10283   0.00000  Uiso   1.00
C68    C     0.08396   0.15619   0.03861   0.00000  Uiso   1.00
C69    C     0.20788   0.32622   0.46945   0.00000  Uiso   1.00
C70    C     0.17736   0.35277   0.49495   0.00000  Uiso   1.00
C71    C     0.19798   0.39093   0.01619   0.00000  Uiso   1.00
C72    C     0.24883   0.40301   0.01156   0.00000  Uiso   1.00
C73    C     0.27925   0.37694   0.48596   0.00000  Uiso   1.00
C74    C     0.25891   0.33873   0.46487   0.00000  Uiso   1.00
C75    C     0.18808   0.28413   0.39597   0.00000  Uiso   1.00
C76    C     0.12479   0.22878   0.05221   0.00000  Uiso   1.00
Cu77   Cu    0.16667   0.25000   0.29821   0.00000  Uiso   1.00
Cu78   Cu    0.16667   0.25001   0.20178   0.00000  Uiso   1.00
H79    H     0.16474   0.02053   0.31995   0.00000  Uiso   1.00
H80    H     0.20563   0.31089   0.37669   0.00000  Uiso   1.00
H81    H     0.33011   0.24786   0.13573   0.00000  Uiso   1.00
H82    H     0.29118   0.19186   0.08098   0.00000  Uiso   1.00
H83    H     0.26843   0.11773   0.11350   0.00000  Uiso   1.00
H84    H     0.28330   0.10003   0.20192   0.00000  Uiso   1.00
H85    H     0.31955   0.15649   0.25766   0.00000  Uiso   1.00
H86    H     0.31696   0.34704   0.25928   0.00000  Uiso   1.00
H87    H     0.01392   0.39981   0.32183   0.00000  Uiso   1.00
H88    H     0.05143   0.37202   0.40346   0.00000  Uiso   1.00
H89    H     0.05834   0.29135   0.42249   0.00000  Uiso   1.00
H90    H     0.11021   0.47283   0.18610   0.00000  Uiso   1.00
H91    H     0.02805   0.23827   0.36028   0.00000  Uiso   1.00
H92    H     0.24784   0.13410   0.33382   0.00000  Uiso   1.00
H93    H     0.26509   0.15303   0.41843   0.00000  Uiso   1.00
H94    H     0.20538   0.12841   0.47837   0.00000  Uiso   1.00
H95    H     0.12543   0.08878   0.45040   0.00000  Uiso   1.00
H96    H     0.10553   0.07237   0.36400   0.00000  Uiso   1.00
H97    H     0.14954   0.37033   0.12615   0.00000  Uiso   1.00
H98    H     0.08422   0.33384   0.06992   0.00000  Uiso   1.00
H99    H     0.32682   0.33017   0.08715   0.00000  Uiso   1.00
H100   H     0.30121   0.36356   0.16066   0.00000  Uiso   1.00
H101   H     0.17063   0.11730   0.17286   0.00000  Uiso   1.00
H102   H     0.03290   0.40016   0.21731   0.00000  Uiso   1.00
H103   H     0.24842   0.49687   0.17750   0.00000  Uiso   1.00
H104   H     0.26165   0.47343   0.09663   0.00000  Uiso   1.00
H105   H     0.20092   0.49721   0.02492   0.00000  Uiso   1.00
H106   H     0.12620   0.04424   0.03532   0.00000  Uiso   1.00
H107   H     0.11217   0.06816   0.11649   0.00000  Uiso   1.00
H108   H     0.27979   0.01270   0.25512   0.00000  Uiso   1.00
H109   H     0.01274   0.04637   0.31182   0.00000  Uiso   1.00
H110   H     0.02159   0.02376   0.39909   0.00000  Uiso   1.00
H111   H     0.29675   0.46699   0.42960   0.00000  Uiso   1.00
H112   H     0.23000   0.38417   0.30320   0.00000  Uiso   1.00
H113   H     0.22955   0.43314   0.37363   0.00000  Uiso   1.00
H114   H     0.03519   0.25794   0.00087   0.00000  Uiso   1.00
H115   H     0.29262   0.21183   0.47606   0.00000  Uiso   1.00
H116   H     0.29588   0.13034   0.49493   0.00000  Uiso   1.00
H117   H     0.04210   0.09508   0.03288   0.00000  Uiso   1.00
H118   H     0.11814   0.14049   0.05732   0.00000  Uiso   1.00
H119   H     0.13781   0.34389   0.49832   0.00000  Uiso   1.00
H120   H     0.17447   0.41119   0.03607   0.00000  Uiso   1.00
H121   H     0.26481   0.43263   0.02754   0.00000  Uiso   1.00
H122   H     0.31860   0.38633   0.48245   0.00000  Uiso   1.00
H123   H     0.24144   0.27628   0.04215   0.00000  Uiso   1.00
H124   H     0.28302   0.31865   0.44533   0.00000  Uiso   1.00
H125   H     0.12922   0.18567   0.46073   0.00000  Uiso   1.00
H126   H     0.23870   0.28172   0.12901   0.00000  Uiso   1.00
H127   H     0.12681   0.18936   0.37347   0.00000  Uiso   1.00
H128   H     0.09691   0.21518   0.12136   0.00000  Uiso   1.00
N129   N     0.16667   0.25001   0.12934   0.00000  Uiso   1.00
N130   N     0.16667   0.24999   0.37065   0.00000  Uiso   1.00
O131   O     0.16667   0.18573   0.29071   0.00000  Uiso   1.00
O132   O     0.16666   0.31428   0.20928   0.00000  Uiso   1.00
O133   O     0.16667   0.18573   0.20928   0.00000  Uiso   1.00
O134   O     0.16666   0.31427   0.29072   0.00000  Uiso   1.00
O135   O     0.09161   0.25000   0.28132   0.00000  Uiso   1.00
O136   O     0.24172   0.25001   0.21868   0.00000  Uiso   1.00
O137   O     0.09161   0.25000   0.19988   0.00000  Uiso   1.00
O138   O     0.24172   0.25000   0.30011   0.00000  Uiso   1.00
C139   C     0.50050   0.16467   0.25079   0.00000  Uiso   1.00
C140   C     0.52003   0.28589   0.44646   0.00000  Uiso   1.00
C141   C     0.49829   0.24794   0.02745   0.00000  Uiso   1.00
C142   C     0.49807   0.25004   0.47238   0.00000  Uiso   1.00
C143   C     0.40157   0.24887   0.23829   0.00000  Uiso   1.00
C144   C     0.59835   0.25092   0.26193   0.00000  Uiso   1.00
C145   C     0.34746   0.24075   0.23444   0.00000  Uiso   1.00
C146   C     0.65265   0.25749   0.26728   0.00000  Uiso   1.00
C147   C     0.49974   0.04205   0.28794   0.00000  Uiso   1.00
C148   C     0.47077   0.45359   0.21081   0.00000  Uiso   1.00
C149   C     0.50078   0.08772   0.29261   0.00000  Uiso   1.00
C150   C     0.49933   0.33485   0.24882   0.00000  Uiso   1.00
C151   C     0.46830   0.40767   0.21104   0.00000  Uiso   1.00
C152   C     0.50139   0.11581   0.25063   0.00000  Uiso   1.00
C153   C     0.50101   0.38282   0.24587   0.00000  Uiso   1.00
C154   C     0.50284   0.09662   0.20554   0.00000  Uiso   1.00
C155   C     0.53736   0.40390   0.27774   0.00000  Uiso   1.00
C156   C     0.50590   0.05101   0.20155   0.00000  Uiso   1.00
C157   C     0.54181   0.44989   0.27609   0.00000  Uiso   1.00
C158   C     0.50463   0.02343   0.24359   0.00000  Uiso   1.00
C159   C     0.50714   0.47498   0.24269   0.00000  Uiso   1.00
C160   C     0.66072   0.20627   0.20063   0.00000  Uiso   1.00
C161   C     0.54058   0.26498   0.05721   0.00000  Uiso   1.00
C162   C     0.65356   0.21565   0.15048   0.00000  Uiso   1.00
C163   C     0.63182   0.18389   0.11933   0.00000  Uiso   1.00
C164   C     0.61857   0.14223   0.13777   0.00000  Uiso   1.00
C165   C     0.62677   0.13232   0.18760   0.00000  Uiso   1.00
C166   C     0.64746   0.16428   0.21902   0.00000  Uiso   1.00
C167   C     0.33912   0.28902   0.30465   0.00000  Uiso   1.00
C168   C     0.33431   0.33472   0.29445   0.00000  Uiso   1.00
C169   C     0.35094   0.36457   0.32994   0.00000  Uiso   1.00
C170   C     0.37191   0.34891   0.37599   0.00000  Uiso   1.00
C171   C     0.37574   0.30340   0.38675   0.00000  Uiso   1.00
C172   C     0.47743   0.21505   0.44436   0.00000  Uiso   1.00
C173   C     0.35881   0.27347   0.35142   0.00000  Uiso   1.00
C174   C     0.50797   0.10319   0.34243   0.00000  Uiso   1.00
C175   C     0.55356   0.12500   0.35870   0.00000  Uiso   1.00
C176   C     0.56408   0.13477   0.40724   0.00000  Uiso   1.00
C177   C     0.53045   0.12102   0.44056   0.00000  Uiso   1.00
C178   C     0.48508   0.09897   0.42475   0.00000  Uiso   1.00
C179   C     0.47370   0.09016   0.37578   0.00000  Uiso   1.00
C180   C     0.42931   0.38679   0.17644   0.00000  Uiso   1.00
C181   C     0.44335   0.36887   0.13405   0.00000  Uiso   1.00
C182   C     0.40647   0.34826   0.10212   0.00000  Uiso   1.00
C183   C     0.53994   0.26707   0.10744   0.00000  Uiso   1.00
C184   C     0.35531   0.34616   0.11185   0.00000  Uiso   1.00
C185   C     0.34090   0.36492   0.15335   0.00000  Uiso   1.00
C186   C     0.37773   0.38542   0.18543   0.00000  Uiso   1.00
C187   C     0.51239   0.03406   0.15329   0.00000  Uiso   1.00
C188   C     0.55442   0.00707   0.14704   0.00000  Uiso   1.00
C189   C     0.56214   0.49377   0.10096   0.00000  Uiso   1.00
C190   C     0.52803   0.00723   0.06068   0.00000  Uiso   1.00
C191   C     0.48592   0.03382   0.06652   0.00000  Uiso   1.00
C192   C     0.47812   0.04728   0.11257   0.00000  Uiso   1.00
C193   C     0.58257   0.47038   0.30989   0.00000  Uiso   1.00
C194   C     0.47744   0.21621   0.39395   0.00000  Uiso   1.00
C195   C     0.61610   0.00243   0.29301   0.00000  Uiso   1.00
C196   C     0.65393   0.02161   0.32512   0.00000  Uiso   1.00
C197   C     0.65895   0.00885   0.37430   0.00000  Uiso   1.00
C198   C     0.62618   0.47683   0.39147   0.00000  Uiso   1.00
C199   C     0.58823   0.45760   0.35952   0.00000  Uiso   1.00
C200   C     0.41562   0.20228   0.02972   0.00000  Uiso   1.00
C201   C     0.37080   0.22234   0.00647   0.00000  Uiso   1.00
C202   C     0.66112   0.19631   0.49277   0.00000  Uiso   1.00
C203   C     0.66282   0.15051   0.00291   0.00000  Uiso   1.00
C204   C     0.37437   0.13043   0.02505   0.00000  Uiso   1.00
C205   C     0.46028   0.23057   0.10283   0.00000  Uiso   1.00
C206   C     0.41729   0.15619   0.03861   0.00000  Uiso   1.00
C207   C     0.54121   0.32622   0.46945   0.00000  Uiso   1.00
C208   C     0.51070   0.35277   0.49495   0.00000  Uiso   1.00
C209   C     0.53131   0.39093   0.01619   0.00000  Uiso   1.00
C210   C     0.58217   0.40301   0.01156   0.00000  Uiso   1.00
C211   C     0.61258   0.37694   0.48596   0.00000  Uiso   1.00
C212   C     0.59224   0.33873   0.46487   0.00000  Uiso   1.00
C213   C     0.52141   0.28413   0.39597   0.00000  Uiso   1.00
C214   C     0.45813   0.22878   0.05221   0.00000  Uiso   1.00
Cu215  Cu    0.50000   0.25000   0.29821   0.00000  Uiso   1.00
Cu216  Cu    0.50000   0.25001   0.20178   0.00000  Uiso   1.00
H217   H     0.49807   0.02053   0.31995   0.00000  Uiso   1.00
H218   H     0.53896   0.31089   0.37669   0.00000  Uiso   1.00
H219   H     0.66344   0.24786   0.13573   0.00000  Uiso   1.00
H220   H     0.62451   0.19186   0.08098   0.00000  Uiso   1.00
H221   H     0.60176   0.11773   0.11350   0.00000  Uiso   1.00
H222   H     0.61663   0.10003   0.20192   0.00000  Uiso   1.00
H223   H     0.65288   0.15649   0.25766   0.00000  Uiso   1.00
H224   H     0.65029   0.34704   0.25928   0.00000  Uiso   1.00
H225   H     0.34726   0.39981   0.32183   0.00000  Uiso   1.00
H226   H     0.38477   0.37202   0.40346   0.00000  Uiso   1.00
H227   H     0.39168   0.29135   0.42249   0.00000  Uiso   1.00
H228   H     0.44354   0.47283   0.18610   0.00000  Uiso   1.00
H229   H     0.36139   0.23827   0.36028   0.00000  Uiso   1.00
H230   H     0.58117   0.13410   0.33382   0.00000  Uiso   1.00
H231   H     0.59843   0.15303   0.41843   0.00000  Uiso   1.00
H232   H     0.53871   0.12841   0.47837   0.00000  Uiso   1.00
H233   H     0.45876   0.08878   0.45040   0.00000  Uiso   1.00
H234   H     0.43887   0.07237   0.36400   0.00000  Uiso   1.00
H235   H     0.48287   0.37033   0.12615   0.00000  Uiso   1.00
H236   H     0.41755   0.33384   0.06992   0.00000  Uiso   1.00
H237   H     0.66015   0.33017   0.08715   0.00000  Uiso   1.00
H238   H     0.63455   0.36356   0.16066   0.00000  Uiso   1.00
H239   H     0.50397   0.11730   0.17286   0.00000  Uiso   1.00
H240   H     0.36624   0.40016   0.21731   0.00000  Uiso   1.00
H241   H     0.58176   0.49687   0.17750   0.00000  Uiso   1.00
H242   H     0.59499   0.47343   0.09663   0.00000  Uiso   1.00
H243   H     0.53425   0.49721   0.02492   0.00000  Uiso   1.00
H244   H     0.45953   0.04424   0.03532   0.00000  Uiso   1.00
H245   H     0.44550   0.06816   0.11649   0.00000  Uiso   1.00
H246   H     0.61312   0.01270   0.25512   0.00000  Uiso   1.00
H247   H     0.34607   0.04637   0.31182   0.00000  Uiso   1.00
H248   H     0.35492   0.02376   0.39909   0.00000  Uiso   1.00
H249   H     0.63008   0.46699   0.42960   0.00000  Uiso   1.00
H250   H     0.56333   0.38417   0.30320   0.00000  Uiso   1.00
H251   H     0.56288   0.43314   0.37363   0.00000  Uiso   1.00
H252   H     0.36853   0.25794   0.00087   0.00000  Uiso   1.00
H253   H     0.62595   0.21183   0.47606   0.00000  Uiso   1.00
H254   H     0.62922   0.13034   0.49493   0.00000  Uiso   1.00
H255   H     0.37544   0.09508   0.03288   0.00000  Uiso   1.00
H256   H     0.45148   0.14049   0.05732   0.00000  Uiso   1.00
H257   H     0.47115   0.34389   0.49832   0.00000  Uiso   1.00
H258   H     0.50781   0.41119   0.03607   0.00000  Uiso   1.00
H259   H     0.59814   0.43263   0.02754   0.00000  Uiso   1.00
H260   H     0.65193   0.38633   0.48245   0.00000  Uiso   1.00
H261   H     0.57477   0.27628   0.04215   0.00000  Uiso   1.00
H262   H     0.61635   0.31865   0.44533   0.00000  Uiso   1.00
H263   H     0.46256   0.18567   0.46073   0.00000  Uiso   1.00
H264   H     0.57204   0.28172   0.12901   0.00000  Uiso   1.00
H265   H     0.46014   0.18936   0.37347   0.00000  Uiso   1.00
H266   H     0.43024   0.21518   0.12136   0.00000  Uiso   1.00
N267   N     0.50000   0.25001   0.12934   0.00000  Uiso   1.00
N268   N     0.50000   0.24999   0.37065   0.00000  Uiso   1.00
O269   O     0.50000   0.18573   0.29071   0.00000  Uiso   1.00
O270   O     0.50000   0.31428   0.20928   0.00000  Uiso   1.00
O271   O     0.50000   0.18573   0.20928   0.00000  Uiso   1.00
O272   O     0.50000   0.31427   0.29072   0.00000  Uiso   1.00
O273   O     0.42495   0.25000   0.28132   0.00000  Uiso   1.00
O274   O     0.57505   0.25001   0.21868   0.00000  Uiso   1.00
O275   O     0.42495   0.25000   0.19988   0.00000  Uiso   1.00
O276   O     0.57505   0.25000   0.30011   0.00000  Uiso   1.00
C277   C     0.83383   0.16467   0.25079   0.00000  Uiso   1.00
C278   C     0.85336   0.28589   0.44646   0.00000  Uiso   1.00
C279   C     0.83163   0.24794   0.02745   0.00000  Uiso   1.00
C280   C     0.83141   0.25004   0.47238   0.00000  Uiso   1.00
C281   C     0.73490   0.24887   0.23829   0.00000  Uiso   1.00
C282   C     0.93168   0.25092   0.26193   0.00000  Uiso   1.00
C283   C     0.68079   0.24075   0.23444   0.00000  Uiso   1.00
C284   C     0.98599   0.25749   0.26728   0.00000  Uiso   1.00
C285   C     0.83307   0.04205   0.28794   0.00000  Uiso   1.00
C286   C     0.80410   0.45359   0.21081   0.00000  Uiso   1.00
C287   C     0.83411   0.08772   0.29261   0.00000  Uiso   1.00
C288   C     0.83267   0.33485   0.24882   0.00000  Uiso   1.00
C289   C     0.80164   0.40767   0.21104   0.00000  Uiso   1.00
C290   C     0.83472   0.11581   0.25063   0.00000  Uiso   1.00
C291   C     0.83435   0.38282   0.24587   0.00000  Uiso   1.00
C292   C     0.83617   0.09662   0.20554   0.00000  Uiso   1.00
C293   C     0.87069   0.40390   0.27774   0.00000  Uiso   1.00
C294   C     0.83924   0.05101   0.20155   0.00000  Uiso   1.00
C295   C     0.87515   0.44989   0.27609   0.00000  Uiso   1.00
C296   C     0.83796   0.02343   0.24359   0.00000  Uiso   1.00
C297   C     0.84047   0.47498   0.24269   0.00000  Uiso   1.00
C298   C     0.99405   0.20627   0.20063   0.00000  Uiso   1.00
C299   C     0.87391   0.26498   0.05721   0.00000  Uiso   1.00
C300   C     0.98690   0.21565   0.15048   0.00000  Uiso   1.00
C301   C     0.96516   0.18389   0.11933   0.00000  Uiso   1.00
C302   C     0.95190   0.14223   0.13777   0.00000  Uiso   1.00
C303   C     0.96011   0.13232   0.18760   0.00000  Uiso   1.00
C304   C     0.98080   0.16428   0.21902   0.00000  Uiso   1.00
C305   C     0.67245   0.28902   0.30465   0.00000  Uiso   1.00
C306   C     0.66764   0.33472   0.29445   0.00000  Uiso   1.00
C307   C     0.68428   0.36457   0.32994   0.00000  Uiso   1.00
C308   C     0.70524   0.34891   0.37599   0.00000  Uiso   1.00
C309   C     0.70907   0.30340   0.38675   0.00000  Uiso   1.00
C310   C     0.81076   0.21505   0.44436   0.00000  Uiso   1.00
C311   C     0.69215   0.27347   0.35142   0.00000  Uiso   1.00
C312   C     0.84130   0.10319   0.34243   0.00000  Uiso   1.00
C313   C     0.88690   0.12500   0.35870   0.00000  Uiso   1.00
C314   C     0.89741   0.13477   0.40724   0.00000  Uiso   1.00
C315   C     0.86379   0.12102   0.44056   0.00000  Uiso   1.00
C316   C     0.81842   0.09897   0.42475   0.00000  Uiso   1.00
C317   C     0.80703   0.09016   0.37578   0.00000  Uiso   1.00
C318   C     0.76265   0.38679   0.17644   0.00000  Uiso   1.00
C319   C     0.77668   0.36887   0.13405   0.00000  Uiso   1.00
C320   C     0.73980   0.34826   0.10212   0.00000  Uiso   1.00
C321   C     0.87327   0.26707   0.10744   0.00000  Uiso   1.00
C322   C     0.68865   0.34616   0.11185   0.00000  Uiso   1.00
C323   C     0.67424   0.36492   0.15335   0.00000  Uiso   1.00
C324   C     0.71106   0.38542   0.18543   0.00000  Uiso   1.00
C325   C     0.84573   0.03406   0.15329   0.00000  Uiso   1.00
C326   C     0.88776   0.00707   0.14704   0.00000  Uiso   1.00
C327   C     0.89547   0.49377   0.10096   0.00000  Uiso   1.00
C328   C     0.86136   0.00723   0.06068   0.00000  Uiso   1.00
C329   C     0.81926   0.03382   0.06652   0.00000  Uiso   1.00
C330   C     0.81145   0.04728   0.11257   0.00000  Uiso   1.00
C331   C     0.91590   0.47038   0.30989   0.00000  Uiso   1.00
C332   C     0.81078   0.21621   0.39395   0.00000  Uiso   1.00
C333   C     0.94943   0.00243   0.29301   0.00000  Uiso   1.00
C334   C     0.98726   0.02161   0.32512   0.00000  Uiso   1.00
C335   C     0.99228   0.00885   0.37430   0.00000  Uiso   1.00
C336   C     0.95952   0.47683   0.39147   0.00000  Uiso   1.00
C337   C     0.92156   0.45760   0.35952   0.00000  Uiso   1.00
C338   C     0.74896   0.20228   0.02972   0.00000  Uiso   1.00
C339   C     0.70413   0.22234   0.00647   0.00000  Uiso   1.00
C340   C     0.99446   0.19631   0.49277   0.00000  Uiso   1.00
C341   C     0.99615   0.15051   0.00291   0.00000  Uiso   1.00
C342   C     0.70771   0.13043   0.02505   0.00000  Uiso   1.00
C343   C     0.79362   0.23057   0.10283   0.00000  Uiso   1.00
C344   C     0.75063   0.15619   0.03861   0.00000  Uiso   1.00
C345   C     0.87455   0.32622   0.46945   0.00000  Uiso   1.00
C346   C     0.84403   0.35277   0.49495   0.00000  Uiso   1.00
C347   C     0.86465   0.39093   0.01619   0.00000  Uiso   1.00
C348   C     0.91550   0.40301   0.01156   0.00000  Uiso   1.00
C349   C     0.94592   0.37694   0.48596   0.00000  Uiso   1.00
C350   C     0.92558   0.33873   0.46487   0.00000  Uiso   1.00
C351   C     0.85475   0.28413   0.39597   0.00000  Uiso   1.00
C352   C     0.79146   0.22878   0.05221   0.00000  Uiso   1.00
Cu353  Cu    0.83333   0.25000   0.29821   0.00000  Uiso   1.00
Cu354  Cu    0.83333   0.25001   0.20178   0.00000  Uiso   1.00
H355   H     0.83140   0.02053   0.31995   0.00000  Uiso   1.00
H356   H     0.87229   0.31089   0.37669   0.00000  Uiso   1.00
H357   H     0.99678   0.24786   0.13573   0.00000  Uiso   1.00
H358   H     0.95784   0.19186   0.08098   0.00000  Uiso   1.00
H359   H     0.93510   0.11773   0.11350   0.00000  Uiso   1.00
H360   H     0.94996   0.10003   0.20192   0.00000  Uiso   1.00
H361   H     0.98622   0.15649   0.25766   0.00000  Uiso   1.00
H362   H     0.98363   0.34704   0.25928   0.00000  Uiso   1.00
H363   H     0.68059   0.39981   0.32183   0.00000  Uiso   1.00
H364   H     0.71810   0.37202   0.40346   0.00000  Uiso   1.00
H365   H     0.72501   0.29135   0.42249   0.00000  Uiso   1.00
H366   H     0.77688   0.47283   0.18610   0.00000  Uiso   1.00
H367   H     0.69472   0.23827   0.36028   0.00000  Uiso   1.00
H368   H     0.91450   0.13410   0.33382   0.00000  Uiso   1.00
H369   H     0.93176   0.15303   0.41843   0.00000  Uiso   1.00
H370   H     0.87205   0.12841   0.47837   0.00000  Uiso   1.00
H371   H     0.79209   0.08878   0.45040   0.00000  Uiso   1.00
H372   H     0.77220   0.07237   0.36400   0.00000  Uiso   1.00
H373   H     0.81621   0.37033   0.12615   0.00000  Uiso   1.00
H374   H     0.75088   0.33384   0.06992   0.00000  Uiso   1.00
H375   H     0.99348   0.33017   0.08715   0.00000  Uiso   1.00
H376   H     0.96788   0.36356   0.16066   0.00000  Uiso   1.00
H377   H     0.83730   0.11730   0.17286   0.00000  Uiso   1.00
H378   H     0.69957   0.40016   0.21731   0.00000  Uiso   1.00
H379   H     0.91509   0.49687   0.17750   0.00000  Uiso   1.00
H380   H     0.92832   0.47343   0.09663   0.00000  Uiso   1.00
H381   H     0.86759   0.49721   0.02492   0.00000  Uiso   1.00
H382   H     0.79286   0.04424   0.03532   0.00000  Uiso   1.00
H383   H     0.77883   0.06816   0.11649   0.00000  Uiso   1.00
H384   H     0.94646   0.01270   0.25512   0.00000  Uiso   1.00
H385   H     0.67940   0.04637   0.31182   0.00000  Uiso   1.00
H386   H     0.68825   0.02376   0.39909   0.00000  Uiso   1.00
H387   H     0.96341   0.46699   0.42960   0.00000  Uiso   1.00
H388   H     0.89666   0.38417   0.30320   0.00000  Uiso   1.00
H389   H     0.89622   0.43314   0.37363   0.00000  Uiso   1.00
H390   H     0.70186   0.25794   0.00087   0.00000  Uiso   1.00
H391   H     0.95928   0.21183   0.47606   0.00000  Uiso   1.00
H392   H     0.96255   0.13034   0.49493   0.00000  Uiso   1.00
H393   H     0.70877   0.09508   0.03288   0.00000  Uiso   1.00
H394   H     0.78481   0.14049   0.05732   0.00000  Uiso   1.00
H395   H     0.80448   0.34389   0.49832   0.00000  Uiso   1.00
H396   H     0.84114   0.41119   0.03607   0.00000  Uiso   1.00
H397   H     0.93147   0.43263   0.02754   0.00000  Uiso   1.00
H398   H     0.98526   0.38633   0.48245   0.00000  Uiso   1.00
H399   H     0.90811   0.27628   0.04215   0.00000  Uiso   1.00
H400   H     0.94968   0.31865   0.44533   0.00000  Uiso   1.00
H401   H     0.79589   0.18567   0.46073   0.00000  Uiso   1.00
H402   H     0.90537   0.28172   0.12901   0.00000  Uiso   1.00
H403   H     0.79348   0.18936   0.37347   0.00000  Uiso   1.00
H404   H     0.76358   0.21518   0.12136   0.00000  Uiso   1.00
N405   N     0.83333   0.25001   0.12934   0.00000  Uiso   1.00
N406   N     0.83333   0.24999   0.37065   0.00000  Uiso   1.00
O407   O     0.83334   0.18573   0.29071   0.00000  Uiso   1.00
O408   O     0.83333   0.31428   0.20928   0.00000  Uiso   1.00
O409   O     0.83334   0.18573   0.20928   0.00000  Uiso   1.00
O410   O     0.83333   0.31427   0.29072   0.00000  Uiso   1.00
O411   O     0.75828   0.25000   0.28132   0.00000  Uiso   1.00
O412   O     0.90839   0.25001   0.21868   0.00000  Uiso   1.00
O413   O     0.75828   0.25000   0.19988   0.00000  Uiso   1.00
O414   O     0.90839   0.25000   0.30011   0.00000  Uiso   1.00
C415   C     0.16716   0.66467   0.25079   0.00000  Uiso   1.00
C416   C     0.18670   0.78589   0.44646   0.00000  Uiso   1.00
C417   C     0.16496   0.74794   0.02745   0.00000  Uiso   1.00
C418   C     0.16474   0.75004   0.47238   0.00000  Uiso   1.00
C419   C     0.06823   0.74887   0.23829   0.00000  Uiso   1.00
C420   C     0.26502   0.75092   0.26193   0.00000  Uiso   1.00
C421   C     0.01412   0.74075   0.23444   0.00000  Uiso   1.00
C422   C     0.31932   0.75749   0.26728   0.00000  Uiso   1.00
C423   C     0.16640   0.54205   0.28794   0.00000  Uiso   1.00
C424   C     0.13743   0.95359   0.21081   0.00000  Uiso   1.00
C425   C     0.16744   0.58772   0.29261   0.00000  Uiso   1.00
C426   C     0.16600   0.83485   0.24882   0.00000  Uiso   1.00
C427   C     0.13497   0.90767   0.21104   0.00000  Uiso   1.00
C428   C     0.16805   0.61581   0.25063   0.00000  Uiso   1.00
C429   C     0.16768   0.88282   0.24587   0.00000  Uiso   1.00
C430   C     0.16951   0.59662   0.20554   0.00000  Uiso   1.00
C431   C     0.20402   0.90390   0.27774   0.00000  Uiso   1.00
C432   C     0.17257   0.55101   0.20155   0.00000  Uiso   1.00
C433   C     0.20848   0.94989   0.27609   0.00000  Uiso   1.00
C434   C     0.17130   0.52343   0.24359   0.00000  Uiso   1.00
C435   C     0.17381   0.97498   0.24269   0.00000  Uiso   1.00
C436   C     0.32739   0.70627   0.20063   0.00000  Uiso   1.00
C437   C     0.20724   0.76498   0.05721   0.00000  Uiso   1.00
C438   C     0.32023   0.71565   0.15048   0.00000  Uiso   1.00
C439   C     0.29849   0.68389   0.11933   0.00000  Uiso   1.00
C440   C     0.28524   0.64223   0.13777   0.00000  Uiso   1.00
C441   C     0.29344   0.63232   0.18760   0.00000  Uiso   1.00
C442   C     0.31413   0.66428   0.21902   0.00000  Uiso   1.00
C443   C     0.00578   0.78902   0.30465   0.00000  Uiso   1.00
C444   C     0.00098   0.83472   0.29445   0.00000  Uiso   1.00
C445   C     0.01761   0.86457   0.32994   0.00000  Uiso   1.00
C446   C     0.03857   0.84891   0.37599   0.00000  Uiso   1.00
C447   C     0.04241   0.80340   0.38675   0.00000  Uiso   1.00
C448   C     0.14410   0.71505   0.44436   0.00000  Uiso   1.00
C449   C     0.02548   0.77347   0.35142   0.00000  Uiso   1.00
C450   C     0.17464   0.60319   0.34243   0.00000  Uiso   1.00
C451   C     0.22023   0.62500   0.35870   0.00000  Uiso   1.00
C452   C     0.23075   0.63477   0.40724   0.00000  Uiso   1.00
C453   C     0.19712   0.62102   0.44056   0.00000  Uiso   1.00
C454   C     0.15175   0.59897   0.42475   0.00000  Uiso   1.00
C455   C     0.14036   0.59016   0.37578   0.00000  Uiso   1.00
C456   C     0.09598   0.88679   0.17644   0.00000  Uiso   1.00
C457   C     0.11001   0.86887   0.13405   0.00000  Uiso   1.00
C458   C     0.07314   0.84826   0.10212   0.00000  Uiso   1.00
C459   C     0.20661   0.76707   0.10744   0.00000  Uiso   1.00
C460   C     0.02198   0.84616   0.11185   0.00000  Uiso   1.00
C461   C     0.00757   0.86492   0.15335   0.00000  Uiso   1.00
C462   C     0.04440   0.88542   0.18543   0.00000  Uiso   1.00
C463   C     0.17906   0.53406   0.15329   0.00000  Uiso   1.00
C464   C     0.22109   0.50707   0.14704   0.00000  Uiso   1.00
C465   C     0.22881   0.99377   0.10096   0.00000  Uiso   1.00
C466   C     0.19469   0.50723   0.06068   0.00000  Uiso   1.00
C467   C     0.15259   0.53382   0.06652   0.00000  Uiso   1.00
C468   C     0.14479   0.54728   0.11257   0.00000  Uiso   1.00
C469   C     0.24924   0.97038   0.30989   0.00000  Uiso   1.00
C470   C     0.14411   0.71621   0.39395   0.00000  Uiso   1.00
C471   C     0.28277   0.50243   0.29301   0.00000  Uiso   1.00
C472   C     0.32060   0.52161   0.32512   0.00000  Uiso   1.00
C473   C     0.32562   0.50885   0.37430   0.00000  Uiso   1.00
C474   C     0.29285   0.97683   0.39147   0.00000  Uiso   1.00
C475   C     0.25489   0.95760   0.35952   0.00000  Uiso   1.00
C476   C     0.08229   0.70228   0.02972   0.00000  Uiso   1.00
C477   C     0.03747   0.72234   0.00647   0.00000  Uiso   1.00
C478   C     0.32779   0.69631   0.49277   0.00000  Uiso   1.00
C479   C     0.32948   0.65051   0.00291   0.00000  Uiso   1.00
C480   C     0.04104   0.63043   0.02505   0.00000  Uiso   1.00
C481   C     0.12695   0.73057   0.10283   0.00000  Uiso   1.00
C482   C     0.08396   0.65619   0.03861   0.00000  Uiso   1.00
C483   C     0.20788   0.82622   0.46945   0.00000  Uiso   1.00
C484   C     0.17736   0.85277   0.49495   0.00000  Uiso   1.00
C485   C     0.19798   0.89093   0.01619   0.00000  Uiso   1.00
C486   C     0.24883   0.90301   0.01156   0.00000  Uiso   1.00
C487   C     0.27925   0.87694   0.48596   0.00000  Uiso   1.00
C488   C     0.25891   0.83873   0.46487   0.00000  Uiso   1.00
C489   C     0.18808   0.78413   0.39597   0.00000  Uiso   1.00
C490   C     0.12479   0.72878   0.05221   0.00000  Uiso   1.00
Cu491  Cu    0.16667   0.75000   0.29821   0.00000  Uiso   1.00
Cu492  Cu    0.16667   0.75001   0.20178   0.00000  Uiso   1.00
H493   H     0.16474   0.52053   0.31995   0.00000  Uiso   1.00
H494   H     0.20563   0.81089   0.37669   0.00000  Uiso   1.00
H495   H     0.33011   0.74786   0.13573   0.00000  Uiso   1.00
H496   H     0.29118   0.69186   0.08098   0.00000  Uiso   1.00
H497   H     0.26843   0.61773   0.11350   0.00000  Uiso   1.00
H498   H     0.28330   0.60003   0.20192   0.00000  Uiso   1.00
H499   H     0.31955   0.65649   0.25766   0.00000  Uiso   1.00
H500   H     0.31696   0.84704   0.25928   0.00000  Uiso   1.00
H501   H     0.01392   0.89981   0.32183   0.00000  Uiso   1.00
H502   H     0.05143   0.87202   0.40346   0.00000  Uiso   1.00
H503   H     0.05834   0.79135   0.42249   0.00000  Uiso   1.00
H504   H     0.11021   0.97283   0.18610   0.00000  Uiso   1.00
H505   H     0.02805   0.73827   0.36028   0.00000  Uiso   1.00
H506   H     0.24784   0.63410   0.33382   0.00000  Uiso   1.00
H507   H     0.26509   0.65303   0.41843   0.00000  Uiso   1.00
H508   H     0.20538   0.62841   0.47837   0.00000  Uiso   1.00
H509   H     0.12543   0.58878   0.45040   0.00000  Uiso   1.00
H510   H     0.10553   0.57237   0.36400   0.00000  Uiso   1.00
H511   H     0.14954   0.87033   0.12615   0.00000  Uiso   1.00
H512   H     0.08422   0.83384   0.06992   0.00000  Uiso   1.00
H513   H     0.32682   0.83017   0.08715   0.00000  Uiso   1.00
H514   H     0.30121   0.86356   0.16066   0.00000  Uiso   1.00
H515   H     0.17063   0.61730   0.17286   0.00000  Uiso   1.00
H516   H     0.03290   0.90016   0.21731   0.00000  Uiso   1.00
H517   H     0.24842   0.99687   0.17750   0.00000  Uiso   1.00
H518   H     0.26165   0.97343   0.09663   0.00000  Uiso   1.00
H519   H     0.20092   0.99721   0.02492   0.00000  Uiso   1.00
H520   H     0.12620   0.54424   0.03532   0.00000  Uiso   1.00
H521   H     0.11217   0.56816   0.11649   0.00000  Uiso   1.00
H522   H     0.27979   0.51270   0.25512   0.00000  Uiso   1.00
H523   H     0.01274   0.54637   0.31182   0.00000  Uiso   1.00
H524   H     0.02159   0.52376   0.39909   0.00000  Uiso   1.00
H525   H     0.29675   0.96699   0.42960   0.00000  Uiso   1.00
H526   H     0.23000   0.88417   0.30320   0.00000  Uiso   1.00
H527   H     0.22955   0.93314   0.37363   0.00000  Uiso   1.00
H528   H     0.03519   0.75794   0.00087   0.00000  Uiso   1.00
H529   H     0.29262   0.71183   0.47606   0.00000  Uiso   1.00
H530   H     0.29588   0.63034   0.49493   0.00000  Uiso   1.00
H531   H     0.04210   0.59508   0.03288   0.00000  Uiso   1.00
H532   H     0.11814   0.64049   0.05732   0.00000  Uiso   1.00
H533   H     0.13781   0.84389   0.49832   0.00000  Uiso   1.00
H534   H     0.17447   0.91119   0.03607   0.00000  Uiso   1.00
H535   H     0.26481   0.93263   0.02754   0.00000  Uiso   1.00
H536   H     0.31860   0.88633   0.48245   0.00000  Uiso   1.00
H537   H     0.24144   0.77628   0.04215   0.00000  Uiso   1.00
H538   H     0.28302   0.81865   0.44533   0.00000  Uiso   1.00
H539   H     0.12922   0.68567   0.46073   0.00000  Uiso   1.00
H540   H     0.23870   0.78172   0.12901   0.00000  Uiso   1.00
H541   H     0.12681   0.68936   0.37347   0.00000  Uiso   1.00
H542   H     0.09691   0.71518   0.12136   0.00000  Uiso   1.00
N543   N     0.16667   0.75001   0.12934   0.00000  Uiso   1.00
N544   N     0.16667   0.74999   0.37065   0.00000  Uiso   1.00
O545   O     0.16667   0.68573   0.29071   0.00000  Uiso   1.00
O546   O     0.16666   0.81428   0.20928   0.00000  Uiso   1.00
O547   O     0.16667   0.68573   0.20928   0.00000  Uiso   1.00
O548   O     0.16666   0.81427   0.29072   0.00000  Uiso   1.00
O549   O     0.09161   0.75000   0.28132   0.00000  Uiso   1.00
O550   O     0.24172   0.75001   0.21868   0.00000  Uiso   1.00
O551   O     0.09161   0.75000   0.19988   0.00000  Uiso   1.00
O552   O     0.24172   0.75000   0.30011   0.00000  Uiso   1.00
C553   C     0.50050   0.66467   0.25079   0.00000  Uiso   1.00
C554   C     0.52003   0.78589   0.44646   0.00000  Uiso   1.00
C555   C     0.49829   0.74794   0.02745   0.00000  Uiso   1.00
C556   C     0.49807   0.75004   0.47238   0.00000  Uiso   1.00
C557   C     0.40157   0.74887   0.23829   0.00000  Uiso   1.00
C558   C     0.59835   0.75092   0.26193   0.00000  Uiso   1.00
C559   C     0.34746   0.74075   0.23444   0.00000  Uiso   1.00
C560   C     0.65265   0.75749   0.26728   0.00000  Uiso   1.00
C561   C     0.49974   0.54205   0.28794   0.00000  Uiso   1.00
C562   C     0.47077   0.95359   0.21081   0.00000  Uiso   1.00
C563   C     0.50078   0.58772   0.29261   0.00000  Uiso   1.00
C564   C     0.49933   0.83485   0.24882   0.00000  Uiso   1.00
C565   C     0.46830   0.90767   0.21104   0.00000  Uiso   1.00
C566   C     0.50139   0.61581   0.25063   0.00000  Uiso   1.00
C567   C     0.50101   0.88282   0.24587   0.00000  Uiso   1.00
C568   C     0.50284   0.59662   0.20554   0.00000  Uiso   1.00
C569   C     0.53736   0.90390   0.27774   0.00000  Uiso   1.00
C570   C     0.50590   0.55101   0.20155   0.00000  Uiso   1.00
C571   C     0.54181   0.94989   0.27609   0.00000  Uiso   1.00
C572   C     0.50463   0.52343   0.24359   0.00000  Uiso   1.00
C573   C     0.50714   0.97498   0.24269   0.00000  Uiso   1.00
C574   C     0.66072   0.70627   0.20063   0.00000  Uiso   1.00
C575   C     0.54058   0.76498   0.05721   0.00000  Uiso   1.00
C576   C     0.65356   0.71565   0.15048   0.00000  Uiso   1.00
C577   C     0.63182   0.68389   0.11933   0.00000  Uiso   1.00
C578   C     0.61857   0.64223   0.13777   0.00000  Uiso   1.00
C579   C     0.62677   0.63232   0.18760   0.00000  Uiso   1.00
C580   C     0.64746   0.66428   0.21902   0.00000  Uiso   1.00
C581   C     0.33912   0.78902   0.30465   0.00000  Uiso   1.00
C582   C     0.33431   0.83472   0.29445   0.00000  Uiso   1.00
C583   C     0.35094   0.86457   0.32994   0.00000  Uiso   1.00
C584   C     0.37191   0.84891   0.37599   0.00000  Uiso   1.00
C585   C     0.37574   0.80340   0.38675   0.00000  Uiso   1.00
C586   C     0.47743   0.71505   0.44436   0.00000  Uiso   1.00
C587   C     0.35881   0.77347   0.35142   0.00000  Uiso   1.00
C588   C     0.50797   0.60319   0.34243   0.00000  Uiso   1.00
C589   C     0.55356   0.62500   0.35870   0.00000  Uiso   1.00
C590   C     0.56408   0.63477   0.40724   0.00000  Uiso   1.00
C591   C     0.53045   0.62102   0.44056   0.00000  Uiso   1.00
C592   C     0.48508   0.59897   0.42475   0.00000  Uiso   1.00
C593   C     0.47370   0.59016   0.37578   0.00000  Uiso   1.00
C594   C     0.42931   0.88679   0.17644   0.00000  Uiso   1.00
C595   C     0.44335   0.86887   0.13405   0.00000  Uiso   1.00
C596   C     0.40647   0.84826   0.10212   0.00000  Uiso   1.00
C597   C     0.53994   0.76707   0.10744   0.00000  Uiso   1.00
C598   C     0.35531   0.84616   0.11185   0.00000  Uiso   1.00
C599   C     0.34090   0.86492   0.15335   0.00000  Uiso   1.00
C600   C     0.37773   0.88542   0.18543   0.00000  Uiso   1.00
C601   C     0.51239   0.53406   0.15329   0.00000  Uiso   1.00
C602   C     0.55442   0.50707   0.14704   0.00000  Uiso   1.00
C603   C     0.56214   0.99377   0.10096   0.00000  Uiso   1.00
C604   C     0.52803   0.50723   0.06068   0.00000  Uiso   1.00
C605   C     0.48592   0.53382   0.06652   0.00000  Uiso   1.00
C606   C     0.47812   0.54728   0.11257   0.00000  Uiso   1.00
C607   C     0.58257   0.97038   0.30989   0.00000  Uiso   1.00
C608   C     0.47744   0.71621   0.39395   0.00000  Uiso   1.00
C609   C     0.61610   0.50243   0.29301   0.00000  Uiso   1.00
C610   C     0.65393   0.52161   0.32512   0.00000  Uiso   1.00
C611   C     0.65895   0.50885   0.37430   0.00000  Uiso   1.00
C612   C     0.62618   0.97683   0.39147   0.00000  Uiso   1.00
C613   C     0.58823   0.95760   0.35952   0.00000  Uiso   1.00
C614   C     0.41562   0.70228   0.02972   0.00000  Uiso   1.00
C615   C     0.37080   0.72234   0.00647   0.00000  Uiso   1.00
C616   C     0.66112   0.69631   0.49277   0.00000  Uiso   1.00
C617   C     0.66282   0.65051   0.00291   0.00000  Uiso   1.00
C618   C     0.37437   0.63043   0.02505   0.00000  Uiso   1.00
C619   C     0.46028   0.73057   0.10283   0.00000  Uiso   1.00
C620   C     0.41729   0.65619   0.03861   0.00000  Uiso   1.00
C621   C     0.54121   0.82622   0.46945   0.00000  Uiso   1.00
C622   C     0.51070   0.85277   0.49495   0.00000  Uiso   1.00
C623   C     0.53131   0.89093   0.01619   0.00000  Uiso   1.00
C624   C     0.58217   0.90301   0.01156   0.00000  Uiso   1.00
C625   C     0.61258   0.87694   0.48596   0.00000  Uiso   1.00
C626   C     0.59224   0.83873   0.46487   0.00000  Uiso   1.00
C627   C     0.52141   0.78413   0.39597   0.00000  Uiso   1.00
C628   C     0.45813   0.72878   0.05221   0.00000  Uiso   1.00
Cu629  Cu    0.50000   0.75000   0.29821   0.00000  Uiso   1.00
Cu630  Cu    0.50000   0.75001   0.20178   0.00000  Uiso   1.00
H631   H     0.49807   0.52053   0.31995   0.00000  Uiso   1.00
H632   H     0.53896   0.81089   0.37669   0.00000  Uiso   1.00
H633   H     0.66344   0.74786   0.13573   0.00000  Uiso   1.00
H634   H     0.62451   0.69186   0.08098   0.00000  Uiso   1.00
H635   H     0.60176   0.61773   0.11350   0.00000  Uiso   1.00
H636   H     0.61663   0.60003   0.20192   0.00000  Uiso   1.00
H637   H     0.65288   0.65649   0.25766   0.00000  Uiso   1.00
H638   H     0.65029   0.84704   0.25928   0.00000  Uiso   1.00
H639   H     0.34726   0.89981   0.32183   0.00000  Uiso   1.00
H640   H     0.38477   0.87202   0.40346   0.00000  Uiso   1.00
H641   H     0.39168   0.79135   0.42249   0.00000  Uiso   1.00
H642   H     0.44354   0.97283   0.18610   0.00000  Uiso   1.00
H643   H     0.36139   0.73827   0.36028   0.00000  Uiso   1.00
H644   H     0.58117   0.63410   0.33382   0.00000  Uiso   1.00
H645   H     0.59843   0.65303   0.41843   0.00000  Uiso   1.00
H646   H     0.53871   0.62841   0.47837   0.00000  Uiso   1.00
H647   H     0.45876   0.58878   0.45040   0.00000  Uiso   1.00
H648   H     0.43887   0.57237   0.36400   0.00000  Uiso   1.00
H649   H     0.48287   0.87033   0.12615   0.00000  Uiso   1.00
H650   H     0.41755   0.83384   0.06992   0.00000  Uiso   1.00
H651   H     0.66015   0.83017   0.08715   0.00000  Uiso   1.00
H652   H     0.63455   0.86356   0.16066   0.00000  Uiso   1.00
H653   H     0.50397   0.61730   0.17286   0.00000  Uiso   1.00
H654   H     0.36624   0.90016   0.21731   0.00000  Uiso   1.00
H655   H     0.58176   0.99687   0.17750   0.00000  Uiso   1.00
H656   H     0.59499   0.97343   0.09663   0.00000  Uiso   1.00
H657   H     0.53425   0.99721   0.02492   0.00000  Uiso   1.00
H658   H     0.45953   0.54424   0.03532   0.00000  Uiso   1.00
H659   H     0.44550   0.56816   0.11649   0.00000  Uiso   1.00
H660   H     0.61312   0.51270   0.25512   0.00000  Uiso   1.00
H661   H     0.34607   0.54637   0.31182   0.00000  Uiso   1.00
H662   H     0.35492   0.52376   0.39909   0.00000  Uiso   1.00
H663   H     0.63008   0.96699   0.42960   0.00000  Uiso   1.00
H664   H     0.56333   0.88417   0.30320   0.00000  Uiso   1.00
H665   H     0.56288   0.93314   0.37363   0.00000  Uiso   1.00
H666   H     0.36853   0.75794   0.00087   0.00000  Uiso   1.00
H667   H     0.62595   0.71183   0.47606   0.00000  Uiso   1.00
H668   H     0.62922   0.63034   0.49493   0.00000  Uiso   1.00
H669   H     0.37544   0.59508   0.03288   0.00000  Uiso   1.00
H670   H     0.45148   0.64049   0.05732   0.00000  Uiso   1.00
H671   H     0.47115   0.84389   0.49832   0.00000  Uiso   1.00
H672   H     0.50781   0.91119   0.03607   0.00000  Uiso   1.00
H673   H     0.59814   0.93263   0.02754   0.00000  Uiso   1.00
H674   H     0.65193   0.88633   0.48245   0.00000  Uiso   1.00
H675   H     0.57477   0.77628   0.04215   0.00000  Uiso   1.00
H676   H     0.61635   0.81865   0.44533   0.00000  Uiso   1.00
H677   H     0.46256   0.68567   0.46073   0.00000  Uiso   1.00
H678   H     0.57204   0.78172   0.12901   0.00000  Uiso   1.00
H679   H     0.46014   0.68936   0.37347   0.00000  Uiso   1.00
H680   H     0.43024   0.71518   0.12136   0.00000  Uiso   1.00
N681   N     0.50000   0.75001   0.12934   0.00000  Uiso   1.00
N682   N     0.50000   0.74999   0.37065   0.00000  Uiso   1.00
O683   O     0.50000   0.68573   0.29071   0.00000  Uiso   1.00
O684   O     0.50000   0.81428   0.20928   0.00000  Uiso   1.00
O685   O     0.50000   0.68573   0.20928   0.00000  Uiso   1.00
O686   O     0.50000   0.81427   0.29072   0.00000  Uiso   1.00
O687   O     0.42495   0.75000   0.28132   0.00000  Uiso   1.00
O688   O     0.57505   0.75001   0.21868   0.00000  Uiso   1.00
O689   O     0.42495   0.75000   0.19988   0.00000  Uiso   1.00
O690   O     0.57505   0.75000   0.30011   0.00000  Uiso   1.00
C691   C     0.83383   0.66467   0.25079   0.00000  Uiso   1.00
C692   C     0.85336   0.78589   0.44646   0.00000  Uiso   1.00
C693   C     0.83163   0.74794   0.02745   0.00000  Uiso   1.00
C694   C     0.83141   0.75004   0.47238   0.00000  Uiso   1.00
C695   C     0.73490   0.74887   0.23829   0.00000  Uiso   1.00
C696   C     0.93168   0.75092   0.26193   0.00000  Uiso   1.00
C697   C     0.68079   0.74075   0.23444   0.00000  Uiso   1.00
C698   C     0.98599   0.75749   0.26728   0.00000  Uiso   1.00
C699   C     0.83307   0.54205   0.28794   0.00000  Uiso   1.00
C700   C     0.80410   0.95359   0.21081   0.00000  Uiso   1.00
C701   C     0.83411   0.58772   0.29261   0.00000  Uiso   1.00
C702   C     0.83267   0.83485   0.24882   0.00000  Uiso   1.00
C703   C     0.80164   0.90767   0.21104   0.00000  Uiso   1.00
C704   C     0.83472   0.61581   0.25063   0.00000  Uiso   1.00
C705   C     0.83435   0.88282   0.24587   0.00000  Uiso   1.00
C706   C     0.83617   0.59662   0.20554   0.00000  Uiso   1.00
C707   C     0.87069   0.90390   0.27774   0.00000  Uiso   1.00
C708   C     0.83924   0.55101   0.20155   0.00000  Uiso   1.00
C709   C     0.87515   0.94989   0.27609   0.00000  Uiso   1.00
C710   C     0.83796   0.52343   0.24359   0.00000  Uiso   1.00
C711   C     0.84047   0.97498   0.24269   0.00000  Uiso   1.00
C712   C     0.99405   0.70627   0.20063   0.00000  Uiso   1.00
C713   C     0.87391   0.76498   0.05721   0.00000  Uiso   1.00
C714   C     0.98690   0.71565   0.15048   0.00000  Uiso   1.00
C715   C     0.96516   0.68389   0.11933   0.00000  Uiso   1.00
C716   C     0.95190   0.64223   0.13777   0.00000  Uiso   1.00
C717   C     0.96011   0.63232   0.18760   0.00000  Uiso   1.00
C718   C     0.98080   0.66428   0.21902   0.00000  Uiso   1.00
C719   C     0.67245   0.78902   0.30465   0.00000  Uiso   1.00
C720   C     0.66764   0.83472   0.29445   0.00000  Uiso   1.00
C721   C     0.68428   0.86457   0.32994   0.00000  Uiso   1.00
C722   C     0.70524   0.84891   0.37599   0.00000  Uiso   1.00
C723   C     0.70907   0.80340   0.38675   0.00000  Uiso   1.00
C724   C     0.81076   0.71505   0.44436   0.00000  Uiso   1.00
C725   C     0.69215   0.77347   0.35142   0.00000  Uiso   1.00
C726   C     0.84130   0.60319   0.34243   0.00000  Uiso   1.00
C727   C     0.88690   0.62500   0.35870   0.00000  Uiso   1.00
C728   C     0.89741   0.63477   0.40724   0.00000  Uiso   1.00
C729   C     0.86379   0.62102   0.44056   0.00000  Uiso   1.00
C730   C     0.81842   0.59897   0.42475   0.00000  Uiso   1.00
C731   C     0.80703   0.59016   0.37578   0.00000  Uiso   1.00
C732   C     0.76265   0.88679   0.17644   0.00000  Uiso   1.00
C733   C     0.77668   0.86887   0.13405   0.00000  Uiso   1.00
C734   C     0.73980   0.84826   0.10212   0.00000  Uiso   1.00
C735   C     0.87327   0.76707   0.10744   0.00000  Uiso   1.00
C736   C     0.68865   0.84616   0.11185   0.00000  Uiso   1.00
C737   C     0.67424   0.86492   0.15335   0.00000  Uiso   1.00
C738   C     0.71106   0.88542   0.18543   0.00000  Uiso   1.00
C739   C     0.84573   0.53406   0.15329   0.00000  Uiso   1.00
C740   C     0.88776   0.50707   0.14704   0.00000  Uiso   1.00
C741   C     0.89547   0.99377   0.10096   0.00000  Uiso   1.00
C742   C     0.86136   0.50723   0.06068   0.00000  Uiso   1.00
C743   C     0.81926   0.53382   0.06652   0.00000  Uiso   1.00
C744   C     0.81145   0.54728   0.11257   0.00000  Uiso   1.00
C745   C     0.91590   0.97038   0.30989   0.00000  Uiso   1.00
C746   C     0.81078   0.71621   0.39395   0.00000  Uiso   1.00
C747   C     0.94943   0.50243   0.29301   0.00000  Uiso   1.00
C748   C     0.98726   0.52161   0.32512   0.00000  Uiso   1.00
C749   C     0.99228   0.50885   0.37430   0.00000  Uiso   1.00
C750   C     0.95952   0.97683   0.39147   0.00000  Uiso   1.00
C751   C     0.92156   0.95760   0.35952   0.00000  Uiso   1.00
C752   C     0.74896   0.70228   0.02972   0.00000  Uiso   1.00
C753   C     0.70413   0.72234   0.00647   0.00000  Uiso   1.00
C754   C     0.99446   0.69631   0.49277   0.00000  Uiso   1.00
C755   C     0.99615   0.65051   0.00291   0.00000  Uiso   1.00
C756   C     0.70771   0.63043   0.02505   0.00000  Uiso   1.00
C757   C     0.79362   0.73057   0.10283   0.00000  Uiso   1.00
C758   C     0.75063   0.65619   0.03861   0.00000  Uiso   1.00
C759   C     0.87455   0.82622   0.46945   0.00000  Uiso   1.00
C760   C     0.84403   0.85277   0.49495   0.00000  Uiso   1.00
C761   C     0.86465   0.89093   0.01619   0.00000  Uiso   1.00
C762   C     0.91550   0.90301   0.01156   0.00000  Uiso   1.00
C763   C     0.94592   0.87694   0.48596   0.00000  Uiso   1.00
C764   C     0.92558   0.83873   0.46487   0.00000  Uiso   1.00
C765   C     0.85475   0.78413   0.39597   0.00000  Uiso   1.00
C766   C     0.79146   0.72878   0.05221   0.00000  Uiso   1.00
Cu767  Cu    0.83333   0.75000   0.29821   0.00000  Uiso   1.00
Cu768  Cu    0.83333   0.75001   0.20178   0.00000  Uiso   1.00
H769   H     0.83140   0.52053   0.31995   0.00000  Uiso   1.00
H770   H     0.87229   0.81089   0.37669   0.00000  Uiso   1.00
H771   H     0.99678   0.74786   0.13573   0.00000  Uiso   1.00
H772   H     0.95784   0.69186   0.08098   0.00000  Uiso   1.00
H773   H     0.93510   0.61773   0.11350   0.00000  Uiso   1.00
H774   H     0.94996   0.60003   0.20192   0.00000  Uiso   1.00
H775   H     0.98622   0.65649   0.25766   0.00000  Uiso   1.00
H776   H     0.98363   0.84704   0.25928   0.00000  Uiso   1.00
H777   H     0.68059   0.89981   0.32183   0.00000  Uiso   1.00
H778   H     0.71810   0.87202   0.40346   0.00000  Uiso   1.00
H779   H     0.72501   0.79135   0.42249   0.00000  Uiso   1.00
H780   H     0.77688   0.97283   0.18610   0.00000  Uiso   1.00
H781   H     0.69472   0.73827   0.36028   0.00000  Uiso   1.00
H782   H     0.91450   0.63410   0.33382   0.00000  Uiso   1.00
H783   H     0.93176   0.65303   0.41843   0.00000  Uiso   1.00
H784   H     0.87205   0.62841   0.47837   0.00000  Uiso   1.00
H785   H     0.79209   0.58878   0.45040   0.00000  Uiso   1.00
H786   H     0.77220   0.57237   0.36400   0.00000  Uiso   1.00
H787   H     0.81621   0.87033   0.12615   0.00000  Uiso   1.00
H788   H     0.75088   0.83384   0.06992   0.00000  Uiso   1.00
H789   H     0.99348   0.83017   0.08715   0.00000  Uiso   1.00
H790   H     0.96788   0.86356   0.16066   0.00000  Uiso   1.00
H791   H     0.83730   0.61730   0.17286   0.00000  Uiso   1.00
H792   H     0.69957   0.90016   0.21731   0.00000  Uiso   1.00
H793   H     0.91509   0.99687   0.17750   0.00000  Uiso   1.00
H794   H     0.92832   0.97343   0.09663   0.00000  Uiso   1.00
H795   H     0.86759   0.99721   0.02492   0.00000  Uiso   1.00
H796   H     0.79286   0.54424   0.03532   0.00000  Uiso   1.00
H797   H     0.77883   0.56816   0.11649   0.00000  Uiso   1.00
H798   H     0.94646   0.51270   0.25512   0.00000  Uiso   1.00
H799   H     0.67940   0.54637   0.31182   0.00000  Uiso   1.00
H800   H     0.68825   0.52376   0.39909   0.00000  Uiso   1.00
H801   H     0.96341   0.96699   0.42960   0.00000  Uiso   1.00
H802   H     0.89666   0.88417   0.30320   0.00000  Uiso   1.00
H803   H     0.89622   0.93314   0.37363   0.00000  Uiso   1.00
H804   H     0.70186   0.75794   0.00087   0.00000  Uiso   1.00
H805   H     0.95928   0.71183   0.47606   0.00000  Uiso   1.00
H806   H     0.96255   0.63034   0.49493   0.00000  Uiso   1.00
H807   H     0.70877   0.59508   0.03288   0.00000  Uiso   1.00
H808   H     0.78481   0.64049   0.05732   0.00000  Uiso   1.00
H809   H     0.80448   0.84389   0.49832   0.00000  Uiso   1.00
H810   H     0.84114   0.91119   0.03607   0.00000  Uiso   1.00
H811   H     0.93147   0.93263   0.02754   0.00000  Uiso   1.00
H812   H     0.98526   0.88633   0.48245   0.00000  Uiso   1.00
H813   H     0.90811   0.77628   0.04215   0.00000  Uiso   1.00
H814   H     0.94968   0.81865   0.44533   0.00000  Uiso   1.00
H815   H     0.79589   0.68567   0.46073   0.00000  Uiso   1.00
H816   H     0.90537   0.78172   0.12901   0.00000  Uiso   1.00
H817   H     0.79348   0.68936   0.37347   0.00000  Uiso   1.00
H818   H     0.76358   0.71518   0.12136   0.00000  Uiso   1.00
N819   N     0.83333   0.75001   0.12934   0.00000  Uiso   1.00
N820   N     0.83333   0.74999   0.37065   0.00000  Uiso   1.00
O821   O     0.83334   0.68573   0.29071   0.00000  Uiso   1.00
O822   O     0.83333   0.81428   0.20928   0.00000  Uiso   1.00
O823   O     0.83334   0.68573   0.20928   0.00000  Uiso   1.00
O824   O     0.83333   0.81427   0.29072   0.00000  Uiso   1.00
O825   O     0.75828   0.75000   0.28132   0.00000  Uiso   1.00
O826   O     0.90839   0.75001   0.21868   0.00000  Uiso   1.00
O827   O     0.75828   0.75000   0.19988   0.00000  Uiso   1.00
O828   O     0.90839   0.75000   0.30011   0.00000  Uiso   1.00
C829   C     0.16716   0.16467   0.75079   0.00000  Uiso   1.00
C830   C     0.18670   0.28589   0.94646   0.00000  Uiso   1.00
C831   C     0.16496   0.24794   0.52745   0.00000  Uiso   1.00
C832   C     0.16474   0.25004   0.97238   0.00000  Uiso   1.00
C833   C     0.06823   0.24887   0.73829   0.00000  Uiso   1.00
C834   C     0.26502   0.25092   0.76193   0.00000  Uiso   1.00
C835   C     0.01412   0.24075   0.73444   0.00000  Uiso   1.00
C836   C     0.31932   0.25749   0.76728   0.00000  Uiso   1.00
C837   C     0.16640   0.04205   0.78794   0.00000  Uiso   1.00
C838   C     0.13743   0.45359   0.71081   0.00000  Uiso   1.00
C839   C     0.16744   0.08772   0.79261   0.00000  Uiso   1.00
C840   C     0.16600   0.33485   0.74882   0.00000  Uiso   1.00
C841   C     0.13497   0.40767   0.71104   0.00000  Uiso   1.00
C842   C     0.16805   0.11581   0.75063   0.00000  Uiso   1.00
C843   C     0.16768   0.38282   0.74587   0.00000  Uiso   1.00
C844   C     0.16951   0.09662   0.70554   0.00000  Uiso   1.00
C845   C     0.20402   0.40390   0.77774   0.00000  Uiso   1.00
C846   C     0.17257   0.05101   0.70155   0.00000  Uiso   1.00
C847   C     0.20848   0.44989   0.77609   0.00000  Uiso   1.00
C848   C     0.17130   0.02343   0.74359   0.00000  Uiso   1.00
C849   C     0.17381   0.47498   0.74269   0.00000  Uiso   1.00
C850   C     0.32739   0.20627   0.70063   0.00000  Uiso   1.00
C851   C     0.20724   0.26498   0.55721   0.00000  Uiso   1.00
C852   C     0.32023   0.21565   0.65048   0.00000  Uiso   1.00
C853   C     0.29849   0.18389   0.61933   0.00000  Uiso   1.00
C854   C     0.28524   0.14223   0.63777   0.00000  Uiso   1.00
C855   C     0.29344   0.13232   0.68760   0.00000  Uiso   1.00
C856   C     0.31413   0.16428   0.71902   0.00000  Uiso   1.00
C857   C     0.00578   0.28902   0.80465   0.00000  Uiso   1.00
C858   C     0.00098   0.33472   0.79445   0.00000  Uiso   1.00
C859   C     0.01761   0.36457   0.82994   0.00000  Uiso   1.00
C860   C     0.03857   0.34891   0.87599   0.00000  Uiso   1.00
C861   C     0.04241   0.30340   0.88675   0.00000  Uiso   1.00
C862   C     0.14410   0.21505   0.94436   0.00000  Uiso   1.00
C863   C     0.02548   0.27347   0.85142   0.00000  Uiso   1.00
C864   C     0.17464   0.10319   0.84243   0.00000  Uiso   1.00
C865   C     0.22023   0.12500   0.85870   0.00000  Uiso   1.00
C866   C     0.23075   0.13477   0.90724   0.00000  Uiso   1.00
C867   C     0.19712   0.12102   0.94056   0.00000  Uiso   1.00
C868   C     0.15175   0.09897   0.92475   0.00000  Uiso   1.00
C869   C     0.14036   0.09016   0.87578   0.00000  Uiso   1.00
C870   C     0.09598   0.38679   0.67644   0.00000  Uiso   1.00
C871   C     0.11001   0.36887   0.63405   0.00000  Uiso   1.00
C872   C     0.07314   0.34826   0.60212   0.00000  Uiso   1.00
C873   C     0.20661   0.26707   0.60744   0.00000  Uiso   1.00
C874   C     0.02198   0.34616   0.61185   0.00000  Uiso   1.00
C875   C     0.00757   0.36492   0.65335   0.00000  Uiso   1.00
C876   C     0.04440   0.38542   0.68543   0.00000  Uiso   1.00
C877   C     0.17906   0.03406   0.65329   0.00000  Uiso   1.00
C878   C     0.22109   0.00707   0.64704   0.00000  Uiso   1.00
C879   C     0.22881   0.49377   0.60096   0.00000  Uiso   1.00
C880   C     0.19469   0.00723   0.56068   0.00000  Uiso   1.00
C881   C     0.15259   0.03382   0.56652   0.00000  Uiso   1.00
C882   C     0.14479   0.04728   0.61257   0.00000  Uiso   1.00
C883   C     0.24924   0.47038   0.80989   0.00000  Uiso   1.00
C884   C     0.14411   0.21621   0.89395   0.00000  Uiso   1.00
C885   C     0.28277   0.00243   0.79301   0.00000  Uiso   1.00
C886   C     0.32060   0.02161   0.82512   0.00000  Uiso   1.00
C887   C     0.32562   0.00885   0.87430   0.00000  Uiso   1.00
C888   C     0.29285   0.47683   0.89147   0.00000  Uiso   1.00
C889   C     0.25489   0.45760   0.85952   0.00000  Uiso   1.00
C890   C     0.08229   0.20228   0.52972   0.00000  Uiso   1.00
C891   C     0.03747   0.22234   0.50647   0.00000  Uiso   1.00
C892   C     0.32779   0.19631   0.99277   0.00000  Uiso   1.00
C893   C     0.32948   0.15051   0.50291   0.00000  Uiso   1.00
C894   C     0.04104   0.13043   0.52505   0.00000  Uiso   1.00
C895   C     0.12695   0.23057   0.60283   0.00000  Uiso   1.00
C896   C     0.08396   0.15619   0.53861   0.00000  Uiso   1.00
C897   C     0.20788   0.32622   0.96945   0.00000  Uiso   1.00
C898   C     0.17736   0.35277   0.99495   0.00000  Uiso   1.00
C899   C     0.19798   0.39093   0.51619   0.00000  Uiso   1.00
C900   C     0.24883   0.40301   0.51156   0.00000  Uiso   1.00
C901   C     0.27925   0.37694   0.98596   0.00000  Uiso   1.00
C902   C     0.25891   0.33873   0.96487   0.00000  Uiso   1.00
C903   C     0.18808   0.28413   0.89597   0.00000  Uiso   1.00
C904   C     0.12479   0.22878   0.55221   0.00000  Uiso   1.00
Cu905  Cu    0.16667   0.25000   0.79821   0.00000  Uiso   1.00
Cu906  Cu    0.16667   0.25001   0.70178   0.00000  Uiso   1.00
H907   H     0.16474   0.02053   0.81995   0.00000  Uiso   1.00
H908   H     0.20563   0.31089   0.87669   0.00000  Uiso   1.00
H909   H     0.33011   0.24786   0.63573   0.00000  Uiso   1.00
H910   H     0.29118   0.19186   0.58098   0.00000  Uiso   1.00
H911   H     0.26843   0.11773   0.61350   0.00000  Uiso   1.00
H912   H     0.28330   0.10003   0.70192   0.00000  Uiso   1.00
H913   H     0.31955   0.15649   0.75766   0.00000  Uiso   1.00
H914   H     0.31696   0.34704   0.75928   0.00000  Uiso   1.00
H915   H     0.01392   0.39981   0.82183   0.00000  Uiso   1.00
H916   H     0.05143   0.37202   0.90346   0.00000  Uiso   1.00
H917   H     0.05834   0.29135   0.92249   0.00000  Uiso   1.00
H918   H     0.11021   0.47283   0.68610   0.00000  Uiso   1.00
H919   H     0.02805   0.23827   0.86028   0.00000  Uiso   1.00
H920   H     0.24784   0.13410   0.83382   0.00000  Uiso   1.00
H921   H     0.26509   0.15303   0.91843   0.00000  Uiso   1.00
H922   H     0.20538   0.12841   0.97837   0.00000  Uiso   1.00
H923   H     0.12543   0.08878   0.95040   0.00000  Uiso   1.00
H924   H     0.10553   0.07237   0.86400   0.00000  Uiso   1.00
H925   H     0.14954   0.37033   0.62615   0.00000  Uiso   1.00
H926   H     0.08422   0.33384   0.56992   0.00000  Uiso   1.00
H927   H     0.32682   0.33017   0.58715   0.00000  Uiso   1.00
H928   H     0.30121   0.36356   0.66066   0.00000  Uiso   1.00
H929   H     0.17063   0.11730   0.67286   0.00000  Uiso   1.00
H930   H     0.03290   0.40016   0.71731   0.00000  Uiso   1.00
H931   H     0.24842   0.49687   0.67750   0.00000  Uiso   1.00
H932   H     0.26165   0.47343   0.59663   0.00000  Uiso   1.00
H933   H     0.20092   0.49721   0.52492   0.00000  Uiso   1.00
H934   H     0.12620   0.04424   0.53532   0.00000  Uiso   1.00
H935   H     0.11217   0.06816   0.61649   0.00000  Uiso   1.00
H936   H     0.27979   0.01270   0.75512   0.00000  Uiso   1.00
H937   H     0.01274   0.04637   0.81182   0.00000  Uiso   1.00
H938   H     0.02159   0.02376   0.89909   0.00000  Uiso   1.00
H939   H     0.29675   0.46699   0.92960   0.00000  Uiso   1.00
H940   H     0.23000   0.38417   0.80320   0.00000  Uiso   1.00
H941   H     0.22955   0.43314   0.87363   0.00000  Uiso   1.00
H942   H     0.03519   0.25794   0.50087   0.00000  Uiso   1.00
H943   H     0.29262   0.21183   0.97606   0.00000  Uiso   1.00
H944   H     0.29588   0.13034   0.99493   0.00000  Uiso   1.00
H945   H     0.04210   0.09508   0.53288   0.00000  Uiso   1.00
H946   H     0.11814   0.14049   0.55732   0.00000  Uiso   1.00
H947   H     0.13781   0.34389   0.99832   0.00000  Uiso   1.00
H948   H     0.17447   0.41119   0.53607   0.00000  Uiso   1.00
H949   H     0.26481   0.43263   0.52754   0.00000  Uiso   1.00
H950   H     0.31860   0.38633   0.98245   0.00000  Uiso   1.00
H951   H     0.24144   0.27628   0.54215   0.00000  Uiso   1.00
H952   H     0.28302   0.31865   0.94533   0.00000  Uiso   1.00
H953   H     0.12922   0.18567   0.96073   0.00000  Uiso   1.00
H954   H     0.23870   0.28172   0.62901   0.00000  Uiso   1.00
H955   H     0.12681   0.18936   0.87347   0.00000  Uiso   1.00
H956   H     0.09691   0.21518   0.62136   0.00000  Uiso   1.00
N957   N     0.16667   0.25001   0.62934   0.00000  Uiso   1.00
N958   N     0.16667   0.24999   0.87065   0.00000  Uiso   1.00
O959   O     0.16667   0.18573   0.79071   0.00000  Uiso   1.00
O960   O     0.16666   0.31428   0.70928   0.00000  Uiso   1.00
O961   O     0.16667   0.18573   0.70928   0.00000  Uiso   1.00
O962   O     0.16666   0.31427   0.79072   0.00000  Uiso   1.00
O963   O     0.09161   0.25000   0.78132   0.00000  Uiso   1.00
O964   O     0.24172   0.25001   0.71868   0.00000  Uiso   1.00
O965   O     0.09161   0.25000   0.69988   0.00000  Uiso   1.00
O966   O     0.24172   0.25000   0.80011   0.00000  Uiso   1.00
C967   C     0.50050   0.16467   0.75079   0.00000  Uiso   1.00
C968   C     0.52003   0.28589   0.94646   0.00000  Uiso   1.00
C969   C     0.49829   0.24794   0.52745   0.00000  Uiso   1.00
C970   C     0.49807   0.25004   0.97238   0.00000  Uiso   1.00
C971   C     0.40157   0.24887   0.73829   0.00000  Uiso   1.00
C972   C     0.59835   0.25092   0.76193   0.00000  Uiso   1.00
C973   C     0.34746   0.24075   0.73444   0.00000  Uiso   1.00
C974   C     0.65265   0.25749   0.76728   0.00000  Uiso   1.00
C975   C     0.49974   0.04205   0.78794   0.00000  Uiso   1.00
C976   C     0.47077   0.45359   0.71081   0.00000  Uiso   1.00
C977   C     0.50078   0.08772   0.79261   0.00000  Uiso   1.00
C978   C     0.49933   0.33485   0.74882   0.00000  Uiso   1.00
C979   C     0.46830   0.40767   0.71104   0.00000  Uiso   1.00
C980   C     0.50139   0.11581   0.75063   0.00000  Uiso   1.00
C981   C     0.50101   0.38282   0.74587   0.00000  Uiso   1.00
C982   C     0.50284   0.09662   0.70554   0.00000  Uiso   1.00
C983   C     0.53736   0.40390   0.77774   0.00000  Uiso   1.00
C984   C     0.50590   0.05101   0.70155   0.00000  Uiso   1.00
C985   C     0.54181   0.44989   0.77609   0.00000  Uiso   1.00
C986   C     0.50463   0.02343   0.74359   0.00000  Uiso   1.00
C987   C     0.50714   0.47498   0.74269   0.00000  Uiso   1.00
C988   C     0.66072   0.20627   0.70063   0.00000  Uiso   1.00
C989   C     0.54058   0.26498   0.55721   0.00000  Uiso   1.00
C990   C     0.65356   0.21565   0.65048   0.00000  Uiso   1.00
C991   C     0.63182   0.18389   0.61933   0.00000  Uiso   1.00
C992   C     0.61857   0.14223   0.63777   0.00000  Uiso   1.00
C993   C     0.62677   0.13232   0.68760   0.00000  Uiso   1.00
C994   C     0.64746   0.16428   0.71902   0.00000  Uiso   1.00
C995   C     0.33912   0.28902   0.80465   0.00000  Uiso   1.00
C996   C     0.33431   0.33472   0.79445   0.00000  Uiso   1.00
C997   C     0.35094   0.36457   0.82994   0.00000  Uiso   1.00
C998   C     0.37191   0.34891   0.87599   0.00000  Uiso   1.00
C999   C     0.37574   0.30340   0.88675   0.00000  Uiso   1.00
C1000  C     0.47743   0.21505   0.94436   0.00000  Uiso   1.00
C1001  C     0.35881   0.27347   0.85142   0.00000  Uiso   1.00
C1002  C     0.50797   0.10319   0.84243   0.00000  Uiso   1.00
C1003  C     0.55356   0.12500   0.85870   0.00000  Uiso   1.00
C1004  C     0.56408   0.13477   0.90724   0.00000  Uiso   1.00
C1005  C     0.53045   0.12102   0.94056   0.00000  Uiso   1.00
C1006  C     0.48508   0.09897   0.92475   0.00000  Uiso   1.00
C1007  C     0.47370   0.09016   0.87578   0.00000  Uiso   1.00
C1008  C     0.42931   0.38679   0.67644   0.00000  Uiso   1.00
C1009  C     0.44335   0.36887   0.63405   0.00000  Uiso   1.00
C1010  C     0.40647   0.34826   0.60212   0.00000  Uiso   1.00
C1011  C     0.53994   0.26707   0.60744   0.00000  Uiso   1.00
C1012  C     0.35531   0.34616   0.61185   0.00000  Uiso   1.00
C1013  C     0.34090   0.36492   0.65335   0.00000  Uiso   1.00
C1014  C     0.37773   0.38542   0.68543   0.00000  Uiso   1.00
C1015  C     0.51239   0.03406   0.65329   0.00000  Uiso   1.00
C1016  C     0.55442   0.00707   0.64704   0.00000  Uiso   1.00
C1017  C     0.56214   0.49377   0.60096   0.00000  Uiso   1.00
C1018  C     0.52803   0.00723   0.56068   0.00000  Uiso   1.00
C1019  C     0.48592   0.03382   0.56652   0.00000  Uiso   1.00
C1020  C     0.47812   0.04728   0.61257   0.00000  Uiso   1.00
C1021  C     0.58257   0.47038   0.80989   0.00000  Uiso   1.00
C1022  C     0.47744   0.21621   0.89395   0.00000  Uiso   1.00
C1023  C     0.61610   0.00243   0.79301   0.00000  Uiso   1.00
C1024  C     0.65393   0.02161   0.82512   0.00000  Uiso   1.00
C1025  C     0.65895   0.00885   0.87430   0.00000  Uiso   1.00
C1026  C     0.62618   0.47683   0.89147   0.00000  Uiso   1.00
C1027  C     0.58823   0.45760   0.85952   0.00000  Uiso   1.00
C1028  C     0.41562   0.20228   0.52972   0.00000  Uiso   1.00
C1029  C     0.37080   0.22234   0.50647   0.00000  Uiso   1.00
C1030  C     0.66112   0.19631   0.99277   0.00000  Uiso   1.00
C1031  C     0.66282   0.15051   0.50291   0.00000  Uiso   1.00
C1032  C     0.37437   0.13043   0.52505   0.00000  Uiso   1.00
C1033  C     0.46028   0.23057   0.60283   0.00000  Uiso   1.00
C1034  C     0.41729   0.15619   0.53861   0.00000  Uiso   1.00
C1035  C     0.54121   0.32622   0.96945   0.00000  Uiso   1.00
C1036  C     0.51070   0.35277   0.99495   0.00000  Uiso   1.00
C1037  C     0.53131   0.39093   0.51619   0.00000  Uiso   1.00
C1038  C     0.58217   0.40301   0.51156   0.00000  Uiso   1.00
C1039  C     0.61258   0.37694   0.98596   0.00000  Uiso   1.00
C1040  C     0.59224   0.33873   0.96487   0.00000  Uiso   1.00
C1041  C     0.52141   0.28413   0.89597   0.00000  Uiso   1.00
C1042  C     0.45813   0.22878   0.55221   0.00000  Uiso   1.00
Cu1043 Cu    0.50000   0.25000   0.79821   0.00000  Uiso   1.00
Cu1044 Cu    0.50000   0.25001   0.70178   0.00000  Uiso   1.00
H1045  H     0.49807   0.02053   0.81995   0.00000  Uiso   1.00
H1046  H     0.53896   0.31089   0.87669   0.00000  Uiso   1.00
H1047  H     0.66344   0.24786   0.63573   0.00000  Uiso   1.00
H1048  H     0.62451   0.19186   0.58098   0.00000  Uiso   1.00
H1049  H     0.60176   0.11773   0.61350   0.00000  Uiso   1.00
H1050  H     0.61663   0.10003   0.70192   0.00000  Uiso   1.00
H1051  H     0.65288   0.15649   0.75766   0.00000  Uiso   1.00
H1052  H     0.65029   0.34704   0.75928   0.00000  Uiso   1.00
H1053  H     0.34726   0.39981   0.82183   0.00000  Uiso   1.00
H1054  H     0.38477   0.37202   0.90346   0.00000  Uiso   1.00
H1055  H     0.39168   0.29135   0.92249   0.00000  Uiso   1.00
H1056  H     0.44354   0.47283   0.68610   0.00000  Uiso   1.00
H1057  H     0.36139   0.23827   0.86028   0.00000  Uiso   1.00
H1058  H     0.58117   0.13410   0.83382   0.00000  Uiso   1.00
H1059  H     0.59843   0.15303   0.91843   0.00000  Uiso   1.00
H1060  H     0.53871   0.12841   0.97837   0.00000  Uiso   1.00
H1061  H     0.45876   0.08878   0.95040   0.00000  Uiso   1.00
H1062  H     0.43887   0.07237   0.86400   0.00000  Uiso   1.00
H1063  H     0.48287   0.37033   0.62615   0.00000  Uiso   1.00
H1064  H     0.41755   0.33384   0.56992   0.00000  Uiso   1.00
H1065  H     0.66015   0.33017   0.58715   0.00000  Uiso   1.00
H1066  H     0.63455   0.36356   0.66066   0.00000  Uiso   1.00
H1067  H     0.50397   0.11730   0.67286   0.00000  Uiso   1.00
H1068  H     0.36624   0.40016   0.71731   0.00000  Uiso   1.00
H1069  H     0.58176   0.49687   0.67750   0.00000  Uiso   1.00
H1070  H     0.59499   0.47343   0.59663   0.00000  Uiso   1.00
H1071  H     0.53425   0.49721   0.52492   0.00000  Uiso   1.00
H1072  H     0.45953   0.04424   0.53532   0.00000  Uiso   1.00
H1073  H     0.44550   0.06816   0.61649   0.00000  Uiso   1.00
H1074  H     0.61312   0.01270   0.75512   0.00000  Uiso   1.00
H1075  H     0.34607   0.04637   0.81182   0.00000  Uiso   1.00
H1076  H     0.35492   0.02376   0.89909   0.00000  Uiso   1.00
H1077  H     0.63008   0.46699   0.92960   0.00000  Uiso   1.00
H1078  H     0.56333   0.38417   0.80320   0.00000  Uiso   1.00
H1079  H     0.56288   0.43314   0.87363   0.00000  Uiso   1.00
H1080  H     0.36853   0.25794   0.50087   0.00000  Uiso   1.00
H1081  H     0.62595   0.21183   0.97606   0.00000  Uiso   1.00
H1082  H     0.62922   0.13034   0.99493   0.00000  Uiso   1.00
H1083  H     0.37544   0.09508   0.53288   0.00000  Uiso   1.00
H1084  H     0.45148   0.14049   0.55732   0.00000  Uiso   1.00
H1085  H     0.47115   0.34389   0.99832   0.00000  Uiso   1.00
H1086  H     0.50781   0.41119   0.53607   0.00000  Uiso   1.00
H1087  H     0.59814   0.43263   0.52754   0.00000  Uiso   1.00
H1088  H     0.65193   0.38633   0.98245   0.00000  Uiso   1.00
H1089  H     0.57477   0.27628   0.54215   0.00000  Uiso   1.00
H1090  H     0.61635   0.31865   0.94533   0.00000  Uiso   1.00
H1091  H     0.46256   0.18567   0.96073   0.00000  Uiso   1.00
H1092  H     0.57204   0.28172   0.62901   0.00000  Uiso   1.00
H1093  H     0.46014   0.18936   0.87347   0.00000  Uiso   1.00
H1094  H     0.43024   0.21518   0.62136   0.00000  Uiso   1.00
N1095  N     0.50000   0.25001   0.62934   0.00000  Uiso   1.00
N1096  N     0.50000   0.24999   0.87065   0.00000  Uiso   1.00
O1097  O     0.50000   0.18573   0.79071   0.00000  Uiso   1.00
O1098  O     0.50000   0.31428   0.70928   0.00000  Uiso   1.00
O1099  O     0.50000   0.18573   0.70928   0.00000  Uiso   1.00
O1100  O     0.50000   0.31427   0.79072   0.00000  Uiso   1.00
O1101  O     0.42495   0.25000   0.78132   0.00000  Uiso   1.00
O1102  O     0.57505   0.25001   0.71868   0.00000  Uiso   1.00
O1103  O     0.42495   0.25000   0.69988   0.00000  Uiso   1.00
O1104  O     0.57505   0.25000   0.80011   0.00000  Uiso   1.00
C1105  C     0.83383   0.16467   0.75079   0.00000  Uiso   1.00
C1106  C     0.85336   0.28589   0.94646   0.00000  Uiso   1.00
C1107  C     0.83163   0.24794   0.52745   0.00000  Uiso   1.00
C1108  C     0.83141   0.25004   0.97238   0.00000  Uiso   1.00
C1109  C     0.73490   0.24887   0.73829   0.00000  Uiso   1.00
C1110  C     0.93168   0.25092   0.76193   0.00000  Uiso   1.00
C1111  C     0.68079   0.24075   0.73444   0.00000  Uiso   1.00
C1112  C     0.98599   0.25749   0.76728   0.00000  Uiso   1.00
C1113  C     0.83307   0.04205   0.78794   0.00000  Uiso   1.00
C1114  C     0.80410   0.45359   0.71081   0.00000  Uiso   1.00
C1115  C     0.83411   0.08772   0.79261   0.00000  Uiso   1.00
C1116  C     0.83267   0.33485   0.74882   0.00000  Uiso   1.00
C1117  C     0.80164   0.40767   0.71104   0.00000  Uiso   1.00
C1118  C     0.83472   0.11581   0.75063   0.00000  Uiso   1.00
C1119  C     0.83435   0.38282   0.74587   0.00000  Uiso   1.00
C1120  C     0.83617   0.09662   0.70554   0.00000  Uiso   1.00
C1121  C     0.87069   0.40390   0.77774   0.00000  Uiso   1.00
C1122  C     0.83924   0.05101   0.70155   0.00000  Uiso   1.00
C1123  C     0.87515   0.44989   0.77609   0.00000  Uiso   1.00
C1124  C     0.83796   0.02343   0.74359   0.00000  Uiso   1.00
C1125  C     0.84047   0.47498   0.74269   0.00000  Uiso   1.00
C1126  C     0.99405   0.20627   0.70063   0.00000  Uiso   1.00
C1127  C     0.87391   0.26498   0.55721   0.00000  Uiso   1.00
C1128  C     0.98690   0.21565   0.65048   0.00000  Uiso   1.00
C1129  C     0.96516   0.18389   0.61933   0.00000  Uiso   1.00
C1130  C     0.95190   0.14223   0.63777   0.00000  Uiso   1.00
C1131  C     0.96011   0.13232   0.68760   0.00000  Uiso   1.00
C1132  C     0.98080   0.16428   0.71902   0.00000  Uiso   1.00
C1133  C     0.67245   0.28902   0.80465   0.00000  Uiso   1.00
C1134  C     0.66764   0.33472   0.79445   0.00000  Uiso   1.00
C1135  C     0.68428   0.36457   0.82994   0.00000  Uiso   1.00
C1136  C     0.70524   0.34891   0.87599   0.00000  Uiso   1.00
C1137  C     0.70907   0.30340   0.88675   0.00000  Uiso   1.00
C1138  C     0.81076   0.21505   0.94436   0.00000  Uiso   1.00
C1139  C     0.69215   0.27347   0.85142   0.00000  Uiso   1.00
C1140  C     0.84130   0.10319   0.84243   0.00000  Uiso   1.00
C1141  C     0.88690   0.12500   0.85870   0.00000  Uiso   1.00
C1142  C     0.89741   0.13477   0.90724   0.00000  Uiso   1.00
C1143  C     0.86379   0.12102   0.94056   0.00000  Uiso   1.00
C1144  C     0.81842   0.09897   0.92475   0.00000  Uiso   1.00
C1145  C     0.80703   0.09016   0.87578   0.00000  Uiso   1.00
C1146  C     0.76265   0.38679   0.67644   0.00000  Uiso   1.00
C1147  C     0.77668   0.36887   0.63405   0.00000  Uiso   1.00
C1148  C     0.73980   0.34826   0.60212   0.00000  Uiso   1.00
C1149  C     0.87327   0.26707   0.60744   0.00000  Uiso   1.00
C1150  C     0.68865   0.34616   0.61185   0.00000  Uiso   1.00
C1151  C     0.67424   0.36492   0.65335   0.00000  Uiso   1.00
C1152  C     0.71106   0.38542   0.68543   0.00000  Uiso   1.00
C1153  C     0.84573   0.03406   0.65329   0.00000  Uiso   1.00
C1154  C     0.88776   0.00707   0.64704   0.00000  Uiso   1.00
C1155  C     0.89547   0.49377   0.60096   0.00000  Uiso   1.00
C1156  C     0.86136   0.00723   0.56068   0.00000  Uiso   1.00
C1157  C     0.81926   0.03382   0.56652   0.00000  Uiso   1.00
C1158  C     0.81145   0.04728   0.61257   0.00000  Uiso   1.00
C1159  C     0.91590   0.47038   0.80989   0.00000  Uiso   1.00
C1160  C     0.81078   0.21621   0.89395   0.00000  Uiso   1.00
C1161  C     0.94943   0.00243   0.79301   0.00000  Uiso   1.00
C1162  C     0.98726   0.02161   0.82512   0.00000  Uiso   1.00
C1163  C     0.99228   0.00885   0.87430   0.00000  Uiso   1.00
C1164  C     0.95952   0.47683   0.89147   0.00000  Uiso   1.00
C1165  C     0.92156   0.45760   0.85952   0.00000  Uiso   1.00
C1166  C     0.74896   0.20228   0.52972   0.00000  Uiso   1.00
C1167  C     0.70413   0.22234   0.50647   0.00000  Uiso   1.00
C1168  C     0.99446   0.19631   0.99277   0.00000  Uiso   1.00
C1169  C     0.99615   0.15051   0.50291   0.00000  Uiso   1.00
C1170  C     0.70771   0.13043   0.52505   0.00000  Uiso   1.00
C1171  C     0.79362   0.23057   0.60283   0.00000  Uiso   1.00
C1172  C     0.75063   0.15619   0.53861   0.00000  Uiso   1.00
C1173  C     0.87455   0.32622   0.96945   0.00000  Uiso   1.00
C1174  C     0.84403   0.35277   0.99495   0.00000  Uiso   1.00
C1175  C     0.86465   0.39093   0.51619   0.00000  Uiso   1.00
C1176  C     0.91550   0.40301   0.51156   0.00000  Uiso   1.00
C1177  C     0.94592   0.37694   0.98596   0.00000  Uiso   1.00
C1178  C     0.92558   0.33873   0.96487   0.00000  Uiso   1.00
C1179  C     0.85475   0.28413   0.89597   0.00000  Uiso   1.00
C1180  C     0.79146   0.22878   0.55221   0.00000  Uiso   1.00
Cu1181 Cu    0.83333   0.25000   0.79821   0.00000  Uiso   1.00
Cu1182 Cu    0.83333   0.25001   0.70178   0.00000  Uiso   1.00
H1183  H     0.83140   0.02053   0.81995   0.00000  Uiso   1.00
H1184  H     0.87229   0.31089   0.87669   0.00000  Uiso   1.00
H1185  H     0.99678   0.24786   0.63573   0.00000  Uiso   1.00
H1186  H     0.95784   0.19186   0.58098   0.00000  Uiso   1.00
H1187  H     0.93510   0.11773   0.61350   0.00000  Uiso   1.00
H1188  H     0.94996   0.10003   0.70192   0.00000  Uiso   1.00
H1189  H     0.98622   0.15649   0.75766   0.00000  Uiso   1.00
H1190  H     0.98363   0.34704   0.75928   0.00000  Uiso   1.00
H1191  H     0.68059   0.39981   0.82183   0.00000  Uiso   1.00
H1192  H     0.71810   0.37202   0.90346   0.00000  Uiso   1.00
H1193  H     0.72501   0.29135   0.92249   0.00000  Uiso   1.00
H1194  H     0.77688   0.47283   0.68610   0.00000  Uiso   1.00
H1195  H     0.69472   0.23827   0.86028   0.00000  Uiso   1.00
H1196  H     0.91450   0.13410   0.83382   0.00000  Uiso   1.00
H1197  H     0.93176   0.15303   0.91843   0.00000  Uiso   1.00
H1198  H     0.87205   0.12841   0.97837   0.00000  Uiso   1.00
H1199  H     0.79209   0.08878   0.95040   0.00000  Uiso   1.00
H1200  H     0.77220   0.07237   0.86400   0.00000  Uiso   1.00
H1201  H     0.81621   0.37033   0.62615   0.00000  Uiso   1.00
H1202  H     0.75088   0.33384   0.56992   0.00000  Uiso   1.00
H1203  H     0.99348   0.33017   0.58715   0.00000  Uiso   1.00
H1204  H     0.96788   0.36356   0.66066   0.00000  Uiso   1.00
H1205  H     0.83730   0.11730   0.67286   0.00000  Uiso   1.00
H1206  H     0.69957   0.40016   0.71731   0.00000  Uiso   1.00
H1207  H     0.91509   0.49687   0.67750   0.00000  Uiso   1.00
H1208  H     0.92832   0.47343   0.59663   0.00000  Uiso   1.00
H1209  H     0.86759   0.49721   0.52492   0.00000  Uiso   1.00
H1210  H     0.79286   0.04424   0.53532   0.00000  Uiso   1.00
H1211  H     0.77883   0.06816   0.61649   0.00000  Uiso   1.00
H1212  H     0.94646   0.01270   0.75512   0.00000  Uiso   1.00
H1213  H     0.67940   0.04637   0.81182   0.00000  Uiso   1.00
H1214  H     0.68825   0.02376   0.89909   0.00000  Uiso   1.00
H1215  H     0.96341   0.46699   0.92960   0.00000  Uiso   1.00
H1216  H     0.89666   0.38417   0.80320   0.00000  Uiso   1.00
H1217  H     0.89622   0.43314   0.87363   0.00000  Uiso   1.00
H1218  H     0.70186   0.25794   0.50087   0.00000  Uiso   1.00
H1219  H     0.95928   0.21183   0.97606   0.00000  Uiso   1.00
H1220  H     0.96255   0.13034   0.99493   0.00000  Uiso   1.00
H1221  H     0.70877   0.09508   0.53288   0.00000  Uiso   1.00
H1222  H     0.78481   0.14049   0.55732   0.00000  Uiso   1.00
H1223  H     0.80448   0.34389   0.99832   0.00000  Uiso   1.00
H1224  H     0.84114   0.41119   0.53607   0.00000  Uiso   1.00
H1225  H     0.93147   0.43263   0.52754   0.00000  Uiso   1.00
H1226  H     0.98526   0.38633   0.98245   0.00000  Uiso   1.00
H1227  H     0.90811   0.27628   0.54215   0.00000  Uiso   1.00
H1228  H     0.94968   0.31865   0.94533   0.00000  Uiso   1.00
H1229  H     0.79589   0.18567   0.96073   0.00000  Uiso   1.00
H1230  H     0.90537   0.28172   0.62901   0.00000  Uiso   1.00
H1231  H     0.79348   0.18936   0.87347   0.00000  Uiso   1.00
H1232  H     0.76358   0.21518   0.62136   0.00000  Uiso   1.00
N1233  N     0.83333   0.25001   0.62934   0.00000  Uiso   1.00
N1234  N     0.83333   0.24999   0.87065   0.00000  Uiso   1.00
O1235  O     0.83334   0.18573   0.79071   0.00000  Uiso   1.00
O1236  O     0.83333   0.31428   0.70928   0.00000  Uiso   1.00
O1237  O     0.83334   0.18573   0.70928   0.00000  Uiso   1.00
O1238  O     0.83333   0.31427   0.79072   0.00000  Uiso   1.00
O1239  O     0.75828   0.25000   0.78132   0.00000  Uiso   1.00
O1240  O     0.90839   0.25001   0.71868   0.00000  Uiso   1.00
O1241  O     0.75828   0.25000   0.69988   0.00000  Uiso   1.00
O1242  O     0.90839   0.25000   0.80011   0.00000  Uiso   1.00
C1243  C     0.16716   0.66467   0.75079   0.00000  Uiso   1.00
C1244  C     0.18670   0.78589   0.94646   0.00000  Uiso   1.00
C1245  C     0.16496   0.74794   0.52745   0.00000  Uiso   1.00
C1246  C     0.16474   0.75004   0.97238   0.00000  Uiso   1.00
C1247  C     0.06823   0.74887   0.73829   0.00000  Uiso   1.00
C1248  C     0.26502   0.75092   0.76193   0.00000  Uiso   1.00
C1249  C     0.01412   0.74075   0.73444   0.00000  Uiso   1.00
C1250  C     0.31932   0.75749   0.76728   0.00000  Uiso   1.00
C1251  C     0.16640   0.54205   0.78794   0.00000  Uiso   1.00
C1252  C     0.13743   0.95359   0.71081   0.00000  Uiso   1.00
C1253  C     0.16744   0.58772   0.79261   0.00000  Uiso   1.00
C1254  C     0.16600   0.83485   0.74882   0.00000  Uiso   1.00
C1255  C     0.13497   0.90767   0.71104   0.00000  Uiso   1.00
C1256  C     0.16805   0.61581   0.75063   0.00000  Uiso   1.00
C1257  C     0.16768   0.88282   0.74587   0.00000  Uiso   1.00
C1258  C     0.16951   0.59662   0.70554   0.00000  Uiso   1.00
C1259  C     0.20402   0.90390   0.77774   0.00000  Uiso   1.00
C1260  C     0.17257   0.55101   0.70155   0.00000  Uiso   1.00
C1261  C     0.20848   0.94989   0.77609   0.00000  Uiso   1.00
C1262  C     0.17130   0.52343   0.74359   0.00000  Uiso   1.00
C1263  C     0.17381   0.97498   0.74269   0.00000  Uiso   1.00
C1264  C     0.32739   0.70627   0.70063   0.00000  Uiso   1.00
C1265  C     0.20724   0.76498   0.55721   0.00000  Uiso   1.00
C1266  C     0.32023   0.71565   0.65048   0.00000  Uiso   1.00
C1267  C     0.29849   0.68389   0.61933   0.00000  Uiso   1.00
C1268  C     0.28524   0.64223   0.63777   0.00000  Uiso   1.00
C1269  C     0.29344   0.63232   0.68760   0.00000  Uiso   1.00
C1270  C     0.31413   0.66428   0.71902   0.00000  Uiso   1.00
C1271  C     0.00578   0.78902   0.80465   0.00000  Uiso   1.00
C1272  C     0.00098   0.83472   0.79445   0.00000  Uiso   1.00
C1273  C     0.01761   0.86457   0.82994   0.00000  Uiso   1.00
C1274  C     0.03857   0.84891   0.87599   0.00000  Uiso   1.00
C1275  C     0.04241   0.80340   0.88675   0.00000  Uiso   1.00
C1276  C     0.14410   0.71505   0.94436   0.00000  Uiso   1.00
C1277  C     0.02548   0.77347   0.85142   0.00000  Uiso   1.00
C1278  C     0.17464   0.60319   0.84243   0.00000  Uiso   1.00
C1279  C     0.22023   0.62500   0.85870   0.00000  Uiso   1.00
C1280  C     0.23075   0.63477   0.90724   0.00000  Uiso   1.00
C1281  C     0.19712   0.62102   0.94056   0.00000  Uiso   1.00
C1282  C     0.15175   0.59897   0.92475   0.00000  Uiso   1.00
C1283  C     0.14036   0.59016   0.87578   0.00000  Uiso   1.00
C1284  C     0.09598   0.88679   0.67644   0.00000  Uiso   1.00
C1285  C     0.11001   0.86887   0.63405   0.00000  Uiso   1.00
C1286  C     0.07314   0.84826   0.60212   0.00000  Uiso   1.00
C1287  C     0.20661   0.76707   0.60744   0.00000  Uiso   1.00
C1288  C     0.02198   0.84616   0.61185   0.00000  Uiso   1.00
C1289  C     0.00757   0.86492   0.65335   0.00000  Uiso   1.00
C1290  C     0.04440   0.88542   0.68543   0.00000  Uiso   1.00
C1291  C     0.17906   0.53406   0.65329   0.00000  Uiso   1.00
C1292  C     0.22109   0.50707   0.64704   0.00000  Uiso   1.00
C1293  C     0.22881   0.99377   0.60096   0.00000  Uiso   1.00
C1294  C     0.19469   0.50723   0.56068   0.00000  Uiso   1.00
C1295  C     0.15259   0.53382   0.56652   0.00000  Uiso   1.00
C1296  C     0.14479   0.54728   0.61257   0.00000  Uiso   1.00
C1297  C     0.24924   0.97038   0.80989   0.00000  Uiso   1.00
C1298  C     0.14411   0.71621   0.89395   0.00000  Uiso   1.00
C1299  C     0.28277   0.50243   0.79301   0.00000  Uiso   1.00
C1300  C     0.32060   0.52161   0.82512   0.00000  Uiso   1.00
C1301  C     0.32562   0.50885   0.87430   0.00000  Uiso   1.00
C1302  C     0.29285   0.97683   0.89147   0.00000  Uiso   1.00
C1303  C     0.25489   0.95760   0.85952   0.00000  Uiso   1.00
C1304  C     0.08229   0.70228   0.52972   0.00000  Uiso   1.00
C1305  C     0.03747   0.72234   0.50647   0.00000  Uiso   1.00
C1306  C     0.32779   0.69631   0.99277   0.00000  Uiso   1.00
C1307  C     0.32948   0.65051   0.50291   0.00000  Uiso   1.00
C1308  C     0.04104   0.63043   0.52505   0.00000  Uiso   1.00
C1309  C     0.12695   0.73057   0.60283   0.00000  Uiso   1.00
C1310  C     0.08396   0.65619   0.53861   0.00000  Uiso   1.00
C1311  C     0.20788   0.82622   0.96945   0.00000  Uiso   1.00
C1312  C     0.17736   0.85277   0.99495   0.00000  Uiso   1.00
C1313  C     0.19798   0.89093   0.51619   0.00000  Uiso   1.00
C1314  C     0.24883   0.90301   0.51156   0.00000  Uiso   1.00
C1315  C     0.27925   0.87694   0.98596   0.00000  Uiso   1.00
C1316  C     0.25891   0.83873   0.96487   0.00000  Uiso   1.00
C1317  C     0.18808   0.78413   0.89597   0.00000  Uiso   1.00
C1318  C     0.12479   0.72878   0.55221   0.00000  Uiso   1.00
Cu1319 Cu    0.16667   0.75000   0.79821   0.00000  Uiso   1.00
Cu1320 Cu    0.16667   0.75001   0.70178   0.00000  Uiso   1.00
H1321  H     0.16474   0.52053   0.81995   0.00000  Uiso   1.00
H1322  H     0.20563   0.81089   0.87669   0.00000  Uiso   1.00
H1323  H     0.33011   0.74786   0.63573   0.00000  Uiso   1.00
H1324  H     0.29118   0.69186   0.58098   0.00000  Uiso   1.00
H1325  H     0.26843   0.61773   0.61350   0.00000  Uiso   1.00
H1326  H     0.28330   0.60003   0.70192   0.00000  Uiso   1.00
H1327  H     0.31955   0.65649   0.75766   0.00000  Uiso   1.00
H1328  H     0.31696   0.84704   0.75928   0.00000  Uiso   1.00
H1329  H     0.01392   0.89981   0.82183   0.00000  Uiso   1.00
H1330  H     0.05143   0.87202   0.90346   0.00000  Uiso   1.00
H1331  H     0.05834   0.79135   0.92249   0.00000  Uiso   1.00
H1332  H     0.11021   0.97283   0.68610   0.00000  Uiso   1.00
H1333  H     0.02805   0.73827   0.86028   0.00000  Uiso   1.00
H1334  H     0.24784   0.63410   0.83382   0.00000  Uiso   1.00
H1335  H     0.26509   0.65303   0.91843   0.00000  Uiso   1.00
H1336  H     0.20538   0.62841   0.97837   0.00000  Uiso   1.00
H1337  H     0.12543   0.58878   0.95040   0.00000  Uiso   1.00
H1338  H     0.10553   0.57237   0.86400   0.00000  Uiso   1.00
H1339  H     0.14954   0.87033   0.62615   0.00000  Uiso   1.00
H1340  H     0.08422   0.83384   0.56992   0.00000  Uiso   1.00
H1341  H     0.32682   0.83017   0.58715   0.00000  Uiso   1.00
H1342  H     0.30121   0.86356   0.66066   0.00000  Uiso   1.00
H1343  H     0.17063   0.61730   0.67286   0.00000  Uiso   1.00
H1344  H     0.03290   0.90016   0.71731   0.00000  Uiso   1.00
H1345  H     0.24842   0.99687   0.67750   0.00000  Uiso   1.00
H1346  H     0.26165   0.97343   0.59663   0.00000  Uiso   1.00
H1347  H     0.20092   0.99721   0.52492   0.00000  Uiso   1.00
H1348  H     0.12620   0.54424   0.53532   0.00000  Uiso   1.00
H1349  H     0.11217   0.56816   0.61649   0.00000  Uiso   1.00
H1350  H     0.27979   0.51270   0.75512   0.00000  Uiso   1.00
H1351  H     0.01274   0.54637   0.81182   0.00000  Uiso   1.00
H1352  H     0.02159   0.52376   0.89909   0.00000  Uiso   1.00
H1353  H     0.29675   0.96699   0.92960   0.00000  Uiso   1.00
H1354  H     0.23000   0.88417   0.80320   0.00000  Uiso   1.00
H1355  H     0.22955   0.93314   0.87363   0.00000  Uiso   1.00
H1356  H     0.03519   0.75794   0.50087   0.00000  Uiso   1.00
H1357  H     0.29262   0.71183   0.97606   0.00000  Uiso   1.00
H1358  H     0.29588   0.63034   0.99493   0.00000  Uiso   1.00
H1359  H     0.04210   0.59508   0.53288   0.00000  Uiso   1.00
H1360  H     0.11814   0.64049   0.55732   0.00000  Uiso   1.00
H1361  H     0.13781   0.84389   0.99832   0.00000  Uiso   1.00
H1362  H     0.17447   0.91119   0.53607   0.00000  Uiso   1.00
H1363  H     0.26481   0.93263   0.52754   0.00000  Uiso   1.00
H1364  H     0.31860   0.88633   0.98245   0.00000  Uiso   1.00
H1365  H     0.24144   0.77628   0.54215   0.00000  Uiso   1.00
H1366  H     0.28302   0.81865   0.94533   0.00000  Uiso   1.00
H1367  H     0.12922   0.68567   0.96073   0.00000  Uiso   1.00
H1368  H     0.23870   0.78172   0.62901   0.00000  Uiso   1.00
H1369  H     0.12681   0.68936   0.87347   0.00000  Uiso   1.00
H1370  H     0.09691   0.71518   0.62136   0.00000  Uiso   1.00
N1371  N     0.16667   0.75001   0.62934   0.00000  Uiso   1.00
N1372  N     0.16667   0.74999   0.87065   0.00000  Uiso   1.00
O1373  O     0.16667   0.68573   0.79071   0.00000  Uiso   1.00
O1374  O     0.16666   0.81428   0.70928   0.00000  Uiso   1.00
O1375  O     0.16667   0.68573   0.70928   0.00000  Uiso   1.00
O1376  O     0.16666   0.81427   0.79072   0.00000  Uiso   1.00
O1377  O     0.09161   0.75000   0.78132   0.00000  Uiso   1.00
O1378  O     0.24172   0.75001   0.71868   0.00000  Uiso   1.00
O1379  O     0.09161   0.75000   0.69988   0.00000  Uiso   1.00
O1380  O     0.24172   0.75000   0.80011   0.00000  Uiso   1.00
C1381  C     0.50050   0.66467   0.75079   0.00000  Uiso   1.00
C1382  C     0.52003   0.78589   0.94646   0.00000  Uiso   1.00
C1383  C     0.49829   0.74794   0.52745   0.00000  Uiso   1.00
C1384  C     0.49807   0.75004   0.97238   0.00000  Uiso   1.00
C1385  C     0.40157   0.74887   0.73829   0.00000  Uiso   1.00
C1386  C     0.59835   0.75092   0.76193   0.00000  Uiso   1.00
C1387  C     0.34746   0.74075   0.73444   0.00000  Uiso   1.00
C1388  C     0.65265   0.75749   0.76728   0.00000  Uiso   1.00
C1389  C     0.49974   0.54205   0.78794   0.00000  Uiso   1.00
C1390  C     0.47077   0.95359   0.71081   0.00000  Uiso   1.00
C1391  C     0.50078   0.58772   0.79261   0.00000  Uiso   1.00
C1392  C     0.49933   0.83485   0.74882   0.00000  Uiso   1.00
C1393  C     0.46830   0.90767   0.71104   0.00000  Uiso   1.00
C1394  C     0.50139   0.61581   0.75063   0.00000  Uiso   1.00
C1395  C     0.50101   0.88282   0.74587   0.00000  Uiso   1.00
C1396  C     0.50284   0.59662   0.70554   0.00000  Uiso   1.00
C1397  C     0.53736   0.90390   0.77774   0.00000  Uiso   1.00
C1398  C     0.50590   0.55101   0.70155   0.00000  Uiso   1.00
C1399  C     0.54181   0.94989   0.77609   0.00000  Uiso   1.00
C1400  C     0.50463   0.52343   0.74359   0.00000  Uiso   1.00
C1401  C     0.50714   0.97498   0.74269   0.00000  Uiso   1.00
C1402  C     0.66072   0.70627   0.70063   0.00000  Uiso   1.00
C1403  C     0.54058   0.76498   0.55721   0.00000  Uiso   1.00
C1404  C     0.65356   0.71565   0.65048   0.00000  Uiso   1.00
C1405  C     0.63182   0.68389   0.61933   0.00000  Uiso   1.00
C1406  C     0.61857   0.64223   0.63777   0.00000  Uiso   1.00
C1407  C     0.62677   0.63232   0.68760   0.00000  Uiso   1.00
C1408  C     0.64746   0.66428   0.71902   0.00000  Uiso   1.00
C1409  C     0.33912   0.78902   0.80465   0.00000  Uiso   1.00
C1410  C     0.33431   0.83472   0.79445   0.00000  Uiso   1.00
C1411  C     0.35094   0.86457   0.82994   0.00000  Uiso   1.00
C1412  C     0.37191   0.84891   0.87599   0.00000  Uiso   1.00
C1413  C     0.37574   0.80340   0.88675   0.00000  Uiso   1.00
C1414  C     0.47743   0.71505   0.94436   0.00000  Uiso   1.00
C1415  C     0.35881   0.77347   0.85142   0.00000  Uiso   1.00
C1416  C     0.50797   0.60319   0.84243   0.00000  Uiso   1.00
C1417  C     0.55356   0.62500   0.85870   0.00000  Uiso   1.00
C1418  C     0.56408   0.63477   0.90724   0.00000  Uiso   1.00
C1419  C     0.53045   0.62102   0.94056   0.00000  Uiso   1.00
C1420  C     0.48508   0.59897   0.92475   0.00000  Uiso   1.00
C1421  C     0.47370   0.59016   0.87578   0.00000  Uiso   1.00
C1422  C     0.42931   0.88679   0.67644   0.00000  Uiso   1.00
C1423  C     0.44335   0.86887   0.63405   0.00000  Uiso   1.00
C1424  C     0.40647   0.84826   0.60212   0.00000  Uiso   1.00
C1425  C     0.53994   0.76707   0.60744   0.00000  Uiso   1.00
C1426  C     0.35531   0.84616   0.61185   0.00000  Uiso   1.00
C1427  C     0.34090   0.86492   0.65335   0.00000  Uiso   1.00
C1428  C     0.37773   0.88542   0.68543   0.00000  Uiso   1.00
C1429  C     0.51239   0.53406   0.65329   0.00000  Uiso   1.00
C1430  C     0.55442   0.50707   0.64704   0.00000  Uiso   1.00
C1431  C     0.56214   0.99377   0.60096   0.00000  Uiso   1.00
C1432  C     0.52803   0.50723   0.56068   0.00000  Uiso   1.00
C1433  C     0.48592   0.53382   0.56652   0.00000  Uiso   1.00
C1434  C     0.47812   0.54728   0.61257   0.00000  Uiso   1.00
C1435  C     0.58257   0.97038   0.80989   0.00000  Uiso   1.00
C1436  C     0.47744   0.71621   0.89395   0.00000  Uiso   1.00
C1437  C     0.61610   0.50243   0.79301   0.00000  Uiso   1.00
C1438  C     0.65393   0.52161   0.82512   0.00000  Uiso   1.00
C1439  C     0.65895   0.50885   0.87430   0.00000  Uiso   1.00
C1440  C     0.62618   0.97683   0.89147   0.00000  Uiso   1.00
C1441  C     0.58823   0.95760   0.85952   0.00000  Uiso   1.00
C1442  C     0.41562   0.70228   0.52972   0.00000  Uiso   1.00
C1443  C     0.37080   0.72234   0.50647   0.00000  Uiso   1.00
C1444  C     0.66112   0.69631   0.99277   0.00000  Uiso   1.00
C1445  C     0.66282   0.65051   0.50291   0.00000  Uiso   1.00
C1446  C     0.37437   0.63043   0.52505   0.00000  Uiso   1.00
C1447  C     0.46028   0.73057   0.60283   0.00000  Uiso   1.00
C1448  C     0.41729   0.65619   0.53861   0.00000  Uiso   1.00
C1449  C     0.54121   0.82622   0.96945   0.00000  Uiso   1.00
C1450  C     0.51070   0.85277   0.99495   0.00000  Uiso   1.00
C1451  C     0.53131   0.89093   0.51619   0.00000  Uiso   1.00
C1452  C     0.58217   0.90301   0.51156   0.00000  Uiso   1.00
C1453  C     0.61258   0.87694   0.98596   0.00000  Uiso   1.00
C1454  C     0.59224   0.83873   0.96487   0.00000  Uiso   1.00
C1455  C     0.52141   0.78413   0.89597   0.00000  Uiso   1.00
C1456  C     0.45813   0.72878   0.55221   0.00000  Uiso   1.00
Cu1457 Cu    0.50000   0.75000   0.79821   0.00000  Uiso   1.00
Cu1458 Cu    0.50000   0.75001   0.70178   0.00000  Uiso   1.00
H1459  H     0.49807   0.52053   0.81995   0.00000  Uiso   1.00
H1460  H     0.53896   0.81089   0.87669   0.00000  Uiso   1.00
H1461  H     0.66344   0.74786   0.63573   0.00000  Uiso   1.00
H1462  H     0.62451   0.69186   0.58098   0.00000  Uiso   1.00
H1463  H     0.60176   0.61773   0.61350   0.00000  Uiso   1.00
H1464  H     0.61663   0.60003   0.70192   0.00000  Uiso   1.00
H1465  H     0.65288   0.65649   0.75766   0.00000  Uiso   1.00
H1466  H     0.65029   0.84704   0.75928   0.00000  Uiso   1.00
H1467  H     0.34726   0.89981   0.82183   0.00000  Uiso   1.00
H1468  H     0.38477   0.87202   0.90346   0.00000  Uiso   1.00
H1469  H     0.39168   0.79135   0.92249   0.00000  Uiso   1.00
H1470  H     0.44354   0.97283   0.68610   0.00000  Uiso   1.00
H1471  H     0.36139   0.73827   0.86028   0.00000  Uiso   1.00
H1472  H     0.58117   0.63410   0.83382   0.00000  Uiso   1.00
H1473  H     0.59843   0.65303   0.91843   0.00000  Uiso   1.00
H1474  H     0.53871   0.62841   0.97837   0.00000  Uiso   1.00
H1475  H     0.45876   0.58878   0.95040   0.00000  Uiso   1.00
H1476  H     0.43887   0.57237   0.86400   0.00000  Uiso   1.00
H1477  H     0.48287   0.87033   0.62615   0.00000  Uiso   1.00
H1478  H     0.41755   0.83384   0.56992   0.00000  Uiso   1.00
H1479  H     0.66015   0.83017   0.58715   0.00000  Uiso   1.00
H1480  H     0.63455   0.86356   0.66066   0.00000  Uiso   1.00
H1481  H     0.50397   0.61730   0.67286   0.00000  Uiso   1.00
H1482  H     0.36624   0.90016   0.71731   0.00000  Uiso   1.00
H1483  H     0.58176   0.99687   0.67750   0.00000  Uiso   1.00
H1484  H     0.59499   0.97343   0.59663   0.00000  Uiso   1.00
H1485  H     0.53425   0.99721   0.52492   0.00000  Uiso   1.00
H1486  H     0.45953   0.54424   0.53532   0.00000  Uiso   1.00
H1487  H     0.44550   0.56816   0.61649   0.00000  Uiso   1.00
H1488  H     0.61312   0.51270   0.75512   0.00000  Uiso   1.00
H1489  H     0.34607   0.54637   0.81182   0.00000  Uiso   1.00
H1490  H     0.35492   0.52376   0.89909   0.00000  Uiso   1.00
H1491  H     0.63008   0.96699   0.92960   0.00000  Uiso   1.00
H1492  H     0.56333   0.88417   0.80320   0.00000  Uiso   1.00
H1493  H     0.56288   0.93314   0.87363   0.00000  Uiso   1.00
H1494  H     0.36853   0.75794   0.50087   0.00000  Uiso   1.00
H1495  H     0.62595   0.71183   0.97606   0.00000  Uiso   1.00
H1496  H     0.62922   0.63034   0.99493   0.00000  Uiso   1.00
H1497  H     0.37544   0.59508   0.53288   0.00000  Uiso   1.00
H1498  H     0.45148   0.64049   0.55732   0.00000  Uiso   1.00
H1499  H     0.47115   0.84389   0.99832   0.00000  Uiso   1.00
H1500  H     0.50781   0.91119   0.53607   0.00000  Uiso   1.00
H1501  H     0.59814   0.93263   0.52754   0.00000  Uiso   1.00
H1502  H     0.65193   0.88633   0.98245   0.00000  Uiso   1.00
H1503  H     0.57477   0.77628   0.54215   0.00000  Uiso   1.00
H1504  H     0.61635   0.81865   0.94533   0.00000  Uiso   1.00
H1505  H     0.46256   0.68567   0.96073   0.00000  Uiso   1.00
H1506  H     0.57204   0.78172   0.62901   0.00000  Uiso   1.00
H1507  H     0.46014   0.68936   0.87347   0.00000  Uiso   1.00
H1508  H     0.43024   0.71518   0.62136   0.00000  Uiso   1.00
N1509  N     0.50000   0.75001   0.62934   0.00000  Uiso   1.00
N1510  N     0.50000   0.74999   0.87065   0.00000  Uiso   1.00
O1511  O     0.50000   0.68573   0.79071   0.00000  Uiso   1.00
O1512  O     0.50000   0.81428   0.70928   0.00000  Uiso   1.00
O1513  O     0.50000   0.68573   0.70928   0.00000  Uiso   1.00
O1514  O     0.50000   0.81427   0.79072   0.00000  Uiso   1.00
O1515  O     0.42495   0.75000   0.78132   0.00000  Uiso   1.00
O1516  O     0.57505   0.75001   0.71868   0.00000  Uiso   1.00
O1517  O     0.42495   0.75000   0.69988   0.00000  Uiso   1.00
O1518  O     0.57505   0.75000   0.80011   0.00000  Uiso   1.00
C1519  C     0.83383   0.66467   0.75079   0.00000  Uiso   1.00
C1520  C     0.85336   0.78589   0.94646   0.00000  Uiso   1.00
C1521  C     0.83163   0.74794   0.52745   0.00000  Uiso   1.00
C1522  C     0.83141   0.75004   0.97238   0.00000  Uiso   1.00
C1523  C     0.73490   0.74887   0.73829   0.00000  Uiso   1.00
C1524  C     0.93168   0.75092   0.76193   0.00000  Uiso   1.00
C1525  C     0.68079   0.74075   0.73444   0.00000  Uiso   1.00
C1526  C     0.98599   0.75749   0.76728   0.00000  Uiso   1.00
C1527  C     0.83307   0.54205   0.78794   0.00000  Uiso   1.00
C1528  C     0.80410   0.95359   0.71081   0.00000  Uiso   1.00
C1529  C     0.83411   0.58772   0.79261   0.00000  Uiso   1.00
C1530  C     0.83267   0.83485   0.74882   0.00000  Uiso   1.00
C1531  C     0.80164   0.90767   0.71104   0.00000  Uiso   1.00
C1532  C     0.83472   0.61581   0.75063   0.00000  Uiso   1.00
C1533  C     0.83435   0.88282   0.74587   0.00000  Uiso   1.00
C1534  C     0.83617   0.59662   0.70554   0.00000  Uiso   1.00
C1535  C     0.87069   0.90390   0.77774   0.00000  Uiso   1.00
C1536  C     0.83924   0.55101   0.70155   0.00000  Uiso   1.00
C1537  C     0.87515   0.94989   0.77609   0.00000  Uiso   1.00
C1538  C     0.83796   0.52343   0.74359   0.00000  Uiso   1.00
C1539  C     0.84047   0.97498   0.74269   0.00000  Uiso   1.00
C1540  C     0.99405   0.70627   0.70063   0.00000  Uiso   1.00
C1541  C     0.87391   0.76498   0.55721   0.00000  Uiso   1.00
C1542  C     0.98690   0.71565   0.65048   0.00000  Uiso   1.00
C1543  C     0.96516   0.68389   0.61933   0.00000  Uiso   1.00
C1544  C     0.95190   0.64223   0.63777   0.00000  Uiso   1.00
C1545  C     0.96011   0.63232   0.68760   0.00000  Uiso   1.00
C1546  C     0.98080   0.66428   0.71902   0.00000  Uiso   1.00
C1547  C     0.67245   0.78902   0.80465   0.00000  Uiso   1.00
C1548  C     0.66764   0.83472   0.79445   0.00000  Uiso   1.00
C1549  C     0.68428   0.86457   0.82994   0.00000  Uiso   1.00
C1550  C     0.70524   0.84891   0.87599   0.00000  Uiso   1.00
C1551  C     0.70907   0.80340   0.88675   0.00000  Uiso   1.00
C1552  C     0.81076   0.71505   0.94436   0.00000  Uiso   1.00
C1553  C     0.69215   0.77347   0.85142   0.00000  Uiso   1.00
C1554  C     0.84130   0.60319   0.84243   0.00000  Uiso   1.00
C1555  C     0.88690   0.62500   0.85870   0.00000  Uiso   1.00
C1556  C     0.89741   0.63477   0.90724   0.00000  Uiso   1.00
C1557  C     0.86379   0.62102   0.94056   0.00000  Uiso   1.00
C1558  C     0.81842   0.59897   0.92475   0.00000  Uiso   1.00
C1559  C     0.80703   0.59016   0.87578   0.00000  Uiso   1.00
C1560  C     0.76265   0.88679   0.67644   0.00000  Uiso   1.00
C1561  C     0.77668   0.86887   0.63405   0.00000  Uiso   1.00
C1562  C     0.73980   0.84826   0.60212   0.00000  Uiso   1.00
C1563  C     0.87327   0.76707   0.60744   0.00000  Uiso   1.00
C1564  C     0.68865   0.84616   0.61185   0.00000  Uiso   1.00
C1565  C     0.67424   0.86492   0.65335   0.00000  Uiso   1.00
C1566  C     0.71106   0.88542   0.68543   0.00000  Uiso   1.00
C1567  C     0.84573   0.53406   0.65329   0.00000  Uiso   1.00
C1568  C     0.88776   0.50707   0.64704   0.00000  Uiso   1.00
C1569  C     0.89547   0.99377   0.60096   0.00000  Uiso   1.00
C1570  C     0.86136   0.50723   0.56068   0.00000  Uiso   1.00
C1571  C     0.81926   0.53382   0.56652   0.00000  Uiso   1.00
C1572  C     0.81145   0.54728   0.61257   0.00000  Uiso   1.00
C1573  C     0.91590   0.97038   0.80989   0.00000  Uiso   1.00
C1574  C     0.81078   0.71621   0.89395   0.00000  Uiso   1.00
C1575  C     0.94943   0.50243   0.79301   0.00000  Uiso   1.00
C1576  C     0.98726   0.52161   0.82512   0.00000  Uiso   1.00
C1577  C     0.99228   0.50885   0.87430   0.00000  Uiso   1.00
C1578  C     0.95952   0.97683   0.89147   0.00000  Uiso   1.00
C1579  C     0.92156   0.95760   0.85952   0.00000  Uiso   1.00
C1580  C     0.74896   0.70228   0.52972   0.00000  Uiso   1.00
C1581  C     0.70413   0.72234   0.50647   0.00000  Uiso   1.00
C1582  C     0.99446   0.69631   0.99277   0.00000  Uiso   1.00
C1583  C     0.99615   0.65051   0.50291   0.00000  Uiso   1.00
C1584  C     0.70771   0.63043   0.52505   0.00000  Uiso   1.00
C1585  C     0.79362   0.73057   0.60283   0.00000  Uiso   1.00
C1586  C     0.75063   0.65619   0.53861   0.00000  Uiso   1.00
C1587  C     0.87455   0.82622   0.96945   0.00000  Uiso   1.00
C1588  C     0.84403   0.85277   0.99495   0.00000  Uiso   1.00
C1589  C     0.86465   0.89093   0.51619   0.00000  Uiso   1.00
C1590  C     0.91550   0.90301   0.51156   0.00000  Uiso   1.00
C1591  C     0.94592   0.87694   0.98596   0.00000  Uiso   1.00
C1592  C     0.92558   0.83873   0.96487   0.00000  Uiso   1.00
C1593  C     0.85475   0.78413   0.89597   0.00000  Uiso   1.00
C1594  C     0.79146   0.72878   0.55221   0.00000  Uiso   1.00
Cu1595 Cu    0.83333   0.75000   0.79821   0.00000  Uiso   1.00
Cu1596 Cu    0.83333   0.75001   0.70178   0.00000  Uiso   1.00
H1597  H     0.83140   0.52053   0.81995   0.00000  Uiso   1.00
H1598  H     0.87229   0.81089   0.87669   0.00000  Uiso   1.00
H1599  H     0.99678   0.74786   0.63573   0.00000  Uiso   1.00
H1600  H     0.95784   0.69186   0.58098   0.00000  Uiso   1.00
H1601  H     0.93510   0.61773   0.61350   0.00000  Uiso   1.00
H1602  H     0.94996   0.60003   0.70192   0.00000  Uiso   1.00
H1603  H     0.98622   0.65649   0.75766   0.00000  Uiso   1.00
H1604  H     0.98363   0.84704   0.75928   0.00000  Uiso   1.00
H1605  H     0.68059   0.89981   0.82183   0.00000  Uiso   1.00
H1606  H     0.71810   0.87202   0.90346   0.00000  Uiso   1.00
H1607  H     0.72501   0.79135   0.92249   0.00000  Uiso   1.00
H1608  H     0.77688   0.97283   0.68610   0.00000  Uiso   1.00
H1609  H     0.69472   0.73827   0.86028   0.00000  Uiso   1.00
H1610  H     0.91450   0.63410   0.83382   0.00000  Uiso   1.00
H1611  H     0.93176   0.65303   0.91843   0.00000  Uiso   1.00
H1612  H     0.87205   0.62841   0.97837   0.00000  Uiso   1.00
H1613  H     0.79209   0.58878   0.95040   0.00000  Uiso   1.00
H1614  H     0.77220   0.57237   0.86400   0.00000  Uiso   1.00
H1615  H     0.81621   0.87033   0.62615   0.00000  Uiso   1.00
H1616  H     0.75088   0.83384   0.56992   0.00000  Uiso   1.00
H1617  H     0.99348   0.83017   0.58715   0.00000  Uiso   1.00
H1618  H     0.96788   0.86356   0.66066   0.00000  Uiso   1.00
H1619  H     0.83730   0.61730   0.67286   0.00000  Uiso   1.00
H1620  H     0.69957   0.90016   0.71731   0.00000  Uiso   1.00
H1621  H     0.91509   0.99687   0.67750   0.00000  Uiso   1.00
H1622  H     0.92832   0.97343   0.59663   0.00000  Uiso   1.00
H1623  H     0.86759   0.99721   0.52492   0.00000  Uiso   1.00
H1624  H     0.79286   0.54424   0.53532   0.00000  Uiso   1.00
H1625  H     0.77883   0.56816   0.61649   0.00000  Uiso   1.00
H1626  H     0.94646   0.51270   0.75512   0.00000  Uiso   1.00
H1627  H     0.67940   0.54637   0.81182   0.00000  Uiso   1.00
H1628  H     0.68825   0.52376   0.89909   0.00000  Uiso   1.00
H1629  H     0.96341   0.96699   0.92960   0.00000  Uiso   1.00
H1630  H     0.89666   0.88417   0.80320   0.00000  Uiso   1.00
H1631  H     0.89622   0.93314   0.87363   0.00000  Uiso   1.00
H1632  H     0.70186   0.75794   0.50087   0.00000  Uiso   1.00
H1633  H     0.95928   0.71183   0.97606   0.00000  Uiso   1.00
H1634  H     0.96255   0.63034   0.99493   0.00000  Uiso   1.00
H1635  H     0.70877   0.59508   0.53288   0.00000  Uiso   1.00
H1636  H     0.78481   0.64049   0.55732   0.00000  Uiso   1.00
H1637  H     0.80448   0.84389   0.99832   0.00000  Uiso   1.00
H1638  H     0.84114   0.91119   0.53607   0.00000  Uiso   1.00
H1639  H     0.93147   0.93263   0.52754   0.00000  Uiso   1.00
H1640  H     0.98526   0.88633   0.98245   0.00000  Uiso   1.00
H1641  H     0.90811   0.77628   0.54215   0.00000  Uiso   1.00
H1642  H     0.94968   0.81865   0.94533   0.00000  Uiso   1.00
H1643  H     0.79589   0.68567   0.96073   0.00000  Uiso   1.00
H1644  H     0.90537   0.78172   0.62901   0.00000  Uiso   1.00
H1645  H     0.79348   0.68936   0.87347   0.00000  Uiso   1.00
H1646  H     0.76358   0.71518   0.62136   0.00000  Uiso   1.00
N1647  N     0.83333   0.75001   0.62934   0.00000  Uiso   1.00
N1648  N     0.83333   0.74999   0.87065   0.00000  Uiso   1.00
O1649  O     0.83334   0.68573   0.79071   0.00000  Uiso   1.00
O1650  O     0.83333   0.81428   0.70928   0.00000  Uiso   1.00
O1651  O     0.83334   0.68573   0.70928   0.00000  Uiso   1.00
O1652  O     0.83333   0.81427   0.79072   0.00000  Uiso   1.00
O1653  O     0.75828   0.75000   0.78132   0.00000  Uiso   1.00
O1654  O     0.90839   0.75001   0.71868   0.00000  Uiso   1.00
O1655  O     0.75828   0.75000   0.69988   0.00000  Uiso   1.00
O1656  O     0.90839   0.75000   0.80011   0.00000  Uiso   1.00
loop_
_geom_bond_atom_site_label_1
_geom_bond_atom_site_label_2
_geom_bond_distance
_geom_bond_site_symmetry_2
_ccdc_geom_bond_type
C1     O133    1.293   .     A
C1     O131    1.305   .     A
C1     C14     1.479   .     S
C2     C69     1.479   .     S
C2     C4      1.432   .     A
C2     C75     1.412   .     A
C3     C23     1.415   .     A
C3     C76     1.430   .     A
C3     C832    1.530   1_554 S
C4     C34     1.411   .     A
C4     C831    1.530   .     S
C5     O135    1.282   .     A
C5     C7      1.431   .     S
C5     O137    1.290   .     A
C6     O136    1.286   .     A
C6     O138    1.283   .     A
C6     C8      1.428   .     S
C7     C284    1.353   1_455 S
C7     C298    1.489   1_455 S
C8     C145    1.353   .     S
C8     C167    1.489   .     S
C9     H79     1.085   .     S
C9     C20     1.397   .     A
C9     C11     1.394   .     A
C10    C21     1.402   .     A
C10    C13     1.391   .     A
C10    H90     1.085   .     S
C11    C14     1.415   .     A
C11    C36     1.473   .     S
C12    C15     1.451   .     S
C12    O132    1.289   .     A
C12    O134    1.295   .     A
C13    C42     1.480   .     S
C13    C15     1.411   .     A
C14    C16     1.409   .     A
C15    C17     1.397   .     A
C16    C18     1.393   .     A
C16    H101    1.084   .     S
C17    H112    1.085   .     S
C17    C19     1.395   .     A
C18    C20     1.410   .     A
C18    C49     1.485   .     S
C19    C21     1.420   .     A
C19    C55     1.491   .     S
C20    C435    1.469   1_545 S
C21    C434    1.469   .     S
C22    C28     1.406   .     A
C22    C24     1.402   .     A
C22    C145    1.489   .     S
C23    C45     1.403   .     A
C23    H123    1.080   .     S
C24    H81     1.083   .     S
C24    C25     1.398   .     A
C25    C26     1.398   .     A
C25    H82     1.079   .     S
C26    H83     1.083   .     S
C26    C27     1.397   .     A
C27    H84     1.083   .     S
C27    C28     1.398   .     A
C28    H85     1.083   .     S
C29    C30     1.403   .     A
C29    C35     1.405   .     A
C29    C284    1.489   1_455 S
C30    C31     1.399   .     A
C30    H362    1.082   1_455 S
C31    H87     1.083   .     S
C31    C32     1.398   .     A
C32    H88     1.082   .     S
C32    C33     1.398   .     A
C33    C35     1.399   .     A
C33    H89     1.082   .     S
C34    C56     1.401   .     A
C34    H125    1.073   .     S
C35    H91     1.083   .     S
C36    C41     1.406   .     A
C36    C37     1.401   .     A
C37    C38     1.391   .     A
C37    H92     1.084   .     S
C38    C39     1.399   .     A
C38    H93     1.077   .     S
C39    C40     1.397   .     A
C39    H94     1.082   .     S
C40    C41     1.397   .     A
C40    H95     1.082   .     S
C41    H96     1.083   .     S
C42    C48     1.403   .     A
C42    C43     1.405   .     A
C43    C44     1.399   .     A
C43    H97     1.083   .     S
C44    H98     1.082   .     S
C44    C46     1.398   .     A
C45    N129    1.359   .     A
C45    H126    1.081   .     S
C46    C47     1.398   .     A
C46    H375    1.083   1_455 S
C47    C48     1.400   .     A
C47    H376    1.083   1_455 S
C48    H102    1.083   .     S
C49    C54     1.407   .     A
C49    C50     1.405   .     A
C50    C465    1.396   1_545 S
C50    H517    1.080   1_545 S
C51    H104    1.081   .     S
C51    C464    1.396   .     S
C51    C466    1.398   .     S
C52    C53     1.397   .     A
C52    C465    1.398   1_545 S
C52    H519    1.082   1_545 S
C53    C54     1.398   .     A
C53    H106    1.082   .     S
C54    H107    1.083   .     S
C55    C61     1.408   .     A
C55    C471    1.408   .     S
C56    H127    1.081   .     S
C56    N130    1.356   .     A
C57    C58     1.398   .     A
C57    H108    1.080   .     S
C57    C469    1.408   1_545 S
C58    C59     1.397   .     A
C58    H247    1.083   .     S
C59    C474    1.397   1_545 S
C59    H248    1.083   .     S
C60    C61     1.398   .     A
C60    H111    1.082   .     S
C60    C473    1.397   .     S
C61    H113    1.083   .     S
C62    C63     1.401   .     A
C62    C76     1.467   .     S
C62    C68     1.406   .     A
C63    H114    1.083   .     S
C63    C1168   1.399   1_454 S
C64    H115    1.083   .     S
C64    C1029   1.399   .     S
C64    C893    1.402   .     S
C65    C892    1.402   1_554 S
C65    C204    1.393   .     S
C65    H944    1.077   1_554 S
C66    C68     1.392   .     A
C66    H117    1.082   .     S
C66    C341    1.393   1_455 S
C67    N129    1.353   .     A
C67    H128    1.082   .     S
C67    C76     1.406   .     A
C68    H118    1.084   .     S
C69    C74     1.407   .     A
C69    C70     1.405   .     A
C70    H119    1.083   .     S
C70    C899    1.399   .     S
C71    H120    1.082   .     S
C71    C72     1.399   .     A
C71    C898    1.399   1_554 S
C72    H121    1.080   .     S
C72    C901    1.396   1_554 S
C73    C74     1.395   .     A
C73    H122    1.083   .     S
C73    C900    1.396   .     S
C74    H124    1.083   .     S
C75    H80     1.082   .     S
C75    N130    1.359   .     A
Cu77   O131    1.965   .     S
Cu77   O138    1.961   .     S
Cu77   Cu78    2.682   .     S
Cu77   N130    2.014   .     S
Cu77   O134    1.947   .     S
Cu77   O135    1.969   .     S
Cu78   O132    1.965   .     S
Cu78   O137    1.961   .     S
Cu78   N129    2.014   .     S
Cu78   O133    1.947   .     S
Cu78   O136    1.969   .     S
H86    C168    1.082   .     S
H99    C184    1.083   .     S
H100   C185    1.083   .     S
H103   C464    1.080   .     S
H105   C466    1.082   .     S
H109   C334    1.083   1_455 S
H110   C335    1.083   1_455 S
H116   C893    1.077   .     S
C139   O271    1.293   .     A
C139   O269    1.305   .     A
C139   C152    1.479   .     S
C140   C207    1.479   .     S
C140   C142    1.432   .     A
C140   C213    1.412   .     A
C141   C161    1.415   .     A
C141   C214    1.430   .     A
C141   C970    1.530   1_554 S
C142   C172    1.411   .     A
C142   C969    1.530   .     S
C143   O273    1.282   .     A
C143   C145    1.431   .     S
C143   O275    1.290   .     A
C144   O274    1.286   .     A
C144   O276    1.283   .     A
C144   C146    1.428   .     S
C146   C283    1.353   .     S
C146   C305    1.489   .     S
C147   H217    1.085   .     S
C147   C158    1.397   .     A
C147   C149    1.394   .     A
C148   C159    1.402   .     A
C148   C151    1.391   .     A
C148   H228    1.085   .     S
C149   C152    1.415   .     A
C149   C174    1.473   .     S
C150   C153    1.451   .     S
C150   O270    1.289   .     A
C150   O272    1.295   .     A
C151   C180    1.480   .     S
C151   C153    1.411   .     A
C152   C154    1.409   .     A
C153   C155    1.397   .     A
C154   C156    1.393   .     A
C154   H239    1.084   .     S
C155   H250    1.085   .     S
C155   C157    1.395   .     A
C156   C158    1.410   .     A
C156   C187    1.485   .     S
C157   C159    1.420   .     A
C157   C193    1.491   .     S
C158   C573    1.469   1_545 S
C159   C572    1.469   .     S
C160   C166    1.406   .     A
C160   C162    1.402   .     A
C160   C283    1.489   .     S
C161   C183    1.403   .     A
C161   H261    1.080   .     S
C162   H219    1.083   .     S
C162   C163    1.398   .     A
C163   C164    1.398   .     A
C163   H220    1.079   .     S
C164   H221    1.083   .     S
C164   C165    1.397   .     A
C165   H222    1.083   .     S
C165   C166    1.398   .     A
C166   H223    1.083   .     S
C167   C168    1.403   .     A
C167   C173    1.405   .     A
C168   C169    1.399   .     A
C169   H225    1.083   .     S
C169   C170    1.398   .     A
C170   H226    1.082   .     S
C170   C171    1.398   .     A
C171   C173    1.399   .     A
C171   H227    1.082   .     S
C172   C194    1.401   .     A
C172   H263    1.073   .     S
C173   H229    1.083   .     S
C174   C179    1.406   .     A
C174   C175    1.401   .     A
C175   C176    1.391   .     A
C175   H230    1.084   .     S
C176   C177    1.399   .     A
C176   H231    1.077   .     S
C177   C178    1.397   .     A
C177   H232    1.082   .     S
C178   C179    1.397   .     A
C178   H233    1.082   .     S
C179   H234    1.083   .     S
C180   C186    1.403   .     A
C180   C181    1.405   .     A
C181   C182    1.399   .     A
C181   H235    1.083   .     S
C182   H236    1.082   .     S
C182   C184    1.398   .     A
C183   N267    1.359   .     A
C183   H264    1.081   .     S
C184   C185    1.398   .     A
C185   C186    1.400   .     A
C186   H240    1.083   .     S
C187   C192    1.407   .     A
C187   C188    1.405   .     A
C188   C603    1.396   1_545 S
C188   H655    1.080   1_545 S
C189   H242    1.081   .     S
C189   C602    1.396   .     S
C189   C604    1.398   .     S
C190   C191    1.397   .     A
C190   C603    1.398   1_545 S
C190   H657    1.082   1_545 S
C191   C192    1.398   .     A
C191   H244    1.082   .     S
C192   H245    1.083   .     S
C193   C199    1.408   .     A
C193   C609    1.408   .     S
C194   H265    1.081   .     S
C194   N268    1.356   .     A
C195   C196    1.398   .     A
C195   H246    1.080   .     S
C195   C607    1.408   1_545 S
C196   C197    1.397   .     A
C196   H385    1.083   .     S
C197   C612    1.397   1_545 S
C197   H386    1.083   .     S
C198   C199    1.398   .     A
C198   H249    1.082   .     S
C198   C611    1.397   .     S
C199   H251    1.083   .     S
C200   C201    1.401   .     A
C200   C214    1.467   .     S
C200   C206    1.406   .     A
C201   H252    1.083   .     S
C201   C892    1.399   1_554 S
C202   H253    1.083   .     S
C202   C1167   1.399   .     S
C202   C1031   1.402   .     S
C203   C1030   1.402   1_554 S
C203   C342    1.393   .     S
C203   H1082   1.077   1_554 S
C204   C206    1.392   .     A
C204   H255    1.082   .     S
C205   N267    1.353   .     A
C205   H266    1.082   .     S
C205   C214    1.406   .     A
C206   H256    1.084   .     S
C207   C212    1.407   .     A
C207   C208    1.405   .     A
C208   H257    1.083   .     S
C208   C1037   1.399   .     S
C209   H258    1.082   .     S
C209   C210    1.399   .     A
C209   C1036   1.399   1_554 S
C210   H259    1.080   .     S
C210   C1039   1.396   1_554 S
C211   C212    1.395   .     A
C211   H260    1.083   .     S
C211   C1038   1.396   .     S
C212   H262    1.083   .     S
C213   H218    1.082   .     S
C213   N268    1.359   .     A
Cu215  O269    1.965   .     S
Cu215  O276    1.961   .     S
Cu215  Cu216   2.682   .     S
Cu215  N268    2.014   .     S
Cu215  O272    1.947   .     S
Cu215  O273    1.969   .     S
Cu216  O270    1.965   .     S
Cu216  O275    1.961   .     S
Cu216  N267    2.014   .     S
Cu216  O271    1.947   .     S
Cu216  O274    1.969   .     S
H224   C306    1.082   .     S
H237   C322    1.083   .     S
H238   C323    1.083   .     S
H241   C602    1.080   .     S
H243   C604    1.082   .     S
H254   C1031   1.077   .     S
C277   O409    1.293   .     A
C277   O407    1.305   .     A
C277   C290    1.479   .     S
C278   C345    1.479   .     S
C278   C280    1.432   .     A
C278   C351    1.412   .     A
C279   C299    1.415   .     A
C279   C352    1.430   .     A
C279   C1108   1.530   1_554 S
C280   C310    1.411   .     A
C280   C1107   1.530   .     S
C281   O411    1.282   .     A
C281   C283    1.431   .     S
C281   O413    1.290   .     A
C282   O412    1.286   .     A
C282   O414    1.283   .     A
C282   C284    1.428   .     S
C284   C7      1.353   1_655 S
C284   C29     1.489   1_655 S
C285   H355    1.085   .     S
C285   C296    1.397   .     A
C285   C287    1.394   .     A
C286   C297    1.402   .     A
C286   C289    1.391   .     A
C286   H366    1.085   .     S
C287   C290    1.415   .     A
C287   C312    1.473   .     S
C288   C291    1.451   .     S
C288   O408    1.289   .     A
C288   O410    1.295   .     A
C289   C318    1.480   .     S
C289   C291    1.411   .     A
C290   C292    1.409   .     A
C291   C293    1.397   .     A
C292   C294    1.393   .     A
C292   H377    1.084   .     S
C293   H388    1.085   .     S
C293   C295    1.395   .     A
C294   C296    1.410   .     A
C294   C325    1.485   .     S
C295   C297    1.420   .     A
C295   C331    1.491   .     S
C296   C711    1.469   1_545 S
C297   C710    1.469   .     S
C298   C304    1.406   .     A
C298   C300    1.402   .     A
C298   C7      1.489   1_655 S
C299   C321    1.403   .     A
C299   H399    1.080   .     S
C300   H357    1.083   .     S
C300   C301    1.398   .     A
C301   C302    1.398   .     A
C301   H358    1.079   .     S
C302   H359    1.083   .     S
C302   C303    1.397   .     A
C303   H360    1.083   .     S
C303   C304    1.398   .     A
C304   H361    1.083   .     S
C305   C306    1.403   .     A
C305   C311    1.405   .     A
C306   C307    1.399   .     A
C307   H363    1.083   .     S
C307   C308    1.398   .     A
C308   H364    1.082   .     S
C308   C309    1.398   .     A
C309   C311    1.399   .     A
C309   H365    1.082   .     S
C310   C332    1.401   .     A
C310   H401    1.073   .     S
C311   H367    1.083   .     S
C312   C317    1.406   .     A
C312   C313    1.401   .     A
C313   C314    1.391   .     A
C313   H368    1.084   .     S
C314   C315    1.399   .     A
C314   H369    1.077   .     S
C315   C316    1.397   .     A
C315   H370    1.082   .     S
C316   C317    1.397   .     A
C316   H371    1.082   .     S
C317   H372    1.083   .     S
C318   C324    1.403   .     A
C318   C319    1.405   .     A
C319   C320    1.399   .     A
C319   H373    1.083   .     S
C320   H374    1.082   .     S
C320   C322    1.398   .     A
C321   N405    1.359   .     A
C321   H402    1.081   .     S
C322   C323    1.398   .     A
C323   C324    1.400   .     A
C324   H378    1.083   .     S
C325   C330    1.407   .     A
C325   C326    1.405   .     A
C326   C741    1.396   1_545 S
C326   H793    1.080   1_545 S
C327   H380    1.081   .     S
C327   C740    1.396   .     S
C327   C742    1.398   .     S
C328   C329    1.397   .     A
C328   C741    1.398   1_545 S
C328   H795    1.082   1_545 S
C329   C330    1.398   .     A
C329   H382    1.082   .     S
C330   H383    1.083   .     S
C331   C337    1.408   .     A
C331   C747    1.408   .     S
C332   H403    1.081   .     S
C332   N406    1.356   .     A
C333   C334    1.398   .     A
C333   H384    1.080   .     S
C333   C745    1.408   1_545 S
C334   C335    1.397   .     A
C334   H109    1.083   1_655 S
C335   C750    1.397   1_545 S
C335   H110    1.083   1_655 S
C336   C337    1.398   .     A
C336   H387    1.082   .     S
C336   C749    1.397   .     S
C337   H389    1.083   .     S
C338   C339    1.401   .     A
C338   C352    1.467   .     S
C338   C344    1.406   .     A
C339   H390    1.083   .     S
C339   C1030   1.399   1_554 S
C340   H391    1.083   .     S
C340   C891    1.399   1_655 S
C340   C1169   1.402   .     S
C341   C1168   1.402   1_554 S
C341   C66     1.393   1_655 S
C341   H1220   1.077   1_554 S
C342   C344    1.392   .     A
C342   H393    1.082   .     S
C343   N405    1.353   .     A
C343   H404    1.082   .     S
C343   C352    1.406   .     A
C344   H394    1.084   .     S
C345   C350    1.407   .     A
C345   C346    1.405   .     A
C346   H395    1.083   .     S
C346   C1175   1.399   .     S
C347   H396    1.082   .     S
C347   C348    1.399   .     A
C347   C1174   1.399   1_554 S
C348   H397    1.080   .     S
C348   C1177   1.396   1_554 S
C349   C350    1.395   .     A
C349   H398    1.083   .     S
C349   C1176   1.396   .     S
C350   H400    1.083   .     S
C351   H356    1.082   .     S
C351   N406    1.359   .     A
Cu353  O407    1.965   .     S
Cu353  O414    1.961   .     S
Cu353  Cu354   2.682   .     S
Cu353  N406    2.014   .     S
Cu353  O410    1.947   .     S
Cu353  O411    1.969   .     S
Cu354  O408    1.965   .     S
Cu354  O413    1.961   .     S
Cu354  N405    2.014   .     S
Cu354  O409    1.947   .     S
Cu354  O412    1.969   .     S
H362   C30     1.082   1_655 S
H375   C46     1.083   1_655 S
H376   C47     1.083   1_655 S
H379   C740    1.080   .     S
H381   C742    1.082   .     S
H392   C1169   1.077   .     S
C415   O547    1.293   .     A
C415   O545    1.305   .     A
C415   C428    1.479   .     S
C416   C483    1.479   .     S
C416   C418    1.432   .     A
C416   C489    1.412   .     A
C417   C437    1.415   .     A
C417   C490    1.430   .     A
C417   C1246   1.530   1_554 S
C418   C448    1.411   .     A
C418   C1245   1.530   .     S
C419   O549    1.282   .     A
C419   C421    1.431   .     S
C419   O551    1.290   .     A
C420   O550    1.286   .     A
C420   O552    1.283   .     A
C420   C422    1.428   .     S
C421   C698    1.353   1_455 S
C421   C712    1.489   1_455 S
C422   C559    1.353   .     S
C422   C581    1.489   .     S
C423   H493    1.085   .     S
C423   C434    1.397   .     A
C423   C425    1.394   .     A
C424   C435    1.402   .     A
C424   C427    1.391   .     A
C424   H504    1.085   .     S
C425   C428    1.415   .     A
C425   C450    1.473   .     S
C426   C429    1.451   .     S
C426   O546    1.289   .     A
C426   O548    1.295   .     A
C427   C456    1.480   .     S
C427   C429    1.411   .     A
C428   C430    1.409   .     A
C429   C431    1.397   .     A
C430   C432    1.393   .     A
C430   H515    1.084   .     S
C431   H526    1.085   .     S
C431   C433    1.395   .     A
C432   C434    1.410   .     A
C432   C463    1.485   .     S
C433   C435    1.420   .     A
C433   C469    1.491   .     S
C435   C20     1.469   1_565 S
C436   C442    1.406   .     A
C436   C438    1.402   .     A
C436   C559    1.489   .     S
C437   C459    1.403   .     A
C437   H537    1.080   .     S
C438   H495    1.083   .     S
C438   C439    1.398   .     A
C439   C440    1.398   .     A
C439   H496    1.079   .     S
C440   H497    1.083   .     S
C440   C441    1.397   .     A
C441   H498    1.083   .     S
C441   C442    1.398   .     A
C442   H499    1.083   .     S
C443   C444    1.403   .     A
C443   C449    1.405   .     A
C443   C698    1.489   1_455 S
C444   C445    1.399   .     A
C444   H776    1.082   1_455 S
C445   H501    1.083   .     S
C445   C446    1.398   .     A
C446   H502    1.082   .     S
C446   C447    1.398   .     A
C447   C449    1.399   .     A
C447   H503    1.082   .     S
C448   C470    1.401   .     A
C448   H539    1.073   .     S
C449   H505    1.083   .     S
C450   C455    1.406   .     A
C450   C451    1.401   .     A
C451   C452    1.391   .     A
C451   H506    1.084   .     S
C452   C453    1.399   .     A
C452   H507    1.077   .     S
C453   C454    1.397   .     A
C453   H508    1.082   .     S
C454   C455    1.397   .     A
C454   H509    1.082   .     S
C455   H510    1.083   .     S
C456   C462    1.403   .     A
C456   C457    1.405   .     A
C457   C458    1.399   .     A
C457   H511    1.083   .     S
C458   H512    1.082   .     S
C458   C460    1.398   .     A
C459   N543    1.359   .     A
C459   H540    1.081   .     S
C460   C461    1.398   .     A
C460   H789    1.083   1_455 S
C461   C462    1.400   .     A
C461   H790    1.083   1_455 S
C462   H516    1.083   .     S
C463   C468    1.407   .     A
C463   C464    1.405   .     A
C465   H518    1.081   .     S
C465   C50     1.396   1_565 S
C465   C52     1.398   1_565 S
C466   C467    1.397   .     A
C467   C468    1.398   .     A
C467   H520    1.082   .     S
C468   H521    1.083   .     S
C469   C475    1.408   .     A
C469   C57     1.408   1_565 S
C470   H541    1.081   .     S
C470   N544    1.356   .     A
C471   C472    1.398   .     A
C471   H522    1.080   .     S
C472   C473    1.397   .     A
C472   H661    1.083   .     S
C473   H662    1.083   .     S
C474   C475    1.398   .     A
C474   H525    1.082   .     S
C474   C59     1.397   1_565 S
C475   H527    1.083   .     S
C476   C477    1.401   .     A
C476   C490    1.467   .     S
C476   C482    1.406   .     A
C477   H528    1.083   .     S
C477   C1582   1.399   1_454 S
C478   H529    1.083   .     S
C478   C1443   1.399   .     S
C478   C1307   1.402   .     S
C479   C1306   1.402   1_554 S
C479   C618    1.393   .     S
C479   H1358   1.077   1_554 S
C480   C482    1.392   .     A
C480   H531    1.082   .     S
C480   C755    1.393   1_455 S
C481   N543    1.353   .     A
C481   H542    1.082   .     S
C481   C490    1.406   .     A
C482   H532    1.084   .     S
C483   C488    1.407   .     A
C483   C484    1.405   .     A
C484   H533    1.083   .     S
C484   C1313   1.399   .     S
C485   H534    1.082   .     S
C485   C486    1.399   .     A
C485   C1312   1.399   1_554 S
C486   H535    1.080   .     S
C486   C1315   1.396   1_554 S
C487   C488    1.395   .     A
C487   H536    1.083   .     S
C487   C1314   1.396   .     S
C488   H538    1.083   .     S
C489   H494    1.082   .     S
C489   N544    1.359   .     A
Cu491  O545    1.965   .     S
Cu491  O552    1.961   .     S
Cu491  Cu492   2.682   .     S
Cu491  N544    2.014   .     S
Cu491  O548    1.947   .     S
Cu491  O549    1.969   .     S
Cu492  O546    1.965   .     S
Cu492  O551    1.961   .     S
Cu492  N543    2.014   .     S
Cu492  O547    1.947   .     S
Cu492  O550    1.969   .     S
H500   C582    1.082   .     S
H513   C598    1.083   .     S
H514   C599    1.083   .     S
H517   C50     1.080   1_565 S
H519   C52     1.082   1_565 S
H523   C748    1.083   1_455 S
H524   C749    1.083   1_455 S
H530   C1307   1.077   .     S
C553   O685    1.293   .     A
C553   O683    1.305   .     A
C553   C566    1.479   .     S
C554   C621    1.479   .     S
C554   C556    1.432   .     A
C554   C627    1.412   .     A
C555   C575    1.415   .     A
C555   C628    1.430   .     A
C555   C1384   1.530   1_554 S
C556   C586    1.411   .     A
C556   C1383   1.530   .     S
C557   O687    1.282   .     A
C557   C559    1.431   .     S
C557   O689    1.290   .     A
C558   O688    1.286   .     A
C558   O690    1.283   .     A
C558   C560    1.428   .     S
C560   C697    1.353   .     S
C560   C719    1.489   .     S
C561   H631    1.085   .     S
C561   C572    1.397   .     A
C561   C563    1.394   .     A
C562   C573    1.402   .     A
C562   C565    1.391   .     A
C562   H642    1.085   .     S
C563   C566    1.415   .     A
C563   C588    1.473   .     S
C564   C567    1.451   .     S
C564   O684    1.289   .     A
C564   O686    1.295   .     A
C565   C594    1.480   .     S
C565   C567    1.411   .     A
C566   C568    1.409   .     A
C567   C569    1.397   .     A
C568   C570    1.393   .     A
C568   H653    1.084   .     S
C569   H664    1.085   .     S
C569   C571    1.395   .     A
C570   C572    1.410   .     A
C570   C601    1.485   .     S
C571   C573    1.420   .     A
C571   C607    1.491   .     S
C573   C158    1.469   1_565 S
C574   C580    1.406   .     A
C574   C576    1.402   .     A
C574   C697    1.489   .     S
C575   C597    1.403   .     A
C575   H675    1.080   .     S
C576   H633    1.083   .     S
C576   C577    1.398   .     A
C577   C578    1.398   .     A
C577   H634    1.079   .     S
C578   H635    1.083   .     S
C578   C579    1.397   .     A
C579   H636    1.083   .     S
C579   C580    1.398   .     A
C580   H637    1.083   .     S
C581   C582    1.403   .     A
C581   C587    1.405   .     A
C582   C583    1.399   .     A
C583   H639    1.083   .     S
C583   C584    1.398   .     A
C584   H640    1.082   .     S
C584   C585    1.398   .     A
C585   C587    1.399   .     A
C585   H641    1.082   .     S
C586   C608    1.401   .     A
C586   H677    1.073   .     S
C587   H643    1.083   .     S
C588   C593    1.406   .     A
C588   C589    1.401   .     A
C589   C590    1.391   .     A
C589   H644    1.084   .     S
C590   C591    1.399   .     A
C590   H645    1.077   .     S
C591   C592    1.397   .     A
C591   H646    1.082   .     S
C592   C593    1.397   .     A
C592   H647    1.082   .     S
C593   H648    1.083   .     S
C594   C600    1.403   .     A
C594   C595    1.405   .     A
C595   C596    1.399   .     A
C595   H649    1.083   .     S
C596   H650    1.082   .     S
C596   C598    1.398   .     A
C597   N681    1.359   .     A
C597   H678    1.081   .     S
C598   C599    1.398   .     A
C599   C600    1.400   .     A
C600   H654    1.083   .     S
C601   C606    1.407   .     A
C601   C602    1.405   .     A
C603   H656    1.081   .     S
C603   C188    1.396   1_565 S
C603   C190    1.398   1_565 S
C604   C605    1.397   .     A
C605   C606    1.398   .     A
C605   H658    1.082   .     S
C606   H659    1.083   .     S
C607   C613    1.408   .     A
C607   C195    1.408   1_565 S
C608   H679    1.081   .     S
C608   N682    1.356   .     A
C609   C610    1.398   .     A
C609   H660    1.080   .     S
C610   C611    1.397   .     A
C610   H799    1.083   .     S
C611   H800    1.083   .     S
C612   C613    1.398   .     A
C612   H663    1.082   .     S
C612   C197    1.397   1_565 S
C613   H665    1.083   .     S
C614   C615    1.401   .     A
C614   C628    1.467   .     S
C614   C620    1.406   .     A
C615   H666    1.083   .     S
C615   C1306   1.399   1_554 S
C616   H667    1.083   .     S
C616   C1581   1.399   .     S
C616   C1445   1.402   .     S
C617   C1444   1.402   1_554 S
C617   C756    1.393   .     S
C617   H1496   1.077   1_554 S
C618   C620    1.392   .     A
C618   H669    1.082   .     S
C619   N681    1.353   .     A
C619   H680    1.082   .     S
C619   C628    1.406   .     A
C620   H670    1.084   .     S
C621   C626    1.407   .     A
C621   C622    1.405   .     A
C622   H671    1.083   .     S
C622   C1451   1.399   .     S
C623   H672    1.082   .     S
C623   C624    1.399   .     A
C623   C1450   1.399   1_554 S
C624   H673    1.080   .     S
C624   C1453   1.396   1_554 S
C625   C626    1.395   .     A
C625   H674    1.083   .     S
C625   C1452   1.396   .     S
C626   H676    1.083   .     S
C627   H632    1.082   .     S
C627   N682    1.359   .     A
Cu629  O683    1.965   .     S
Cu629  O690    1.961   .     S
Cu629  Cu630   2.682   .     S
Cu629  N682    2.014   .     S
Cu629  O686    1.947   .     S
Cu629  O687    1.969   .     S
Cu630  O684    1.965   .     S
Cu630  O689    1.961   .     S
Cu630  N681    2.014   .     S
Cu630  O685    1.947   .     S
Cu630  O688    1.969   .     S
H638   C720    1.082   .     S
H651   C736    1.083   .     S
H652   C737    1.083   .     S
H655   C188    1.080   1_565 S
H657   C190    1.082   1_565 S
H668   C1445   1.077   .     S
C691   O823    1.293   .     A
C691   O821    1.305   .     A
C691   C704    1.479   .     S
C692   C759    1.479   .     S
C692   C694    1.432   .     A
C692   C765    1.412   .     A
C693   C713    1.415   .     A
C693   C766    1.430   .     A
C693   C1522   1.530   1_554 S
C694   C724    1.411   .     A
C694   C1521   1.530   .     S
C695   O825    1.282   .     A
C695   C697    1.431   .     S
C695   O827    1.290   .     A
C696   O826    1.286   .     A
C696   O828    1.283   .     A
C696   C698    1.428   .     S
C698   C421    1.353   1_655 S
C698   C443    1.489   1_655 S
C699   H769    1.085   .     S
C699   C710    1.397   .     A
C699   C701    1.394   .     A
C700   C711    1.402   .     A
C700   C703    1.391   .     A
C700   H780    1.085   .     S
C701   C704    1.415   .     A
C701   C726    1.473   .     S
C702   C705    1.451   .     S
C702   O822    1.289   .     A
C702   O824    1.295   .     A
C703   C732    1.480   .     S
C703   C705    1.411   .     A
C704   C706    1.409   .     A
C705   C707    1.397   .     A
C706   C708    1.393   .     A
C706   H791    1.084   .     S
C707   H802    1.085   .     S
C707   C709    1.395   .     A
C708   C710    1.410   .     A
C708   C739    1.485   .     S
C709   C711    1.420   .     A
C709   C745    1.491   .     S
C711   C296    1.469   1_565 S
C712   C718    1.406   .     A
C712   C714    1.402   .     A
C712   C421    1.489   1_655 S
C713   C735    1.403   .     A
C713   H813    1.080   .     S
C714   H771    1.083   .     S
C714   C715    1.398   .     A
C715   C716    1.398   .     A
C715   H772    1.079   .     S
C716   H773    1.083   .     S
C716   C717    1.397   .     A
C717   H774    1.083   .     S
C717   C718    1.398   .     A
C718   H775    1.083   .     S
C719   C720    1.403   .     A
C719   C725    1.405   .     A
C720   C721    1.399   .     A
C721   H777    1.083   .     S
C721   C722    1.398   .     A
C722   H778    1.082   .     S
C722   C723    1.398   .     A
C723   C725    1.399   .     A
C723   H779    1.082   .     S
C724   C746    1.401   .     A
C724   H815    1.073   .     S
C725   H781    1.083   .     S
C726   C731    1.406   .     A
C726   C727    1.401   .     A
C727   C728    1.391   .     A
C727   H782    1.084   .     S
C728   C729    1.399   .     A
C728   H783    1.077   .     S
C729   C730    1.397   .     A
C729   H784    1.082   .     S
C730   C731    1.397   .     A
C730   H785    1.082   .     S
C731   H786    1.083   .     S
C732   C738    1.403   .     A
C732   C733    1.405   .     A
C733   C734    1.399   .     A
C733   H787    1.083   .     S
C734   H788    1.082   .     S
C734   C736    1.398   .     A
C735   N819    1.359   .     A
C735   H816    1.081   .     S
C736   C737    1.398   .     A
C737   C738    1.400   .     A
C738   H792    1.083   .     S
C739   C744    1.407   .     A
C739   C740    1.405   .     A
C741   H794    1.081   .     S
C741   C326    1.396   1_565 S
C741   C328    1.398   1_565 S
C742   C743    1.397   .     A
C743   C744    1.398   .     A
C743   H796    1.082   .     S
C744   H797    1.083   .     S
C745   C751    1.408   .     A
C745   C333    1.408   1_565 S
C746   H817    1.081   .     S
C746   N820    1.356   .     A
C747   C748    1.398   .     A
C747   H798    1.080   .     S
C748   C749    1.397   .     A
C748   H523    1.083   1_655 S
C749   H524    1.083   1_655 S
C750   C751    1.398   .     A
C750   H801    1.082   .     S
C750   C335    1.397   1_565 S
C751   H803    1.083   .     S
C752   C753    1.401   .     A
C752   C766    1.467   .     S
C752   C758    1.406   .     A
C753   H804    1.083   .     S
C753   C1444   1.399   1_554 S
C754   H805    1.083   .     S
C754   C1305   1.399   1_655 S
C754   C1583   1.402   .     S
C755   C1582   1.402   1_554 S
C755   C480    1.393   1_655 S
C755   H1634   1.077   1_554 S
C756   C758    1.392   .     A
C756   H807    1.082   .     S
C757   N819    1.353   .     A
C757   H818    1.082   .     S
C757   C766    1.406   .     A
C758   H808    1.084   .     S
C759   C764    1.407   .     A
C759   C760    1.405   .     A
C760   H809    1.083   .     S
C760   C1589   1.399   .     S
C761   H810    1.082   .     S
C761   C762    1.399   .     A
C761   C1588   1.399   1_554 S
C762   H811    1.080   .     S
C762   C1591   1.396   1_554 S
C763   C764    1.395   .     A
C763   H812    1.083   .     S
C763   C1590   1.396   .     S
C764   H814    1.083   .     S
C765   H770    1.082   .     S
C765   N820    1.359   .     A
Cu767  O821    1.965   .     S
Cu767  O828    1.961   .     S
Cu767  Cu768   2.682   .     S
Cu767  N820    2.014   .     S
Cu767  O824    1.947   .     S
Cu767  O825    1.969   .     S
Cu768  O822    1.965   .     S
Cu768  O827    1.961   .     S
Cu768  N819    2.014   .     S
Cu768  O823    1.947   .     S
Cu768  O826    1.969   .     S
H776   C444    1.082   1_655 S
H789   C460    1.083   1_655 S
H790   C461    1.083   1_655 S
H793   C326    1.080   1_565 S
H795   C328    1.082   1_565 S
H806   C1583   1.077   .     S
C829   O961    1.293   .     A
C829   O959    1.305   .     A
C829   C842    1.479   .     S
C830   C897    1.479   .     S
C830   C832    1.432   .     A
C830   C903    1.412   .     A
C831   C851    1.415   .     A
C831   C904    1.430   .     A
C832   C862    1.411   .     A
C832   C3      1.530   1_556 S
C833   O963    1.282   .     A
C833   C835    1.431   .     S
C833   O965    1.290   .     A
C834   O964    1.286   .     A
C834   O966    1.283   .     A
C834   C836    1.428   .     S
C835   C1112   1.353   1_455 S
C835   C1126   1.489   1_455 S
C836   C973    1.353   .     S
C836   C995    1.489   .     S
C837   H907    1.085   .     S
C837   C848    1.397   .     A
C837   C839    1.394   .     A
C838   C849    1.402   .     A
C838   C841    1.391   .     A
C838   H918    1.085   .     S
C839   C842    1.415   .     A
C839   C864    1.473   .     S
C840   C843    1.451   .     S
C840   O960    1.289   .     A
C840   O962    1.295   .     A
C841   C870    1.480   .     S
C841   C843    1.411   .     A
C842   C844    1.409   .     A
C843   C845    1.397   .     A
C844   C846    1.393   .     A
C844   H929    1.084   .     S
C845   H940    1.085   .     S
C845   C847    1.395   .     A
C846   C848    1.410   .     A
C846   C877    1.485   .     S
C847   C849    1.420   .     A
C847   C883    1.491   .     S
C848   C1263   1.469   1_545 S
C849   C1262   1.469   .     S
C850   C856    1.406   .     A
C850   C852    1.402   .     A
C850   C973    1.489   .     S
C851   C873    1.403   .     A
C851   H951    1.080   .     S
C852   H909    1.083   .     S
C852   C853    1.398   .     A
C853   C854    1.398   .     A
C853   H910    1.079   .     S
C854   H911    1.083   .     S
C854   C855    1.397   .     A
C855   H912    1.083   .     S
C855   C856    1.398   .     A
C856   H913    1.083   .     S
C857   C858    1.403   .     A
C857   C863    1.405   .     A
C857   C1112   1.489   1_455 S
C858   C859    1.399   .     A
C858   H1190   1.082   1_455 S
C859   H915    1.083   .     S
C859   C860    1.398   .     A
C860   H916    1.082   .     S
C860   C861    1.398   .     A
C861   C863    1.399   .     A
C861   H917    1.082   .     S
C862   C884    1.401   .     A
C862   H953    1.073   .     S
C863   H919    1.083   .     S
C864   C869    1.406   .     A
C864   C865    1.401   .     A
C865   C866    1.391   .     A
C865   H920    1.084   .     S
C866   C867    1.399   .     A
C866   H921    1.077   .     S
C867   C868    1.397   .     A
C867   H922    1.082   .     S
C868   C869    1.397   .     A
C868   H923    1.082   .     S
C869   H924    1.083   .     S
C870   C876    1.403   .     A
C870   C871    1.405   .     A
C871   C872    1.399   .     A
C871   H925    1.083   .     S
C872   H926    1.082   .     S
C872   C874    1.398   .     A
C873   N957    1.359   .     A
C873   H954    1.081   .     S
C874   C875    1.398   .     A
C874   H1203   1.083   1_455 S
C875   C876    1.400   .     A
C875   H1204   1.083   1_455 S
C876   H930    1.083   .     S
C877   C882    1.407   .     A
C877   C878    1.405   .     A
C878   C1293   1.396   1_545 S
C878   H1345   1.080   1_545 S
C879   H932    1.081   .     S
C879   C1292   1.396   .     S
C879   C1294   1.398   .     S
C880   C881    1.397   .     A
C880   C1293   1.398   1_545 S
C880   H1347   1.082   1_545 S
C881   C882    1.398   .     A
C881   H934    1.082   .     S
C882   H935    1.083   .     S
C883   C889    1.408   .     A
C883   C1299   1.408   .     S
C884   H955    1.081   .     S
C884   N958    1.356   .     A
C885   C886    1.398   .     A
C885   H936    1.080   .     S
C885   C1297   1.408   1_545 S
C886   C887    1.397   .     A
C886   H1075   1.083   .     S
C887   C1302   1.397   1_545 S
C887   H1076   1.083   .     S
C888   C889    1.398   .     A
C888   H939    1.082   .     S
C888   C1301   1.397   .     S
C889   H941    1.083   .     S
C890   C891    1.401   .     A
C890   C904    1.467   .     S
C890   C896    1.406   .     A
C891   H942    1.083   .     S
C891   C340    1.399   1_455 S
C892   H943    1.083   .     S
C892   C201    1.399   1_556 S
C892   C65     1.402   1_556 S
C893   C1032   1.393   .     S
C894   C896    1.392   .     A
C894   H945    1.082   .     S
C894   C1169   1.393   1_455 S
C895   N957    1.353   .     A
C895   H956    1.082   .     S
C895   C904    1.406   .     A
C896   H946    1.084   .     S
C897   C902    1.407   .     A
C897   C898    1.405   .     A
C898   H947    1.083   .     S
C898   C71     1.399   1_556 S
C899   H948    1.082   .     S
C899   C900    1.399   .     A
C900   H949    1.080   .     S
C901   C902    1.395   .     A
C901   H950    1.083   .     S
C901   C72     1.396   1_556 S
C902   H952    1.083   .     S
C903   H908    1.082   .     S
C903   N958    1.359   .     A
Cu905  O959    1.965   .     S
Cu905  O966    1.961   .     S
Cu905  Cu906   2.682   .     S
Cu905  N958    2.014   .     S
Cu905  O962    1.947   .     S
Cu905  O963    1.969   .     S
Cu906  O960    1.965   .     S
Cu906  O965    1.961   .     S
Cu906  N957    2.014   .     S
Cu906  O961    1.947   .     S
Cu906  O964    1.969   .     S
H914   C996    1.082   .     S
H927   C1012   1.083   .     S
H928   C1013   1.083   .     S
H931   C1292   1.080   .     S
H933   C1294   1.082   .     S
H937   C1162   1.083   1_455 S
H938   C1163   1.083   1_455 S
H944   C65     1.077   1_556 S
C967   O1099   1.293   .     A
C967   O1097   1.305   .     A
C967   C980    1.479   .     S
C968   C1035   1.479   .     S
C968   C970    1.432   .     A
C968   C1041   1.412   .     A
C969   C989    1.415   .     A
C969   C1042   1.430   .     A
C970   C1000   1.411   .     A
C970   C141    1.530   1_556 S
C971   O1101   1.282   .     A
C971   C973    1.431   .     S
C971   O1103   1.290   .     A
C972   O1102   1.286   .     A
C972   O1104   1.283   .     A
C972   C974    1.428   .     S
C974   C1111   1.353   .     S
C974   C1133   1.489   .     S
C975   H1045   1.085   .     S
C975   C986    1.397   .     A
C975   C977    1.394   .     A
C976   C987    1.402   .     A
C976   C979    1.391   .     A
C976   H1056   1.085   .     S
C977   C980    1.415   .     A
C977   C1002   1.473   .     S
C978   C981    1.451   .     S
C978   O1098   1.289   .     A
C978   O1100   1.295   .     A
C979   C1008   1.480   .     S
C979   C981    1.411   .     A
C980   C982    1.409   .     A
C981   C983    1.397   .     A
C982   C984    1.393   .     A
C982   H1067   1.084   .     S
C983   H1078   1.085   .     S
C983   C985    1.395   .     A
C984   C986    1.410   .     A
C984   C1015   1.485   .     S
C985   C987    1.420   .     A
C985   C1021   1.491   .     S
C986   C1401   1.469   1_545 S
C987   C1400   1.469   .     S
C988   C994    1.406   .     A
C988   C990    1.402   .     A
C988   C1111   1.489   .     S
C989   C1011   1.403   .     A
C989   H1089   1.080   .     S
C990   H1047   1.083   .     S
C990   C991    1.398   .     A
C991   C992    1.398   .     A
C991   H1048   1.079   .     S
C992   H1049   1.083   .     S
C992   C993    1.397   .     A
C993   H1050   1.083   .     S
C993   C994    1.398   .     A
C994   H1051   1.083   .     S
C995   C996    1.403   .     A
C995   C1001   1.405   .     A
C996   C997    1.399   .     A
C997   H1053   1.083   .     S
C997   C998    1.398   .     A
C998   H1054   1.082   .     S
C998   C999    1.398   .     A
C999   C1001   1.399   .     A
C999   H1055   1.082   .     S
C1000  C1022   1.401   .     A
C1000  H1091   1.073   .     S
C1001  H1057   1.083   .     S
C1002  C1007   1.406   .     A
C1002  C1003   1.401   .     A
C1003  C1004   1.391   .     A
C1003  H1058   1.084   .     S
C1004  C1005   1.399   .     A
C1004  H1059   1.077   .     S
C1005  C1006   1.397   .     A
C1005  H1060   1.082   .     S
C1006  C1007   1.397   .     A
C1006  H1061   1.082   .     S
C1007  H1062   1.083   .     S
C1008  C1014   1.403   .     A
C1008  C1009   1.405   .     A
C1009  C1010   1.399   .     A
C1009  H1063   1.083   .     S
C1010  H1064   1.082   .     S
C1010  C1012   1.398   .     A
C1011  N1095   1.359   .     A
C1011  H1092   1.081   .     S
C1012  C1013   1.398   .     A
C1013  C1014   1.400   .     A
C1014  H1068   1.083   .     S
C1015  C1020   1.407   .     A
C1015  C1016   1.405   .     A
C1016  C1431   1.396   1_545 S
C1016  H1483   1.080   1_545 S
C1017  H1070   1.081   .     S
C1017  C1430   1.396   .     S
C1017  C1432   1.398   .     S
C1018  C1019   1.397   .     A
C1018  C1431   1.398   1_545 S
C1018  H1485   1.082   1_545 S
C1019  C1020   1.398   .     A
C1019  H1072   1.082   .     S
C1020  H1073   1.083   .     S
C1021  C1027   1.408   .     A
C1021  C1437   1.408   .     S
C1022  H1093   1.081   .     S
C1022  N1096   1.356   .     A
C1023  C1024   1.398   .     A
C1023  H1074   1.080   .     S
C1023  C1435   1.408   1_545 S
C1024  C1025   1.397   .     A
C1024  H1213   1.083   .     S
C1025  C1440   1.397   1_545 S
C1025  H1214   1.083   .     S
C1026  C1027   1.398   .     A
C1026  H1077   1.082   .     S
C1026  C1439   1.397   .     S
C1027  H1079   1.083   .     S
C1028  C1029   1.401   .     A
C1028  C1042   1.467   .     S
C1028  C1034   1.406   .     A
C1029  H1080   1.083   .     S
C1030  H1081   1.083   .     S
C1030  C339    1.399   1_556 S
C1030  C203    1.402   1_556 S
C1031  C1170   1.393   .     S
C1032  C1034   1.392   .     A
C1032  H1083   1.082   .     S
C1033  N1095   1.353   .     A
C1033  H1094   1.082   .     S
C1033  C1042   1.406   .     A
C1034  H1084   1.084   .     S
C1035  C1040   1.407   .     A
C1035  C1036   1.405   .     A
C1036  H1085   1.083   .     S
C1036  C209    1.399   1_556 S
C1037  H1086   1.082   .     S
C1037  C1038   1.399   .     A
C1038  H1087   1.080   .     S
C1039  C1040   1.395   .     A
C1039  H1088   1.083   .     S
C1039  C210    1.396   1_556 S
C1040  H1090   1.083   .     S
C1041  H1046   1.082   .     S
C1041  N1096   1.359   .     A
Cu1043 O1097   1.965   .     S
Cu1043 O1104   1.961   .     S
Cu1043 Cu1044  2.682   .     S
Cu1043 N1096   2.014   .     S
Cu1043 O1100   1.947   .     S
Cu1043 O1101   1.969   .     S
Cu1044 O1098   1.965   .     S
Cu1044 O1103   1.961   .     S
Cu1044 N1095   2.014   .     S
Cu1044 O1099   1.947   .     S
Cu1044 O1102   1.969   .     S
H1052  C1134   1.082   .     S
H1065  C1150   1.083   .     S
H1066  C1151   1.083   .     S
H1069  C1430   1.080   .     S
H1071  C1432   1.082   .     S
H1082  C203    1.077   1_556 S
C1105  O1237   1.293   .     A
C1105  O1235   1.305   .     A
C1105  C1118   1.479   .     S
C1106  C1173   1.479   .     S
C1106  C1108   1.432   .     A
C1106  C1179   1.412   .     A
C1107  C1127   1.415   .     A
C1107  C1180   1.430   .     A
C1108  C1138   1.411   .     A
C1108  C279    1.530   1_556 S
C1109  O1239   1.282   .     A
C1109  C1111   1.431   .     S
C1109  O1241   1.290   .     A
C1110  O1240   1.286   .     A
C1110  O1242   1.283   .     A
C1110  C1112   1.428   .     S
C1112  C835    1.353   1_655 S
C1112  C857    1.489   1_655 S
C1113  H1183   1.085   .     S
C1113  C1124   1.397   .     A
C1113  C1115   1.394   .     A
C1114  C1125   1.402   .     A
C1114  C1117   1.391   .     A
C1114  H1194   1.085   .     S
C1115  C1118   1.415   .     A
C1115  C1140   1.473   .     S
C1116  C1119   1.451   .     S
C1116  O1236   1.289   .     A
C1116  O1238   1.295   .     A
C1117  C1146   1.480   .     S
C1117  C1119   1.411   .     A
C1118  C1120   1.409   .     A
C1119  C1121   1.397   .     A
C1120  C1122   1.393   .     A
C1120  H1205   1.084   .     S
C1121  H1216   1.085   .     S
C1121  C1123   1.395   .     A
C1122  C1124   1.410   .     A
C1122  C1153   1.485   .     S
C1123  C1125   1.420   .     A
C1123  C1159   1.491   .     S
C1124  C1539   1.469   1_545 S
C1125  C1538   1.469   .     S
C1126  C1132   1.406   .     A
C1126  C1128   1.402   .     A
C1126  C835    1.489   1_655 S
C1127  C1149   1.403   .     A
C1127  H1227   1.080   .     S
C1128  H1185   1.083   .     S
C1128  C1129   1.398   .     A
C1129  C1130   1.398   .     A
C1129  H1186   1.079   .     S
C1130  H1187   1.083   .     S
C1130  C1131   1.397   .     A
C1131  H1188   1.083   .     S
C1131  C1132   1.398   .     A
C1132  H1189   1.083   .     S
C1133  C1134   1.403   .     A
C1133  C1139   1.405   .     A
C1134  C1135   1.399   .     A
C1135  H1191   1.083   .     S
C1135  C1136   1.398   .     A
C1136  H1192   1.082   .     S
C1136  C1137   1.398   .     A
C1137  C1139   1.399   .     A
C1137  H1193   1.082   .     S
C1138  C1160   1.401   .     A
C1138  H1229   1.073   .     S
C1139  H1195   1.083   .     S
C1140  C1145   1.406   .     A
C1140  C1141   1.401   .     A
C1141  C1142   1.391   .     A
C1141  H1196   1.084   .     S
C1142  C1143   1.399   .     A
C1142  H1197   1.077   .     S
C1143  C1144   1.397   .     A
C1143  H1198   1.082   .     S
C1144  C1145   1.397   .     A
C1144  H1199   1.082   .     S
C1145  H1200   1.083   .     S
C1146  C1152   1.403   .     A
C1146  C1147   1.405   .     A
C1147  C1148   1.399   .     A
C1147  H1201   1.083   .     S
C1148  H1202   1.082   .     S
C1148  C1150   1.398   .     A
C1149  N1233   1.359   .     A
C1149  H1230   1.081   .     S
C1150  C1151   1.398   .     A
C1151  C1152   1.400   .     A
C1152  H1206   1.083   .     S
C1153  C1158   1.407   .     A
C1153  C1154   1.405   .     A
C1154  C1569   1.396   1_545 S
C1154  H1621   1.080   1_545 S
C1155  H1208   1.081   .     S
C1155  C1568   1.396   .     S
C1155  C1570   1.398   .     S
C1156  C1157   1.397   .     A
C1156  C1569   1.398   1_545 S
C1156  H1623   1.082   1_545 S
C1157  C1158   1.398   .     A
C1157  H1210   1.082   .     S
C1158  H1211   1.083   .     S
C1159  C1165   1.408   .     A
C1159  C1575   1.408   .     S
C1160  H1231   1.081   .     S
C1160  N1234   1.356   .     A
C1161  C1162   1.398   .     A
C1161  H1212   1.080   .     S
C1161  C1573   1.408   1_545 S
C1162  C1163   1.397   .     A
C1162  H937    1.083   1_655 S
C1163  C1578   1.397   1_545 S
C1163  H938    1.083   1_655 S
C1164  C1165   1.398   .     A
C1164  H1215   1.082   .     S
C1164  C1577   1.397   .     S
C1165  H1217   1.083   .     S
C1166  C1167   1.401   .     A
C1166  C1180   1.467   .     S
C1166  C1172   1.406   .     A
C1167  H1218   1.083   .     S
C1168  H1219   1.083   .     S
C1168  C63     1.399   1_656 S
C1168  C341    1.402   1_556 S
C1169  C894    1.393   1_655 S
C1170  C1172   1.392   .     A
C1170  H1221   1.082   .     S
C1171  N1233   1.353   .     A
C1171  H1232   1.082   .     S
C1171  C1180   1.406   .     A
C1172  H1222   1.084   .     S
C1173  C1178   1.407   .     A
C1173  C1174   1.405   .     A
C1174  H1223   1.083   .     S
C1174  C347    1.399   1_556 S
C1175  H1224   1.082   .     S
C1175  C1176   1.399   .     A
C1176  H1225   1.080   .     S
C1177  C1178   1.395   .     A
C1177  H1226   1.083   .     S
C1177  C348    1.396   1_556 S
C1178  H1228   1.083   .     S
C1179  H1184   1.082   .     S
C1179  N1234   1.359   .     A
Cu1181 O1235   1.965   .     S
Cu1181 O1242   1.961   .     S
Cu1181 Cu1182  2.682   .     S
Cu1181 N1234   2.014   .     S
Cu1181 O1238   1.947   .     S
Cu1181 O1239   1.969   .     S
Cu1182 O1236   1.965   .     S
Cu1182 O1241   1.961   .     S
Cu1182 N1233   2.014   .     S
Cu1182 O1237   1.947   .     S
Cu1182 O1240   1.969   .     S
H1190  C858    1.082   1_655 S
H1203  C874    1.083   1_655 S
H1204  C875    1.083   1_655 S
H1207  C1568   1.080   .     S
H1209  C1570   1.082   .     S
H1220  C341    1.077   1_556 S
C1243  O1375   1.293   .     A
C1243  O1373   1.305   .     A
C1243  C1256   1.479   .     S
C1244  C1311   1.479   .     S
C1244  C1246   1.432   .     A
C1244  C1317   1.412   .     A
C1245  C1265   1.415   .     A
C1245  C1318   1.430   .     A
C1246  C1276   1.411   .     A
C1246  C417    1.530   1_556 S
C1247  O1377   1.282   .     A
C1247  C1249   1.431   .     S
C1247  O1379   1.290   .     A
C1248  O1378   1.286   .     A
C1248  O1380   1.283   .     A
C1248  C1250   1.428   .     S
C1249  C1526   1.353   1_455 S
C1249  C1540   1.489   1_455 S
C1250  C1387   1.353   .     S
C1250  C1409   1.489   .     S
C1251  H1321   1.085   .     S
C1251  C1262   1.397   .     A
C1251  C1253   1.394   .     A
C1252  C1263   1.402   .     A
C1252  C1255   1.391   .     A
C1252  H1332   1.085   .     S
C1253  C1256   1.415   .     A
C1253  C1278   1.473   .     S
C1254  C1257   1.451   .     S
C1254  O1374   1.289   .     A
C1254  O1376   1.295   .     A
C1255  C1284   1.480   .     S
C1255  C1257   1.411   .     A
C1256  C1258   1.409   .     A
C1257  C1259   1.397   .     A
C1258  C1260   1.393   .     A
C1258  H1343   1.084   .     S
C1259  H1354   1.085   .     S
C1259  C1261   1.395   .     A
C1260  C1262   1.410   .     A
C1260  C1291   1.485   .     S
C1261  C1263   1.420   .     A
C1261  C1297   1.491   .     S
C1263  C848    1.469   1_565 S
C1264  C1270   1.406   .     A
C1264  C1266   1.402   .     A
C1264  C1387   1.489   .     S
C1265  C1287   1.403   .     A
C1265  H1365   1.080   .     S
C1266  H1323   1.083   .     S
C1266  C1267   1.398   .     A
C1267  C1268   1.398   .     A
C1267  H1324   1.079   .     S
C1268  H1325   1.083   .     S
C1268  C1269   1.397   .     A
C1269  H1326   1.083   .     S
C1269  C1270   1.398   .     A
C1270  H1327   1.083   .     S
C1271  C1272   1.403   .     A
C1271  C1277   1.405   .     A
C1271  C1526   1.489   1_455 S
C1272  C1273   1.399   .     A
C1272  H1604   1.082   1_455 S
C1273  H1329   1.083   .     S
C1273  C1274   1.398   .     A
C1274  H1330   1.082   .     S
C1274  C1275   1.398   .     A
C1275  C1277   1.399   .     A
C1275  H1331   1.082   .     S
C1276  C1298   1.401   .     A
C1276  H1367   1.073   .     S
C1277  H1333   1.083   .     S
C1278  C1283   1.406   .     A
C1278  C1279   1.401   .     A
C1279  C1280   1.391   .     A
C1279  H1334   1.084   .     S
C1280  C1281   1.399   .     A
C1280  H1335   1.077   .     S
C1281  C1282   1.397   .     A
C1281  H1336   1.082   .     S
C1282  C1283   1.397   .     A
C1282  H1337   1.082   .     S
C1283  H1338   1.083   .     S
C1284  C1290   1.403   .     A
C1284  C1285   1.405   .     A
C1285  C1286   1.399   .     A
C1285  H1339   1.083   .     S
C1286  H1340   1.082   .     S
C1286  C1288   1.398   .     A
C1287  N1371   1.359   .     A
C1287  H1368   1.081   .     S
C1288  C1289   1.398   .     A
C1288  H1617   1.083   1_455 S
C1289  C1290   1.400   .     A
C1289  H1618   1.083   1_455 S
C1290  H1344   1.083   .     S
C1291  C1296   1.407   .     A
C1291  C1292   1.405   .     A
C1293  H1346   1.081   .     S
C1293  C878    1.396   1_565 S
C1293  C880    1.398   1_565 S
C1294  C1295   1.397   .     A
C1295  C1296   1.398   .     A
C1295  H1348   1.082   .     S
C1296  H1349   1.083   .     S
C1297  C1303   1.408   .     A
C1297  C885    1.408   1_565 S
C1298  H1369   1.081   .     S
C1298  N1372   1.356   .     A
C1299  C1300   1.398   .     A
C1299  H1350   1.080   .     S
C1300  C1301   1.397   .     A
C1300  H1489   1.083   .     S
C1301  H1490   1.083   .     S
C1302  C1303   1.398   .     A
C1302  H1353   1.082   .     S
C1302  C887    1.397   1_565 S
C1303  H1355   1.083   .     S
C1304  C1305   1.401   .     A
C1304  C1318   1.467   .     S
C1304  C1310   1.406   .     A
C1305  H1356   1.083   .     S
C1305  C754    1.399   1_455 S
C1306  H1357   1.083   .     S
C1306  C615    1.399   1_556 S
C1306  C479    1.402   1_556 S
C1307  C1446   1.393   .     S
C1308  C1310   1.392   .     A
C1308  H1359   1.082   .     S
C1308  C1583   1.393   1_455 S
C1309  N1371   1.353   .     A
C1309  H1370   1.082   .     S
C1309  C1318   1.406   .     A
C1310  H1360   1.084   .     S
C1311  C1316   1.407   .     A
C1311  C1312   1.405   .     A
C1312  H1361   1.083   .     S
C1312  C485    1.399   1_556 S
C1313  H1362   1.082   .     S
C1313  C1314   1.399   .     A
C1314  H1363   1.080   .     S
C1315  C1316   1.395   .     A
C1315  H1364   1.083   .     S
C1315  C486    1.396   1_556 S
C1316  H1366   1.083   .     S
C1317  H1322   1.082   .     S
C1317  N1372   1.359   .     A
Cu1319 O1373   1.965   .     S
Cu1319 O1380   1.961   .     S
Cu1319 Cu1320  2.682   .     S
Cu1319 N1372   2.014   .     S
Cu1319 O1376   1.947   .     S
Cu1319 O1377   1.969   .     S
Cu1320 O1374   1.965   .     S
Cu1320 O1379   1.961   .     S
Cu1320 N1371   2.014   .     S
Cu1320 O1375   1.947   .     S
Cu1320 O1378   1.969   .     S
H1328  C1410   1.082   .     S
H1341  C1426   1.083   .     S
H1342  C1427   1.083   .     S
H1345  C878    1.080   1_565 S
H1347  C880    1.082   1_565 S
H1351  C1576   1.083   1_455 S
H1352  C1577   1.083   1_455 S
H1358  C479    1.077   1_556 S
C1381  O1513   1.293   .     A
C1381  O1511   1.305   .     A
C1381  C1394   1.479   .     S
C1382  C1449   1.479   .     S
C1382  C1384   1.432   .     A
C1382  C1455   1.412   .     A
C1383  C1403   1.415   .     A
C1383  C1456   1.430   .     A
C1384  C1414   1.411   .     A
C1384  C555    1.530   1_556 S
C1385  O1515   1.282   .     A
C1385  C1387   1.431   .     S
C1385  O1517   1.290   .     A
C1386  O1516   1.286   .     A
C1386  O1518   1.283   .     A
C1386  C1388   1.428   .     S
C1388  C1525   1.353   .     S
C1388  C1547   1.489   .     S
C1389  H1459   1.085   .     S
C1389  C1400   1.397   .     A
C1389  C1391   1.394   .     A
C1390  C1401   1.402   .     A
C1390  C1393   1.391   .     A
C1390  H1470   1.085   .     S
C1391  C1394   1.415   .     A
C1391  C1416   1.473   .     S
C1392  C1395   1.451   .     S
C1392  O1512   1.289   .     A
C1392  O1514   1.295   .     A
C1393  C1422   1.480   .     S
C1393  C1395   1.411   .     A
C1394  C1396   1.409   .     A
C1395  C1397   1.397   .     A
C1396  C1398   1.393   .     A
C1396  H1481   1.084   .     S
C1397  H1492   1.085   .     S
C1397  C1399   1.395   .     A
C1398  C1400   1.410   .     A
C1398  C1429   1.485   .     S
C1399  C1401   1.420   .     A
C1399  C1435   1.491   .     S
C1401  C986    1.469   1_565 S
C1402  C1408   1.406   .     A
C1402  C1404   1.402   .     A
C1402  C1525   1.489   .     S
C1403  C1425   1.403   .     A
C1403  H1503   1.080   .     S
C1404  H1461   1.083   .     S
C1404  C1405   1.398   .     A
C1405  C1406   1.398   .     A
C1405  H1462   1.079   .     S
C1406  H1463   1.083   .     S
C1406  C1407   1.397   .     A
C1407  H1464   1.083   .     S
C1407  C1408   1.398   .     A
C1408  H1465   1.083   .     S
C1409  C1410   1.403   .     A
C1409  C1415   1.405   .     A
C1410  C1411   1.399   .     A
C1411  H1467   1.083   .     S
C1411  C1412   1.398   .     A
C1412  H1468   1.082   .     S
C1412  C1413   1.398   .     A
C1413  C1415   1.399   .     A
C1413  H1469   1.082   .     S
C1414  C1436   1.401   .     A
C1414  H1505   1.073   .     S
C1415  H1471   1.083   .     S
C1416  C1421   1.406   .     A
C1416  C1417   1.401   .     A
C1417  C1418   1.391   .     A
C1417  H1472   1.084   .     S
C1418  C1419   1.399   .     A
C1418  H1473   1.077   .     S
C1419  C1420   1.397   .     A
C1419  H1474   1.082   .     S
C1420  C1421   1.397   .     A
C1420  H1475   1.082   .     S
C1421  H1476   1.083   .     S
C1422  C1428   1.403   .     A
C1422  C1423   1.405   .     A
C1423  C1424   1.399   .     A
C1423  H1477   1.083   .     S
C1424  H1478   1.082   .     S
C1424  C1426   1.398   .     A
C1425  N1509   1.359   .     A
C1425  H1506   1.081   .     S
C1426  C1427   1.398   .     A
C1427  C1428   1.400   .     A
C1428  H1482   1.083   .     S
C1429  C1434   1.407   .     A
C1429  C1430   1.405   .     A
C1431  H1484   1.081   .     S
C1431  C1016   1.396   1_565 S
C1431  C1018   1.398   1_565 S
C1432  C1433   1.397   .     A
C1433  C1434   1.398   .     A
C1433  H1486   1.082   .     S
C1434  H1487   1.083   .     S
C1435  C1441   1.408   .     A
C1435  C1023   1.408   1_565 S
C1436  H1507   1.081   .     S
C1436  N1510   1.356   .     A
C1437  C1438   1.398   .     A
C1437  H1488   1.080   .     S
C1438  C1439   1.397   .     A
C1438  H1627   1.083   .     S
C1439  H1628   1.083   .     S
C1440  C1441   1.398   .     A
C1440  H1491   1.082   .     S
C1440  C1025   1.397   1_565 S
C1441  H1493   1.083   .     S
C1442  C1443   1.401   .     A
C1442  C1456   1.467   .     S
C1442  C1448   1.406   .     A
C1443  H1494   1.083   .     S
C1444  H1495   1.083   .     S
C1444  C753    1.399   1_556 S
C1444  C617    1.402   1_556 S
C1445  C1584   1.393   .     S
C1446  C1448   1.392   .     A
C1446  H1497   1.082   .     S
C1447  N1509   1.353   .     A
C1447  H1508   1.082   .     S
C1447  C1456   1.406   .     A
C1448  H1498   1.084   .     S
C1449  C1454   1.407   .     A
C1449  C1450   1.405   .     A
C1450  H1499   1.083   .     S
C1450  C623    1.399   1_556 S
C1451  H1500   1.082   .     S
C1451  C1452   1.399   .     A
C1452  H1501   1.080   .     S
C1453  C1454   1.395   .     A
C1453  H1502   1.083   .     S
C1453  C624    1.396   1_556 S
C1454  H1504   1.083   .     S
C1455  H1460   1.082   .     S
C1455  N1510   1.359   .     A
Cu1457 O1511   1.965   .     S
Cu1457 O1518   1.961   .     S
Cu1457 Cu1458  2.682   .     S
Cu1457 N1510   2.014   .     S
Cu1457 O1514   1.947   .     S
Cu1457 O1515   1.969   .     S
Cu1458 O1512   1.965   .     S
Cu1458 O1517   1.961   .     S
Cu1458 N1509   2.014   .     S
Cu1458 O1513   1.947   .     S
Cu1458 O1516   1.969   .     S
H1466  C1548   1.082   .     S
H1479  C1564   1.083   .     S
H1480  C1565   1.083   .     S
H1483  C1016   1.080   1_565 S
H1485  C1018   1.082   1_565 S
H1496  C617    1.077   1_556 S
C1519  O1651   1.293   .     A
C1519  O1649   1.305   .     A
C1519  C1532   1.479   .     S
C1520  C1587   1.479   .     S
C1520  C1522   1.432   .     A
C1520  C1593   1.412   .     A
C1521  C1541   1.415   .     A
C1521  C1594   1.430   .     A
C1522  C1552   1.411   .     A
C1522  C693    1.530   1_556 S
C1523  O1653   1.282   .     A
C1523  C1525   1.431   .     S
C1523  O1655   1.290   .     A
C1524  O1654   1.286   .     A
C1524  O1656   1.283   .     A
C1524  C1526   1.428   .     S
C1526  C1249   1.353   1_655 S
C1526  C1271   1.489   1_655 S
C1527  H1597   1.085   .     S
C1527  C1538   1.397   .     A
C1527  C1529   1.394   .     A
C1528  C1539   1.402   .     A
C1528  C1531   1.391   .     A
C1528  H1608   1.085   .     S
C1529  C1532   1.415   .     A
C1529  C1554   1.473   .     S
C1530  C1533   1.451   .     S
C1530  O1650   1.289   .     A
C1530  O1652   1.295   .     A
C1531  C1560   1.480   .     S
C1531  C1533   1.411   .     A
C1532  C1534   1.409   .     A
C1533  C1535   1.397   .     A
C1534  C1536   1.393   .     A
C1534  H1619   1.084   .     S
C1535  H1630   1.085   .     S
C1535  C1537   1.395   .     A
C1536  C1538   1.410   .     A
C1536  C1567   1.485   .     S
C1537  C1539   1.420   .     A
C1537  C1573   1.491   .     S
C1539  C1124   1.469   1_565 S
C1540  C1546   1.406   .     A
C1540  C1542   1.402   .     A
C1540  C1249   1.489   1_655 S
C1541  C1563   1.403   .     A
C1541  H1641   1.080   .     S
C1542  H1599   1.083   .     S
C1542  C1543   1.398   .     A
C1543  C1544   1.398   .     A
C1543  H1600   1.079   .     S
C1544  H1601   1.083   .     S
C1544  C1545   1.397   .     A
C1545  H1602   1.083   .     S
C1545  C1546   1.398   .     A
C1546  H1603   1.083   .     S
C1547  C1548   1.403   .     A
C1547  C1553   1.405   .     A
C1548  C1549   1.399   .     A
C1549  H1605   1.083   .     S
C1549  C1550   1.398   .     A
C1550  H1606   1.082   .     S
C1550  C1551   1.398   .     A
C1551  C1553   1.399   .     A
C1551  H1607   1.082   .     S
C1552  C1574   1.401   .     A
C1552  H1643   1.073   .     S
C1553  H1609   1.083   .     S
C1554  C1559   1.406   .     A
C1554  C1555   1.401   .     A
C1555  C1556   1.391   .     A
C1555  H1610   1.084   .     S
C1556  C1557   1.399   .     A
C1556  H1611   1.077   .     S
C1557  C1558   1.397   .     A
C1557  H1612   1.082   .     S
C1558  C1559   1.397   .     A
C1558  H1613   1.082   .     S
C1559  H1614   1.083   .     S
C1560  C1566   1.403   .     A
C1560  C1561   1.405   .     A
C1561  C1562   1.399   .     A
C1561  H1615   1.083   .     S
C1562  H1616   1.082   .     S
C1562  C1564   1.398   .     A
C1563  N1647   1.359   .     A
C1563  H1644   1.081   .     S
C1564  C1565   1.398   .     A
C1565  C1566   1.400   .     A
C1566  H1620   1.083   .     S
C1567  C1572   1.407   .     A
C1567  C1568   1.405   .     A
C1569  H1622   1.081   .     S
C1569  C1154   1.396   1_565 S
C1569  C1156   1.398   1_565 S
C1570  C1571   1.397   .     A
C1571  C1572   1.398   .     A
C1571  H1624   1.082   .     S
C1572  H1625   1.083   .     S
C1573  C1579   1.408   .     A
C1573  C1161   1.408   1_565 S
C1574  H1645   1.081   .     S
C1574  N1648   1.356   .     A
C1575  C1576   1.398   .     A
C1575  H1626   1.080   .     S
C1576  C1577   1.397   .     A
C1576  H1351   1.083   1_655 S
C1577  H1352   1.083   1_655 S
C1578  C1579   1.398   .     A
C1578  H1629   1.082   .     S
C1578  C1163   1.397   1_565 S
C1579  H1631   1.083   .     S
C1580  C1581   1.401   .     A
C1580  C1594   1.467   .     S
C1580  C1586   1.406   .     A
C1581  H1632   1.083   .     S
C1582  H1633   1.083   .     S
C1582  C477    1.399   1_656 S
C1582  C755    1.402   1_556 S
C1583  C1308   1.393   1_655 S
C1584  C1586   1.392   .     A
C1584  H1635   1.082   .     S
C1585  N1647   1.353   .     A
C1585  H1646   1.082   .     S
C1585  C1594   1.406   .     A
C1586  H1636   1.084   .     S
C1587  C1592   1.407   .     A
C1587  C1588   1.405   .     A
C1588  H1637   1.083   .     S
C1588  C761    1.399   1_556 S
C1589  H1638   1.082   .     S
C1589  C1590   1.399   .     A
C1590  H1639   1.080   .     S
C1591  C1592   1.395   .     A
C1591  H1640   1.083   .     S
C1591  C762    1.396   1_556 S
C1592  H1642   1.083   .     S
C1593  H1598   1.082   .     S
C1593  N1648   1.359   .     A
Cu1595 O1649   1.965   .     S
Cu1595 O1656   1.961   .     S
Cu1595 Cu1596  2.682   .     S
Cu1595 N1648   2.014   .     S
Cu1595 O1652   1.947   .     S
Cu1595 O1653   1.969   .     S
Cu1596 O1650   1.965   .     S
Cu1596 O1655   1.961   .     S
Cu1596 N1647   2.014   .     S
Cu1596 O1651   1.947   .     S
Cu1596 O1654   1.969   .     S
H1604  C1272   1.082   1_655 S
H1617  C1288   1.083   1_655 S
H1618  C1289   1.083   1_655 S
H1621  C1154   1.080   1_565 S
H1623  C1156   1.082   1_565 S
H1634  C755    1.077   1_556 S
