data_str_m3_o1_o16_pcu_sym.226
_audit_creation_date              2020-01-03
_audit_creation_method            'Materials Studio'
_symmetry_space_group_name_H-M    'P1'
_symmetry_Int_Tables_number       1
_symmetry_cell_setting            triclinic
loop_
_symmetry_equiv_pos_as_xyz
  x,y,z
_cell_length_a                    29.5466
_cell_length_b                    32.0657
_cell_length_c                    26.2206
_cell_angle_alpha                 89.9959
_cell_angle_beta                  71.6072
_cell_angle_gamma                 89.9054
loop_
_atom_site_label
_atom_site_type_symbol
_atom_site_fract_x
_atom_site_fract_y
_atom_site_fract_z
_atom_site_U_iso_or_equiv
_atom_site_adp_type
_atom_site_occupancy
C1     C     0.16626   0.24667   0.25123   0.00000  Uiso   1.00
C2     C     0.14979   0.13517   0.48754   0.00000  Uiso   1.00
C3     C     0.16343   0.13568   0.43109   0.00000  Uiso   1.00
C4     C     0.18559   0.14339   0.01189   0.00000  Uiso   1.00
C5     C     0.23343   0.15147   0.47936   0.00000  Uiso   1.00
C6     C     0.24686   0.14005   0.42525   0.00000  Uiso   1.00
C7     C     0.21219   0.12997   0.40216   0.00000  Uiso   1.00
C8     C     0.17452   0.14696   0.06718   0.00000  Uiso   1.00
C9     C     0.25308   0.17406   0.05808   0.00000  Uiso   1.00
C10    C     0.12817   0.14331   0.40585   0.00000  Uiso   1.00
C11    C     0.20838   0.31180   0.22785   0.00000  Uiso   1.00
C12    C     0.14142   0.15959   0.35056   0.00000  Uiso   1.00
C13    C     0.20878   0.02119   0.22727   0.00000  Uiso   1.00
C14    C     0.16640   0.04267   0.25137   0.00000  Uiso   1.00
C15    C     0.12376   0.02213   0.27714   0.00000  Uiso   1.00
C16    C     0.12311   0.31252   0.27850   0.00000  Uiso   1.00
C17    C     0.16567   0.29090   0.25284   0.00000  Uiso   1.00
C18    C     0.31964   0.14349   0.21341   0.00000  Uiso   1.00
C19    C     0.03424   0.14350   0.21343   0.00000  Uiso   1.00
C20    C     0.01366   0.18974   0.28670   0.00000  Uiso   1.00
C21    C     0.29906   0.18975   0.28667   0.00000  Uiso   1.00
C22    C     0.16666   0.08670   0.25011   0.00000  Uiso   1.00
C23    C     0.19262   0.16625   0.14812   0.00000  Uiso   1.00
C24    C     0.26617   0.17005   0.00213   0.00000  Uiso   1.00
C25    C     0.20771   0.16201   0.09016   0.00000  Uiso   1.00
C26    C     0.08014   0.13702   0.43500   0.00000  Uiso   1.00
C27    C     0.06681   0.12853   0.48976   0.00000  Uiso   1.00
C28    C     0.10076   0.12948   0.01649   0.00000  Uiso   1.00
H29    H     0.27748   0.18778   0.07670   0.00000  Uiso   1.00
H30    H     0.24179   0.03739   0.20722   0.00000  Uiso   1.00
H31    H     0.09130   0.03934   0.29680   0.00000  Uiso   1.00
H32    H     0.30971   0.12496   0.18415   0.00000  Uiso   1.00
H33    H     0.06059   0.12494   0.18417   0.00000  Uiso   1.00
H34    H     0.02355   0.20819   0.31606   0.00000  Uiso   1.00
H35    H     0.27269   0.20821   0.31603   0.00000  Uiso   1.00
H36    H     0.28383   0.13871   0.40046   0.00000  Uiso   1.00
H37    H     0.13986   0.13833   0.09345   0.00000  Uiso   1.00
H38    H     0.05297   0.13911   0.41549   0.00000  Uiso   1.00
H39    H     0.08732   0.12577   0.05947   0.00000  Uiso   1.00
H40    H     0.02959   0.12363   0.01220   0.00000  Uiso   1.00
H41    H     0.22421   0.11894   0.36111   0.00000  Uiso   1.00
H42    H     0.24115   0.29512   0.20799   0.00000  Uiso   1.00
N43    N     0.04760   0.16668   0.25002   0.00000  Uiso   1.00
N44    N     0.28573   0.16665   0.25000   0.00000  Uiso   1.00
O45    O     0.12846   0.22775   0.25000   0.00000  Uiso   1.00
O46    O     0.20490   0.22774   0.25000   0.00000  Uiso   1.00
O47    O     0.10947   0.16666   0.32681   0.00000  Uiso   1.00
O48    O     0.18591   0.16665   0.32681   0.00000  Uiso   1.00
O49    O     0.12843   0.10559   0.25000   0.00000  Uiso   1.00
O50    O     0.20488   0.10558   0.24999   0.00000  Uiso   1.00
O51    O     0.14742   0.16668   0.17319   0.00000  Uiso   1.00
O52    O     0.22387   0.16667   0.17319   0.00000  Uiso   1.00
Zn53   Zn    0.11562   0.16667   0.25000   0.00000  Uiso   1.00
Zn54   Zn    0.21771   0.16666   0.25000   0.00000  Uiso   1.00
N55    N     0.07989   0.29111   0.30679   0.00000  Uiso   1.00
H56    H     0.06896   0.30120   0.34676   0.00000  Uiso   1.00
H57    H     0.05362   0.29978   0.28986   0.00000  Uiso   1.00
C58    C     0.31102   0.19008   0.46843   0.00000  Uiso   1.00
H59    H     0.32039   0.19081   0.42505   0.00000  Uiso   1.00
O60    O     0.00423   0.20769   0.48898   0.00000  Uiso   1.00
C61    C     0.49959   0.24667   0.25123   0.00000  Uiso   1.00
C62    C     0.48313   0.13517   0.48754   0.00000  Uiso   1.00
C63    C     0.49677   0.13568   0.43109   0.00000  Uiso   1.00
C64    C     0.51893   0.14339   0.01189   0.00000  Uiso   1.00
C65    C     0.56676   0.15147   0.47936   0.00000  Uiso   1.00
C66    C     0.58019   0.14005   0.42525   0.00000  Uiso   1.00
C67    C     0.54553   0.12997   0.40216   0.00000  Uiso   1.00
C68    C     0.50785   0.14696   0.06718   0.00000  Uiso   1.00
C69    C     0.58641   0.17406   0.05808   0.00000  Uiso   1.00
C70    C     0.46150   0.14331   0.40585   0.00000  Uiso   1.00
C71    C     0.54171   0.31180   0.22785   0.00000  Uiso   1.00
C72    C     0.47475   0.15959   0.35056   0.00000  Uiso   1.00
C73    C     0.54212   0.02119   0.22727   0.00000  Uiso   1.00
C74    C     0.49973   0.04267   0.25137   0.00000  Uiso   1.00
C75    C     0.45709   0.02213   0.27714   0.00000  Uiso   1.00
C76    C     0.45645   0.31252   0.27850   0.00000  Uiso   1.00
C77    C     0.49900   0.29090   0.25284   0.00000  Uiso   1.00
C78    C     0.65297   0.14349   0.21341   0.00000  Uiso   1.00
C79    C     0.36758   0.14350   0.21343   0.00000  Uiso   1.00
C80    C     0.34699   0.18974   0.28670   0.00000  Uiso   1.00
C81    C     0.63239   0.18975   0.28667   0.00000  Uiso   1.00
C82    C     0.49999   0.08670   0.25011   0.00000  Uiso   1.00
C83    C     0.52596   0.16625   0.14812   0.00000  Uiso   1.00
C84    C     0.59950   0.17005   0.00213   0.00000  Uiso   1.00
C85    C     0.54104   0.16201   0.09016   0.00000  Uiso   1.00
C86    C     0.41348   0.13702   0.43500   0.00000  Uiso   1.00
C87    C     0.40014   0.12853   0.48976   0.00000  Uiso   1.00
C88    C     0.43410   0.12948   0.01649   0.00000  Uiso   1.00
H89    H     0.61081   0.18778   0.07670   0.00000  Uiso   1.00
H90    H     0.57512   0.03739   0.20722   0.00000  Uiso   1.00
H91    H     0.42463   0.03934   0.29680   0.00000  Uiso   1.00
H92    H     0.64304   0.12496   0.18415   0.00000  Uiso   1.00
H93    H     0.39392   0.12494   0.18417   0.00000  Uiso   1.00
H94    H     0.35688   0.20819   0.31606   0.00000  Uiso   1.00
H95    H     0.60602   0.20821   0.31603   0.00000  Uiso   1.00
H96    H     0.61717   0.13871   0.40046   0.00000  Uiso   1.00
H97    H     0.47319   0.13833   0.09345   0.00000  Uiso   1.00
H98    H     0.38630   0.13911   0.41549   0.00000  Uiso   1.00
H99    H     0.42065   0.12577   0.05947   0.00000  Uiso   1.00
H100   H     0.36293   0.12363   0.01220   0.00000  Uiso   1.00
H101   H     0.55754   0.11894   0.36111   0.00000  Uiso   1.00
H102   H     0.57449   0.29512   0.20799   0.00000  Uiso   1.00
N103   N     0.38093   0.16668   0.25002   0.00000  Uiso   1.00
N104   N     0.61906   0.16665   0.25000   0.00000  Uiso   1.00
O105   O     0.46179   0.22775   0.25000   0.00000  Uiso   1.00
O106   O     0.53823   0.22774   0.25000   0.00000  Uiso   1.00
O107   O     0.44280   0.16666   0.32681   0.00000  Uiso   1.00
O108   O     0.51924   0.16665   0.32681   0.00000  Uiso   1.00
O109   O     0.46177   0.10559   0.25000   0.00000  Uiso   1.00
O110   O     0.53821   0.10558   0.24999   0.00000  Uiso   1.00
O111   O     0.48076   0.16668   0.17319   0.00000  Uiso   1.00
O112   O     0.55720   0.16667   0.17319   0.00000  Uiso   1.00
Zn113  Zn    0.44896   0.16667   0.25000   0.00000  Uiso   1.00
Zn114  Zn    0.55104   0.16666   0.25000   0.00000  Uiso   1.00
N115   N     0.41323   0.29111   0.30679   0.00000  Uiso   1.00
H116   H     0.40229   0.30120   0.34676   0.00000  Uiso   1.00
H117   H     0.38696   0.29978   0.28986   0.00000  Uiso   1.00
C118   C     0.64435   0.19008   0.46843   0.00000  Uiso   1.00
H119   H     0.65372   0.19081   0.42505   0.00000  Uiso   1.00
O120   O     0.33757   0.20769   0.48898   0.00000  Uiso   1.00
C121   C     0.83292   0.24667   0.25123   0.00000  Uiso   1.00
C122   C     0.81646   0.13517   0.48754   0.00000  Uiso   1.00
C123   C     0.83010   0.13568   0.43109   0.00000  Uiso   1.00
C124   C     0.85226   0.14339   0.01189   0.00000  Uiso   1.00
C125   C     0.90009   0.15147   0.47936   0.00000  Uiso   1.00
C126   C     0.91352   0.14005   0.42525   0.00000  Uiso   1.00
C127   C     0.87886   0.12997   0.40216   0.00000  Uiso   1.00
C128   C     0.84119   0.14696   0.06718   0.00000  Uiso   1.00
C129   C     0.91974   0.17406   0.05808   0.00000  Uiso   1.00
C130   C     0.79484   0.14331   0.40585   0.00000  Uiso   1.00
C131   C     0.87504   0.31180   0.22785   0.00000  Uiso   1.00
C132   C     0.80809   0.15959   0.35056   0.00000  Uiso   1.00
C133   C     0.87545   0.02119   0.22727   0.00000  Uiso   1.00
C134   C     0.83307   0.04267   0.25137   0.00000  Uiso   1.00
C135   C     0.79043   0.02213   0.27714   0.00000  Uiso   1.00
C136   C     0.78978   0.31252   0.27850   0.00000  Uiso   1.00
C137   C     0.83233   0.29090   0.25284   0.00000  Uiso   1.00
C138   C     0.98630   0.14349   0.21341   0.00000  Uiso   1.00
C139   C     0.70091   0.14350   0.21343   0.00000  Uiso   1.00
C140   C     0.68033   0.18974   0.28670   0.00000  Uiso   1.00
C141   C     0.96573   0.18975   0.28667   0.00000  Uiso   1.00
C142   C     0.83333   0.08670   0.25011   0.00000  Uiso   1.00
C143   C     0.85929   0.16625   0.14812   0.00000  Uiso   1.00
C144   C     0.93284   0.17005   0.00213   0.00000  Uiso   1.00
C145   C     0.87437   0.16201   0.09016   0.00000  Uiso   1.00
C146   C     0.74681   0.13702   0.43500   0.00000  Uiso   1.00
C147   C     0.73348   0.12853   0.48976   0.00000  Uiso   1.00
C148   C     0.76743   0.12948   0.01649   0.00000  Uiso   1.00
H149   H     0.94415   0.18778   0.07670   0.00000  Uiso   1.00
H150   H     0.90845   0.03739   0.20722   0.00000  Uiso   1.00
H151   H     0.75797   0.03934   0.29680   0.00000  Uiso   1.00
H152   H     0.97638   0.12496   0.18415   0.00000  Uiso   1.00
H153   H     0.72726   0.12494   0.18417   0.00000  Uiso   1.00
H154   H     0.69022   0.20819   0.31606   0.00000  Uiso   1.00
H155   H     0.93936   0.20821   0.31603   0.00000  Uiso   1.00
H156   H     0.95050   0.13871   0.40046   0.00000  Uiso   1.00
H157   H     0.80652   0.13833   0.09345   0.00000  Uiso   1.00
H158   H     0.71963   0.13911   0.41549   0.00000  Uiso   1.00
H159   H     0.75399   0.12577   0.05947   0.00000  Uiso   1.00
H160   H     0.69626   0.12363   0.01220   0.00000  Uiso   1.00
H161   H     0.89087   0.11894   0.36111   0.00000  Uiso   1.00
H162   H     0.90782   0.29512   0.20799   0.00000  Uiso   1.00
N163   N     0.71426   0.16668   0.25002   0.00000  Uiso   1.00
N164   N     0.95239   0.16665   0.25000   0.00000  Uiso   1.00
O165   O     0.79512   0.22775   0.25000   0.00000  Uiso   1.00
O166   O     0.87157   0.22774   0.25000   0.00000  Uiso   1.00
O167   O     0.77613   0.16666   0.32681   0.00000  Uiso   1.00
O168   O     0.85258   0.16665   0.32681   0.00000  Uiso   1.00
O169   O     0.79510   0.10559   0.25000   0.00000  Uiso   1.00
O170   O     0.87154   0.10558   0.24999   0.00000  Uiso   1.00
O171   O     0.81409   0.16668   0.17319   0.00000  Uiso   1.00
O172   O     0.89053   0.16667   0.17319   0.00000  Uiso   1.00
Zn173  Zn    0.78229   0.16667   0.25000   0.00000  Uiso   1.00
Zn174  Zn    0.88438   0.16666   0.25000   0.00000  Uiso   1.00
N175   N     0.74656   0.29111   0.30679   0.00000  Uiso   1.00
H176   H     0.73563   0.30120   0.34676   0.00000  Uiso   1.00
H177   H     0.72029   0.29978   0.28986   0.00000  Uiso   1.00
C178   C     0.97769   0.19008   0.46843   0.00000  Uiso   1.00
H179   H     0.98705   0.19081   0.42505   0.00000  Uiso   1.00
O180   O     0.67090   0.20769   0.48898   0.00000  Uiso   1.00
C181   C     0.16626   0.58001   0.25123   0.00000  Uiso   1.00
C182   C     0.14979   0.46851   0.48754   0.00000  Uiso   1.00
C183   C     0.16343   0.46901   0.43109   0.00000  Uiso   1.00
C184   C     0.18559   0.47672   0.01189   0.00000  Uiso   1.00
C185   C     0.23343   0.48480   0.47936   0.00000  Uiso   1.00
C186   C     0.24686   0.47339   0.42525   0.00000  Uiso   1.00
C187   C     0.21219   0.46330   0.40216   0.00000  Uiso   1.00
C188   C     0.17452   0.48029   0.06718   0.00000  Uiso   1.00
C189   C     0.25308   0.50739   0.05808   0.00000  Uiso   1.00
C190   C     0.12817   0.47664   0.40585   0.00000  Uiso   1.00
C191   C     0.20838   0.64513   0.22785   0.00000  Uiso   1.00
C192   C     0.14142   0.49292   0.35056   0.00000  Uiso   1.00
C193   C     0.20878   0.35452   0.22727   0.00000  Uiso   1.00
C194   C     0.16640   0.37601   0.25137   0.00000  Uiso   1.00
C195   C     0.12376   0.35547   0.27714   0.00000  Uiso   1.00
C196   C     0.12311   0.64585   0.27850   0.00000  Uiso   1.00
C197   C     0.16567   0.62423   0.25284   0.00000  Uiso   1.00
C198   C     0.31964   0.47683   0.21341   0.00000  Uiso   1.00
C199   C     0.03424   0.47683   0.21343   0.00000  Uiso   1.00
C200   C     0.01366   0.52307   0.28670   0.00000  Uiso   1.00
C201   C     0.29906   0.52308   0.28667   0.00000  Uiso   1.00
C202   C     0.16666   0.42003   0.25011   0.00000  Uiso   1.00
C203   C     0.19262   0.49958   0.14812   0.00000  Uiso   1.00
C204   C     0.26617   0.50338   0.00213   0.00000  Uiso   1.00
C205   C     0.20771   0.49534   0.09016   0.00000  Uiso   1.00
C206   C     0.08014   0.47036   0.43500   0.00000  Uiso   1.00
C207   C     0.06681   0.46187   0.48976   0.00000  Uiso   1.00
C208   C     0.10076   0.46281   0.01649   0.00000  Uiso   1.00
H209   H     0.27748   0.52111   0.07670   0.00000  Uiso   1.00
H210   H     0.24179   0.37072   0.20722   0.00000  Uiso   1.00
H211   H     0.09130   0.37267   0.29680   0.00000  Uiso   1.00
H212   H     0.30971   0.45830   0.18415   0.00000  Uiso   1.00
H213   H     0.06059   0.45827   0.18417   0.00000  Uiso   1.00
H214   H     0.02355   0.54152   0.31606   0.00000  Uiso   1.00
H215   H     0.27269   0.54155   0.31603   0.00000  Uiso   1.00
H216   H     0.28383   0.47204   0.40046   0.00000  Uiso   1.00
H217   H     0.13986   0.47166   0.09345   0.00000  Uiso   1.00
H218   H     0.05297   0.47245   0.41549   0.00000  Uiso   1.00
H219   H     0.08732   0.45911   0.05947   0.00000  Uiso   1.00
H220   H     0.02959   0.45696   0.01220   0.00000  Uiso   1.00
H221   H     0.22421   0.45228   0.36111   0.00000  Uiso   1.00
H222   H     0.24115   0.62845   0.20799   0.00000  Uiso   1.00
N223   N     0.04760   0.50001   0.25002   0.00000  Uiso   1.00
N224   N     0.28573   0.49998   0.25000   0.00000  Uiso   1.00
O225   O     0.12846   0.56108   0.25000   0.00000  Uiso   1.00
O226   O     0.20490   0.56107   0.25000   0.00000  Uiso   1.00
O227   O     0.10947   0.50000   0.32681   0.00000  Uiso   1.00
O228   O     0.18591   0.49999   0.32681   0.00000  Uiso   1.00
O229   O     0.12843   0.43893   0.25000   0.00000  Uiso   1.00
O230   O     0.20488   0.43892   0.24999   0.00000  Uiso   1.00
O231   O     0.14742   0.50001   0.17319   0.00000  Uiso   1.00
O232   O     0.22387   0.50000   0.17319   0.00000  Uiso   1.00
Zn233  Zn    0.11562   0.50001   0.25000   0.00000  Uiso   1.00
Zn234  Zn    0.21771   0.49999   0.25000   0.00000  Uiso   1.00
N235   N     0.07989   0.62444   0.30679   0.00000  Uiso   1.00
H236   H     0.06896   0.63454   0.34676   0.00000  Uiso   1.00
H237   H     0.05362   0.63312   0.28986   0.00000  Uiso   1.00
C238   C     0.31102   0.52342   0.46843   0.00000  Uiso   1.00
H239   H     0.32039   0.52415   0.42505   0.00000  Uiso   1.00
O240   O     0.00423   0.54102   0.48898   0.00000  Uiso   1.00
C241   C     0.49959   0.58001   0.25123   0.00000  Uiso   1.00
C242   C     0.48313   0.46851   0.48754   0.00000  Uiso   1.00
C243   C     0.49677   0.46901   0.43109   0.00000  Uiso   1.00
C244   C     0.51893   0.47672   0.01189   0.00000  Uiso   1.00
C245   C     0.56676   0.48480   0.47936   0.00000  Uiso   1.00
C246   C     0.58019   0.47339   0.42525   0.00000  Uiso   1.00
C247   C     0.54553   0.46330   0.40216   0.00000  Uiso   1.00
C248   C     0.50785   0.48029   0.06718   0.00000  Uiso   1.00
C249   C     0.58641   0.50739   0.05808   0.00000  Uiso   1.00
C250   C     0.46150   0.47664   0.40585   0.00000  Uiso   1.00
C251   C     0.54171   0.64513   0.22785   0.00000  Uiso   1.00
C252   C     0.47475   0.49292   0.35056   0.00000  Uiso   1.00
C253   C     0.54212   0.35452   0.22727   0.00000  Uiso   1.00
C254   C     0.49973   0.37601   0.25137   0.00000  Uiso   1.00
C255   C     0.45709   0.35547   0.27714   0.00000  Uiso   1.00
C256   C     0.45645   0.64585   0.27850   0.00000  Uiso   1.00
C257   C     0.49900   0.62423   0.25284   0.00000  Uiso   1.00
C258   C     0.65297   0.47683   0.21341   0.00000  Uiso   1.00
C259   C     0.36758   0.47683   0.21343   0.00000  Uiso   1.00
C260   C     0.34699   0.52307   0.28670   0.00000  Uiso   1.00
C261   C     0.63239   0.52308   0.28667   0.00000  Uiso   1.00
C262   C     0.49999   0.42003   0.25011   0.00000  Uiso   1.00
C263   C     0.52596   0.49958   0.14812   0.00000  Uiso   1.00
C264   C     0.59950   0.50338   0.00213   0.00000  Uiso   1.00
C265   C     0.54104   0.49534   0.09016   0.00000  Uiso   1.00
C266   C     0.41348   0.47036   0.43500   0.00000  Uiso   1.00
C267   C     0.40014   0.46187   0.48976   0.00000  Uiso   1.00
C268   C     0.43410   0.46281   0.01649   0.00000  Uiso   1.00
H269   H     0.61081   0.52111   0.07670   0.00000  Uiso   1.00
H270   H     0.57512   0.37072   0.20722   0.00000  Uiso   1.00
H271   H     0.42463   0.37267   0.29680   0.00000  Uiso   1.00
H272   H     0.64304   0.45830   0.18415   0.00000  Uiso   1.00
H273   H     0.39392   0.45827   0.18417   0.00000  Uiso   1.00
H274   H     0.35688   0.54152   0.31606   0.00000  Uiso   1.00
H275   H     0.60602   0.54155   0.31603   0.00000  Uiso   1.00
H276   H     0.61717   0.47204   0.40046   0.00000  Uiso   1.00
H277   H     0.47319   0.47166   0.09345   0.00000  Uiso   1.00
H278   H     0.38630   0.47245   0.41549   0.00000  Uiso   1.00
H279   H     0.42065   0.45911   0.05947   0.00000  Uiso   1.00
H280   H     0.36293   0.45696   0.01220   0.00000  Uiso   1.00
H281   H     0.55754   0.45228   0.36111   0.00000  Uiso   1.00
H282   H     0.57449   0.62845   0.20799   0.00000  Uiso   1.00
N283   N     0.38093   0.50001   0.25002   0.00000  Uiso   1.00
N284   N     0.61906   0.49998   0.25000   0.00000  Uiso   1.00
O285   O     0.46179   0.56108   0.25000   0.00000  Uiso   1.00
O286   O     0.53823   0.56107   0.25000   0.00000  Uiso   1.00
O287   O     0.44280   0.50000   0.32681   0.00000  Uiso   1.00
O288   O     0.51924   0.49999   0.32681   0.00000  Uiso   1.00
O289   O     0.46177   0.43893   0.25000   0.00000  Uiso   1.00
O290   O     0.53821   0.43892   0.24999   0.00000  Uiso   1.00
O291   O     0.48076   0.50001   0.17319   0.00000  Uiso   1.00
O292   O     0.55720   0.50000   0.17319   0.00000  Uiso   1.00
Zn293  Zn    0.44896   0.50001   0.25000   0.00000  Uiso   1.00
Zn294  Zn    0.55104   0.49999   0.25000   0.00000  Uiso   1.00
N295   N     0.41323   0.62444   0.30679   0.00000  Uiso   1.00
H296   H     0.40229   0.63454   0.34676   0.00000  Uiso   1.00
H297   H     0.38696   0.63312   0.28986   0.00000  Uiso   1.00
C298   C     0.64435   0.52342   0.46843   0.00000  Uiso   1.00
H299   H     0.65372   0.52415   0.42505   0.00000  Uiso   1.00
O300   O     0.33757   0.54102   0.48898   0.00000  Uiso   1.00
C301   C     0.83292   0.58001   0.25123   0.00000  Uiso   1.00
C302   C     0.81646   0.46851   0.48754   0.00000  Uiso   1.00
C303   C     0.83010   0.46901   0.43109   0.00000  Uiso   1.00
C304   C     0.85226   0.47672   0.01189   0.00000  Uiso   1.00
C305   C     0.90009   0.48480   0.47936   0.00000  Uiso   1.00
C306   C     0.91352   0.47339   0.42525   0.00000  Uiso   1.00
C307   C     0.87886   0.46330   0.40216   0.00000  Uiso   1.00
C308   C     0.84119   0.48029   0.06718   0.00000  Uiso   1.00
C309   C     0.91974   0.50739   0.05808   0.00000  Uiso   1.00
C310   C     0.79484   0.47664   0.40585   0.00000  Uiso   1.00
C311   C     0.87504   0.64513   0.22785   0.00000  Uiso   1.00
C312   C     0.80809   0.49292   0.35056   0.00000  Uiso   1.00
C313   C     0.87545   0.35452   0.22727   0.00000  Uiso   1.00
C314   C     0.83307   0.37601   0.25137   0.00000  Uiso   1.00
C315   C     0.79043   0.35547   0.27714   0.00000  Uiso   1.00
C316   C     0.78978   0.64585   0.27850   0.00000  Uiso   1.00
C317   C     0.83233   0.62423   0.25284   0.00000  Uiso   1.00
C318   C     0.98630   0.47683   0.21341   0.00000  Uiso   1.00
C319   C     0.70091   0.47683   0.21343   0.00000  Uiso   1.00
C320   C     0.68033   0.52307   0.28670   0.00000  Uiso   1.00
C321   C     0.96573   0.52308   0.28667   0.00000  Uiso   1.00
C322   C     0.83333   0.42003   0.25011   0.00000  Uiso   1.00
C323   C     0.85929   0.49958   0.14812   0.00000  Uiso   1.00
C324   C     0.93284   0.50338   0.00213   0.00000  Uiso   1.00
C325   C     0.87437   0.49534   0.09016   0.00000  Uiso   1.00
C326   C     0.74681   0.47036   0.43500   0.00000  Uiso   1.00
C327   C     0.73348   0.46187   0.48976   0.00000  Uiso   1.00
C328   C     0.76743   0.46281   0.01649   0.00000  Uiso   1.00
H329   H     0.94415   0.52111   0.07670   0.00000  Uiso   1.00
H330   H     0.90845   0.37072   0.20722   0.00000  Uiso   1.00
H331   H     0.75797   0.37267   0.29680   0.00000  Uiso   1.00
H332   H     0.97638   0.45830   0.18415   0.00000  Uiso   1.00
H333   H     0.72726   0.45827   0.18417   0.00000  Uiso   1.00
H334   H     0.69022   0.54152   0.31606   0.00000  Uiso   1.00
H335   H     0.93936   0.54155   0.31603   0.00000  Uiso   1.00
H336   H     0.95050   0.47204   0.40046   0.00000  Uiso   1.00
H337   H     0.80652   0.47166   0.09345   0.00000  Uiso   1.00
H338   H     0.71963   0.47245   0.41549   0.00000  Uiso   1.00
H339   H     0.75399   0.45911   0.05947   0.00000  Uiso   1.00
H340   H     0.69626   0.45696   0.01220   0.00000  Uiso   1.00
H341   H     0.89087   0.45228   0.36111   0.00000  Uiso   1.00
H342   H     0.90782   0.62845   0.20799   0.00000  Uiso   1.00
N343   N     0.71426   0.50001   0.25002   0.00000  Uiso   1.00
N344   N     0.95239   0.49998   0.25000   0.00000  Uiso   1.00
O345   O     0.79512   0.56108   0.25000   0.00000  Uiso   1.00
O346   O     0.87157   0.56107   0.25000   0.00000  Uiso   1.00
O347   O     0.77613   0.50000   0.32681   0.00000  Uiso   1.00
O348   O     0.85258   0.49999   0.32681   0.00000  Uiso   1.00
O349   O     0.79510   0.43893   0.25000   0.00000  Uiso   1.00
O350   O     0.87154   0.43892   0.24999   0.00000  Uiso   1.00
O351   O     0.81409   0.50001   0.17319   0.00000  Uiso   1.00
O352   O     0.89053   0.50000   0.17319   0.00000  Uiso   1.00
Zn353  Zn    0.78229   0.50001   0.25000   0.00000  Uiso   1.00
Zn354  Zn    0.88438   0.49999   0.25000   0.00000  Uiso   1.00
N355   N     0.74656   0.62444   0.30679   0.00000  Uiso   1.00
H356   H     0.73563   0.63454   0.34676   0.00000  Uiso   1.00
H357   H     0.72029   0.63312   0.28986   0.00000  Uiso   1.00
C358   C     0.97769   0.52342   0.46843   0.00000  Uiso   1.00
H359   H     0.98705   0.52415   0.42505   0.00000  Uiso   1.00
O360   O     0.67090   0.54102   0.48898   0.00000  Uiso   1.00
C361   C     0.16626   0.91334   0.25123   0.00000  Uiso   1.00
C362   C     0.14979   0.80184   0.48754   0.00000  Uiso   1.00
C363   C     0.16343   0.80234   0.43109   0.00000  Uiso   1.00
C364   C     0.18559   0.81005   0.01189   0.00000  Uiso   1.00
C365   C     0.23343   0.81813   0.47936   0.00000  Uiso   1.00
C366   C     0.24686   0.80672   0.42525   0.00000  Uiso   1.00
C367   C     0.21219   0.79664   0.40216   0.00000  Uiso   1.00
C368   C     0.17452   0.81362   0.06718   0.00000  Uiso   1.00
C369   C     0.25308   0.84073   0.05808   0.00000  Uiso   1.00
C370   C     0.12817   0.80997   0.40585   0.00000  Uiso   1.00
C371   C     0.20838   0.97847   0.22785   0.00000  Uiso   1.00
C372   C     0.14142   0.82626   0.35056   0.00000  Uiso   1.00
C373   C     0.20878   0.68785   0.22727   0.00000  Uiso   1.00
C374   C     0.16640   0.70934   0.25137   0.00000  Uiso   1.00
C375   C     0.12376   0.68880   0.27714   0.00000  Uiso   1.00
C376   C     0.12311   0.97919   0.27850   0.00000  Uiso   1.00
C377   C     0.16567   0.95756   0.25284   0.00000  Uiso   1.00
C378   C     0.31964   0.81016   0.21341   0.00000  Uiso   1.00
C379   C     0.03424   0.81016   0.21343   0.00000  Uiso   1.00
C380   C     0.01366   0.85641   0.28670   0.00000  Uiso   1.00
C381   C     0.29906   0.85642   0.28667   0.00000  Uiso   1.00
C382   C     0.16666   0.75337   0.25011   0.00000  Uiso   1.00
C383   C     0.19262   0.83292   0.14812   0.00000  Uiso   1.00
C384   C     0.26617   0.83671   0.00213   0.00000  Uiso   1.00
C385   C     0.20771   0.82867   0.09016   0.00000  Uiso   1.00
C386   C     0.08014   0.80369   0.43500   0.00000  Uiso   1.00
C387   C     0.06681   0.79520   0.48976   0.00000  Uiso   1.00
C388   C     0.10076   0.79614   0.01649   0.00000  Uiso   1.00
H389   H     0.27748   0.85444   0.07670   0.00000  Uiso   1.00
H390   H     0.24179   0.70405   0.20722   0.00000  Uiso   1.00
H391   H     0.09130   0.70601   0.29680   0.00000  Uiso   1.00
H392   H     0.30971   0.79163   0.18415   0.00000  Uiso   1.00
H393   H     0.06059   0.79160   0.18417   0.00000  Uiso   1.00
H394   H     0.02355   0.87485   0.31606   0.00000  Uiso   1.00
H395   H     0.27269   0.87488   0.31603   0.00000  Uiso   1.00
H396   H     0.28383   0.80537   0.40046   0.00000  Uiso   1.00
H397   H     0.13986   0.80499   0.09345   0.00000  Uiso   1.00
H398   H     0.05297   0.80578   0.41549   0.00000  Uiso   1.00
H399   H     0.08732   0.79244   0.05947   0.00000  Uiso   1.00
H400   H     0.02959   0.79029   0.01220   0.00000  Uiso   1.00
H401   H     0.22421   0.78561   0.36111   0.00000  Uiso   1.00
H402   H     0.24115   0.96178   0.20799   0.00000  Uiso   1.00
N403   N     0.04760   0.83334   0.25002   0.00000  Uiso   1.00
N404   N     0.28573   0.83331   0.25000   0.00000  Uiso   1.00
O405   O     0.12846   0.89442   0.25000   0.00000  Uiso   1.00
O406   O     0.20490   0.89441   0.25000   0.00000  Uiso   1.00
O407   O     0.10947   0.83333   0.32681   0.00000  Uiso   1.00
O408   O     0.18591   0.83332   0.32681   0.00000  Uiso   1.00
O409   O     0.12843   0.77226   0.25000   0.00000  Uiso   1.00
O410   O     0.20488   0.77225   0.24999   0.00000  Uiso   1.00
O411   O     0.14742   0.83335   0.17319   0.00000  Uiso   1.00
O412   O     0.22387   0.83334   0.17319   0.00000  Uiso   1.00
Zn413  Zn    0.11562   0.83334   0.25000   0.00000  Uiso   1.00
Zn414  Zn    0.21771   0.83333   0.25000   0.00000  Uiso   1.00
N415   N     0.07989   0.95778   0.30679   0.00000  Uiso   1.00
H416   H     0.06896   0.96787   0.34676   0.00000  Uiso   1.00
H417   H     0.05362   0.96645   0.28986   0.00000  Uiso   1.00
C418   C     0.31102   0.85675   0.46843   0.00000  Uiso   1.00
H419   H     0.32039   0.85748   0.42505   0.00000  Uiso   1.00
O420   O     0.00423   0.87435   0.48898   0.00000  Uiso   1.00
C421   C     0.49959   0.91334   0.25123   0.00000  Uiso   1.00
C422   C     0.48313   0.80184   0.48754   0.00000  Uiso   1.00
C423   C     0.49677   0.80234   0.43109   0.00000  Uiso   1.00
C424   C     0.51893   0.81005   0.01189   0.00000  Uiso   1.00
C425   C     0.56676   0.81813   0.47936   0.00000  Uiso   1.00
C426   C     0.58019   0.80672   0.42525   0.00000  Uiso   1.00
C427   C     0.54553   0.79664   0.40216   0.00000  Uiso   1.00
C428   C     0.50785   0.81362   0.06718   0.00000  Uiso   1.00
C429   C     0.58641   0.84073   0.05808   0.00000  Uiso   1.00
C430   C     0.46150   0.80997   0.40585   0.00000  Uiso   1.00
C431   C     0.54171   0.97847   0.22785   0.00000  Uiso   1.00
C432   C     0.47475   0.82626   0.35056   0.00000  Uiso   1.00
C433   C     0.54212   0.68785   0.22727   0.00000  Uiso   1.00
C434   C     0.49973   0.70934   0.25137   0.00000  Uiso   1.00
C435   C     0.45709   0.68880   0.27714   0.00000  Uiso   1.00
C436   C     0.45645   0.97919   0.27850   0.00000  Uiso   1.00
C437   C     0.49900   0.95756   0.25284   0.00000  Uiso   1.00
C438   C     0.65297   0.81016   0.21341   0.00000  Uiso   1.00
C439   C     0.36758   0.81016   0.21343   0.00000  Uiso   1.00
C440   C     0.34699   0.85641   0.28670   0.00000  Uiso   1.00
C441   C     0.63239   0.85642   0.28667   0.00000  Uiso   1.00
C442   C     0.49999   0.75337   0.25011   0.00000  Uiso   1.00
C443   C     0.52596   0.83292   0.14812   0.00000  Uiso   1.00
C444   C     0.59950   0.83671   0.00213   0.00000  Uiso   1.00
C445   C     0.54104   0.82867   0.09016   0.00000  Uiso   1.00
C446   C     0.41348   0.80369   0.43500   0.00000  Uiso   1.00
C447   C     0.40014   0.79520   0.48976   0.00000  Uiso   1.00
C448   C     0.43410   0.79614   0.01649   0.00000  Uiso   1.00
H449   H     0.61081   0.85444   0.07670   0.00000  Uiso   1.00
H450   H     0.57512   0.70405   0.20722   0.00000  Uiso   1.00
H451   H     0.42463   0.70601   0.29680   0.00000  Uiso   1.00
H452   H     0.64304   0.79163   0.18415   0.00000  Uiso   1.00
H453   H     0.39392   0.79160   0.18417   0.00000  Uiso   1.00
H454   H     0.35688   0.87485   0.31606   0.00000  Uiso   1.00
H455   H     0.60602   0.87488   0.31603   0.00000  Uiso   1.00
H456   H     0.61717   0.80537   0.40046   0.00000  Uiso   1.00
H457   H     0.47319   0.80499   0.09345   0.00000  Uiso   1.00
H458   H     0.38630   0.80578   0.41549   0.00000  Uiso   1.00
H459   H     0.42065   0.79244   0.05947   0.00000  Uiso   1.00
H460   H     0.36293   0.79029   0.01220   0.00000  Uiso   1.00
H461   H     0.55754   0.78561   0.36111   0.00000  Uiso   1.00
H462   H     0.57449   0.96178   0.20799   0.00000  Uiso   1.00
N463   N     0.38093   0.83334   0.25002   0.00000  Uiso   1.00
N464   N     0.61906   0.83331   0.25000   0.00000  Uiso   1.00
O465   O     0.46179   0.89442   0.25000   0.00000  Uiso   1.00
O466   O     0.53823   0.89441   0.25000   0.00000  Uiso   1.00
O467   O     0.44280   0.83333   0.32681   0.00000  Uiso   1.00
O468   O     0.51924   0.83332   0.32681   0.00000  Uiso   1.00
O469   O     0.46177   0.77226   0.25000   0.00000  Uiso   1.00
O470   O     0.53821   0.77225   0.24999   0.00000  Uiso   1.00
O471   O     0.48076   0.83335   0.17319   0.00000  Uiso   1.00
O472   O     0.55720   0.83334   0.17319   0.00000  Uiso   1.00
Zn473  Zn    0.44896   0.83334   0.25000   0.00000  Uiso   1.00
Zn474  Zn    0.55104   0.83333   0.25000   0.00000  Uiso   1.00
N475   N     0.41323   0.95778   0.30679   0.00000  Uiso   1.00
H476   H     0.40229   0.96787   0.34676   0.00000  Uiso   1.00
H477   H     0.38696   0.96645   0.28986   0.00000  Uiso   1.00
C478   C     0.64435   0.85675   0.46843   0.00000  Uiso   1.00
H479   H     0.65372   0.85748   0.42505   0.00000  Uiso   1.00
O480   O     0.33757   0.87435   0.48898   0.00000  Uiso   1.00
C481   C     0.83292   0.91334   0.25123   0.00000  Uiso   1.00
C482   C     0.81646   0.80184   0.48754   0.00000  Uiso   1.00
C483   C     0.83010   0.80234   0.43109   0.00000  Uiso   1.00
C484   C     0.85226   0.81005   0.01189   0.00000  Uiso   1.00
C485   C     0.90009   0.81813   0.47936   0.00000  Uiso   1.00
C486   C     0.91352   0.80672   0.42525   0.00000  Uiso   1.00
C487   C     0.87886   0.79664   0.40216   0.00000  Uiso   1.00
C488   C     0.84119   0.81362   0.06718   0.00000  Uiso   1.00
C489   C     0.91974   0.84073   0.05808   0.00000  Uiso   1.00
C490   C     0.79484   0.80997   0.40585   0.00000  Uiso   1.00
C491   C     0.87504   0.97847   0.22785   0.00000  Uiso   1.00
C492   C     0.80809   0.82626   0.35056   0.00000  Uiso   1.00
C493   C     0.87545   0.68785   0.22727   0.00000  Uiso   1.00
C494   C     0.83307   0.70934   0.25137   0.00000  Uiso   1.00
C495   C     0.79043   0.68880   0.27714   0.00000  Uiso   1.00
C496   C     0.78978   0.97919   0.27850   0.00000  Uiso   1.00
C497   C     0.83233   0.95756   0.25284   0.00000  Uiso   1.00
C498   C     0.98630   0.81016   0.21341   0.00000  Uiso   1.00
C499   C     0.70091   0.81016   0.21343   0.00000  Uiso   1.00
C500   C     0.68033   0.85641   0.28670   0.00000  Uiso   1.00
C501   C     0.96573   0.85642   0.28667   0.00000  Uiso   1.00
C502   C     0.83333   0.75337   0.25011   0.00000  Uiso   1.00
C503   C     0.85929   0.83292   0.14812   0.00000  Uiso   1.00
C504   C     0.93284   0.83671   0.00213   0.00000  Uiso   1.00
C505   C     0.87437   0.82867   0.09016   0.00000  Uiso   1.00
C506   C     0.74681   0.80369   0.43500   0.00000  Uiso   1.00
C507   C     0.73348   0.79520   0.48976   0.00000  Uiso   1.00
C508   C     0.76743   0.79614   0.01649   0.00000  Uiso   1.00
H509   H     0.94415   0.85444   0.07670   0.00000  Uiso   1.00
H510   H     0.90845   0.70405   0.20722   0.00000  Uiso   1.00
H511   H     0.75797   0.70601   0.29680   0.00000  Uiso   1.00
H512   H     0.97638   0.79163   0.18415   0.00000  Uiso   1.00
H513   H     0.72726   0.79160   0.18417   0.00000  Uiso   1.00
H514   H     0.69022   0.87485   0.31606   0.00000  Uiso   1.00
H515   H     0.93936   0.87488   0.31603   0.00000  Uiso   1.00
H516   H     0.95050   0.80537   0.40046   0.00000  Uiso   1.00
H517   H     0.80652   0.80499   0.09345   0.00000  Uiso   1.00
H518   H     0.71963   0.80578   0.41549   0.00000  Uiso   1.00
H519   H     0.75399   0.79244   0.05947   0.00000  Uiso   1.00
H520   H     0.69626   0.79029   0.01220   0.00000  Uiso   1.00
H521   H     0.89087   0.78561   0.36111   0.00000  Uiso   1.00
H522   H     0.90782   0.96178   0.20799   0.00000  Uiso   1.00
N523   N     0.71426   0.83334   0.25002   0.00000  Uiso   1.00
N524   N     0.95239   0.83331   0.25000   0.00000  Uiso   1.00
O525   O     0.79512   0.89442   0.25000   0.00000  Uiso   1.00
O526   O     0.87157   0.89441   0.25000   0.00000  Uiso   1.00
O527   O     0.77613   0.83333   0.32681   0.00000  Uiso   1.00
O528   O     0.85258   0.83332   0.32681   0.00000  Uiso   1.00
O529   O     0.79510   0.77226   0.25000   0.00000  Uiso   1.00
O530   O     0.87154   0.77225   0.24999   0.00000  Uiso   1.00
O531   O     0.81409   0.83335   0.17319   0.00000  Uiso   1.00
O532   O     0.89053   0.83334   0.17319   0.00000  Uiso   1.00
Zn533  Zn    0.78229   0.83334   0.25000   0.00000  Uiso   1.00
Zn534  Zn    0.88438   0.83333   0.25000   0.00000  Uiso   1.00
N535   N     0.74656   0.95778   0.30679   0.00000  Uiso   1.00
H536   H     0.73563   0.96787   0.34676   0.00000  Uiso   1.00
H537   H     0.72029   0.96645   0.28986   0.00000  Uiso   1.00
C538   C     0.97769   0.85675   0.46843   0.00000  Uiso   1.00
H539   H     0.98705   0.85748   0.42505   0.00000  Uiso   1.00
O540   O     0.67090   0.87435   0.48898   0.00000  Uiso   1.00
C541   C     0.16626   0.24667   0.75123   0.00000  Uiso   1.00
C542   C     0.14979   0.13517   0.98754   0.00000  Uiso   1.00
C543   C     0.16343   0.13568   0.93109   0.00000  Uiso   1.00
C544   C     0.18559   0.14339   0.51189   0.00000  Uiso   1.00
C545   C     0.23343   0.15147   0.97936   0.00000  Uiso   1.00
C546   C     0.24686   0.14005   0.92525   0.00000  Uiso   1.00
C547   C     0.21219   0.12997   0.90216   0.00000  Uiso   1.00
C548   C     0.17452   0.14696   0.56718   0.00000  Uiso   1.00
C549   C     0.25308   0.17406   0.55808   0.00000  Uiso   1.00
C550   C     0.12817   0.14331   0.90585   0.00000  Uiso   1.00
C551   C     0.20838   0.31180   0.72785   0.00000  Uiso   1.00
C552   C     0.14142   0.15959   0.85056   0.00000  Uiso   1.00
C553   C     0.20878   0.02119   0.72727   0.00000  Uiso   1.00
C554   C     0.16640   0.04267   0.75137   0.00000  Uiso   1.00
C555   C     0.12376   0.02213   0.77714   0.00000  Uiso   1.00
C556   C     0.12311   0.31252   0.77850   0.00000  Uiso   1.00
C557   C     0.16567   0.29090   0.75284   0.00000  Uiso   1.00
C558   C     0.31964   0.14349   0.71341   0.00000  Uiso   1.00
C559   C     0.03424   0.14350   0.71343   0.00000  Uiso   1.00
C560   C     0.01366   0.18974   0.78670   0.00000  Uiso   1.00
C561   C     0.29906   0.18975   0.78667   0.00000  Uiso   1.00
C562   C     0.16666   0.08670   0.75011   0.00000  Uiso   1.00
C563   C     0.19262   0.16625   0.64812   0.00000  Uiso   1.00
C564   C     0.26617   0.17005   0.50213   0.00000  Uiso   1.00
C565   C     0.20771   0.16201   0.59016   0.00000  Uiso   1.00
C566   C     0.08014   0.13702   0.93500   0.00000  Uiso   1.00
C567   C     0.06681   0.12853   0.98976   0.00000  Uiso   1.00
C568   C     0.10076   0.12948   0.51649   0.00000  Uiso   1.00
H569   H     0.27748   0.18778   0.57670   0.00000  Uiso   1.00
H570   H     0.24179   0.03739   0.70722   0.00000  Uiso   1.00
H571   H     0.09130   0.03934   0.79680   0.00000  Uiso   1.00
H572   H     0.30971   0.12496   0.68415   0.00000  Uiso   1.00
H573   H     0.06059   0.12494   0.68417   0.00000  Uiso   1.00
H574   H     0.02355   0.20819   0.81606   0.00000  Uiso   1.00
H575   H     0.27269   0.20821   0.81603   0.00000  Uiso   1.00
H576   H     0.28383   0.13871   0.90046   0.00000  Uiso   1.00
H577   H     0.13986   0.13833   0.59345   0.00000  Uiso   1.00
H578   H     0.05297   0.13911   0.91549   0.00000  Uiso   1.00
H579   H     0.08732   0.12577   0.55947   0.00000  Uiso   1.00
H580   H     0.02959   0.12363   0.51220   0.00000  Uiso   1.00
H581   H     0.22421   0.11894   0.86111   0.00000  Uiso   1.00
H582   H     0.24115   0.29512   0.70799   0.00000  Uiso   1.00
N583   N     0.04760   0.16668   0.75002   0.00000  Uiso   1.00
N584   N     0.28573   0.16665   0.75000   0.00000  Uiso   1.00
O585   O     0.12846   0.22775   0.75000   0.00000  Uiso   1.00
O586   O     0.20490   0.22774   0.75000   0.00000  Uiso   1.00
O587   O     0.10947   0.16666   0.82681   0.00000  Uiso   1.00
O588   O     0.18591   0.16665   0.82681   0.00000  Uiso   1.00
O589   O     0.12843   0.10559   0.75000   0.00000  Uiso   1.00
O590   O     0.20488   0.10558   0.74999   0.00000  Uiso   1.00
O591   O     0.14742   0.16668   0.67319   0.00000  Uiso   1.00
O592   O     0.22387   0.16667   0.67319   0.00000  Uiso   1.00
Zn593  Zn    0.11562   0.16667   0.75000   0.00000  Uiso   1.00
Zn594  Zn    0.21771   0.16666   0.75000   0.00000  Uiso   1.00
N595   N     0.07989   0.29111   0.80679   0.00000  Uiso   1.00
H596   H     0.06896   0.30120   0.84676   0.00000  Uiso   1.00
H597   H     0.05362   0.29978   0.78986   0.00000  Uiso   1.00
C598   C     0.31102   0.19008   0.96843   0.00000  Uiso   1.00
H599   H     0.32039   0.19081   0.92505   0.00000  Uiso   1.00
O600   O     0.00423   0.20769   0.98898   0.00000  Uiso   1.00
C601   C     0.49959   0.24667   0.75123   0.00000  Uiso   1.00
C602   C     0.48313   0.13517   0.98754   0.00000  Uiso   1.00
C603   C     0.49677   0.13568   0.93109   0.00000  Uiso   1.00
C604   C     0.51893   0.14339   0.51189   0.00000  Uiso   1.00
C605   C     0.56676   0.15147   0.97936   0.00000  Uiso   1.00
C606   C     0.58019   0.14005   0.92525   0.00000  Uiso   1.00
C607   C     0.54553   0.12997   0.90216   0.00000  Uiso   1.00
C608   C     0.50785   0.14696   0.56718   0.00000  Uiso   1.00
C609   C     0.58641   0.17406   0.55808   0.00000  Uiso   1.00
C610   C     0.46150   0.14331   0.90585   0.00000  Uiso   1.00
C611   C     0.54171   0.31180   0.72785   0.00000  Uiso   1.00
C612   C     0.47475   0.15959   0.85056   0.00000  Uiso   1.00
C613   C     0.54212   0.02119   0.72727   0.00000  Uiso   1.00
C614   C     0.49973   0.04267   0.75137   0.00000  Uiso   1.00
C615   C     0.45709   0.02213   0.77714   0.00000  Uiso   1.00
C616   C     0.45645   0.31252   0.77850   0.00000  Uiso   1.00
C617   C     0.49900   0.29090   0.75284   0.00000  Uiso   1.00
C618   C     0.65297   0.14349   0.71341   0.00000  Uiso   1.00
C619   C     0.36758   0.14350   0.71343   0.00000  Uiso   1.00
C620   C     0.34699   0.18974   0.78670   0.00000  Uiso   1.00
C621   C     0.63239   0.18975   0.78667   0.00000  Uiso   1.00
C622   C     0.49999   0.08670   0.75011   0.00000  Uiso   1.00
C623   C     0.52596   0.16625   0.64812   0.00000  Uiso   1.00
C624   C     0.59950   0.17005   0.50213   0.00000  Uiso   1.00
C625   C     0.54104   0.16201   0.59016   0.00000  Uiso   1.00
C626   C     0.41348   0.13702   0.93500   0.00000  Uiso   1.00
C627   C     0.40014   0.12853   0.98976   0.00000  Uiso   1.00
C628   C     0.43410   0.12948   0.51649   0.00000  Uiso   1.00
H629   H     0.61081   0.18778   0.57670   0.00000  Uiso   1.00
H630   H     0.57512   0.03739   0.70722   0.00000  Uiso   1.00
H631   H     0.42463   0.03934   0.79680   0.00000  Uiso   1.00
H632   H     0.64304   0.12496   0.68415   0.00000  Uiso   1.00
H633   H     0.39392   0.12494   0.68417   0.00000  Uiso   1.00
H634   H     0.35688   0.20819   0.81606   0.00000  Uiso   1.00
H635   H     0.60602   0.20821   0.81603   0.00000  Uiso   1.00
H636   H     0.61717   0.13871   0.90046   0.00000  Uiso   1.00
H637   H     0.47319   0.13833   0.59345   0.00000  Uiso   1.00
H638   H     0.38630   0.13911   0.91549   0.00000  Uiso   1.00
H639   H     0.42065   0.12577   0.55947   0.00000  Uiso   1.00
H640   H     0.36293   0.12363   0.51220   0.00000  Uiso   1.00
H641   H     0.55754   0.11894   0.86111   0.00000  Uiso   1.00
H642   H     0.57449   0.29512   0.70799   0.00000  Uiso   1.00
N643   N     0.38093   0.16668   0.75002   0.00000  Uiso   1.00
N644   N     0.61906   0.16665   0.75000   0.00000  Uiso   1.00
O645   O     0.46179   0.22775   0.75000   0.00000  Uiso   1.00
O646   O     0.53823   0.22774   0.75000   0.00000  Uiso   1.00
O647   O     0.44280   0.16666   0.82681   0.00000  Uiso   1.00
O648   O     0.51924   0.16665   0.82681   0.00000  Uiso   1.00
O649   O     0.46177   0.10559   0.75000   0.00000  Uiso   1.00
O650   O     0.53821   0.10558   0.74999   0.00000  Uiso   1.00
O651   O     0.48076   0.16668   0.67319   0.00000  Uiso   1.00
O652   O     0.55720   0.16667   0.67319   0.00000  Uiso   1.00
Zn653  Zn    0.44896   0.16667   0.75000   0.00000  Uiso   1.00
Zn654  Zn    0.55104   0.16666   0.75000   0.00000  Uiso   1.00
N655   N     0.41323   0.29111   0.80679   0.00000  Uiso   1.00
H656   H     0.40229   0.30120   0.84676   0.00000  Uiso   1.00
H657   H     0.38696   0.29978   0.78986   0.00000  Uiso   1.00
C658   C     0.64435   0.19008   0.96843   0.00000  Uiso   1.00
H659   H     0.65372   0.19081   0.92505   0.00000  Uiso   1.00
O660   O     0.33757   0.20769   0.98898   0.00000  Uiso   1.00
C661   C     0.83292   0.24667   0.75123   0.00000  Uiso   1.00
C662   C     0.81646   0.13517   0.98754   0.00000  Uiso   1.00
C663   C     0.83010   0.13568   0.93109   0.00000  Uiso   1.00
C664   C     0.85226   0.14339   0.51189   0.00000  Uiso   1.00
C665   C     0.90009   0.15147   0.97936   0.00000  Uiso   1.00
C666   C     0.91352   0.14005   0.92525   0.00000  Uiso   1.00
C667   C     0.87886   0.12997   0.90216   0.00000  Uiso   1.00
C668   C     0.84119   0.14696   0.56718   0.00000  Uiso   1.00
C669   C     0.91974   0.17406   0.55808   0.00000  Uiso   1.00
C670   C     0.79484   0.14331   0.90585   0.00000  Uiso   1.00
C671   C     0.87504   0.31180   0.72785   0.00000  Uiso   1.00
C672   C     0.80809   0.15959   0.85056   0.00000  Uiso   1.00
C673   C     0.87545   0.02119   0.72727   0.00000  Uiso   1.00
C674   C     0.83307   0.04267   0.75137   0.00000  Uiso   1.00
C675   C     0.79043   0.02213   0.77714   0.00000  Uiso   1.00
C676   C     0.78978   0.31252   0.77850   0.00000  Uiso   1.00
C677   C     0.83233   0.29090   0.75284   0.00000  Uiso   1.00
C678   C     0.98630   0.14349   0.71341   0.00000  Uiso   1.00
C679   C     0.70091   0.14350   0.71343   0.00000  Uiso   1.00
C680   C     0.68033   0.18974   0.78670   0.00000  Uiso   1.00
C681   C     0.96573   0.18975   0.78667   0.00000  Uiso   1.00
C682   C     0.83333   0.08670   0.75011   0.00000  Uiso   1.00
C683   C     0.85929   0.16625   0.64812   0.00000  Uiso   1.00
C684   C     0.93284   0.17005   0.50213   0.00000  Uiso   1.00
C685   C     0.87437   0.16201   0.59016   0.00000  Uiso   1.00
C686   C     0.74681   0.13702   0.93500   0.00000  Uiso   1.00
C687   C     0.73348   0.12853   0.98976   0.00000  Uiso   1.00
C688   C     0.76743   0.12948   0.51649   0.00000  Uiso   1.00
H689   H     0.94415   0.18778   0.57670   0.00000  Uiso   1.00
H690   H     0.90845   0.03739   0.70722   0.00000  Uiso   1.00
H691   H     0.75797   0.03934   0.79680   0.00000  Uiso   1.00
H692   H     0.97638   0.12496   0.68415   0.00000  Uiso   1.00
H693   H     0.72726   0.12494   0.68417   0.00000  Uiso   1.00
H694   H     0.69022   0.20819   0.81606   0.00000  Uiso   1.00
H695   H     0.93936   0.20821   0.81603   0.00000  Uiso   1.00
H696   H     0.95050   0.13871   0.90046   0.00000  Uiso   1.00
H697   H     0.80652   0.13833   0.59345   0.00000  Uiso   1.00
H698   H     0.71963   0.13911   0.91549   0.00000  Uiso   1.00
H699   H     0.75399   0.12577   0.55947   0.00000  Uiso   1.00
H700   H     0.69626   0.12363   0.51220   0.00000  Uiso   1.00
H701   H     0.89087   0.11894   0.86111   0.00000  Uiso   1.00
H702   H     0.90782   0.29512   0.70799   0.00000  Uiso   1.00
N703   N     0.71426   0.16668   0.75002   0.00000  Uiso   1.00
N704   N     0.95239   0.16665   0.75000   0.00000  Uiso   1.00
O705   O     0.79512   0.22775   0.75000   0.00000  Uiso   1.00
O706   O     0.87157   0.22774   0.75000   0.00000  Uiso   1.00
O707   O     0.77613   0.16666   0.82681   0.00000  Uiso   1.00
O708   O     0.85258   0.16665   0.82681   0.00000  Uiso   1.00
O709   O     0.79510   0.10559   0.75000   0.00000  Uiso   1.00
O710   O     0.87154   0.10558   0.74999   0.00000  Uiso   1.00
O711   O     0.81409   0.16668   0.67319   0.00000  Uiso   1.00
O712   O     0.89053   0.16667   0.67319   0.00000  Uiso   1.00
Zn713  Zn    0.78229   0.16667   0.75000   0.00000  Uiso   1.00
Zn714  Zn    0.88438   0.16666   0.75000   0.00000  Uiso   1.00
N715   N     0.74656   0.29111   0.80679   0.00000  Uiso   1.00
H716   H     0.73563   0.30120   0.84676   0.00000  Uiso   1.00
H717   H     0.72029   0.29978   0.78986   0.00000  Uiso   1.00
C718   C     0.97769   0.19008   0.96843   0.00000  Uiso   1.00
H719   H     0.98705   0.19081   0.92505   0.00000  Uiso   1.00
O720   O     0.67090   0.20769   0.98898   0.00000  Uiso   1.00
C721   C     0.16626   0.58001   0.75123   0.00000  Uiso   1.00
C722   C     0.14979   0.46851   0.98754   0.00000  Uiso   1.00
C723   C     0.16343   0.46901   0.93109   0.00000  Uiso   1.00
C724   C     0.18559   0.47672   0.51189   0.00000  Uiso   1.00
C725   C     0.23343   0.48480   0.97936   0.00000  Uiso   1.00
C726   C     0.24686   0.47339   0.92525   0.00000  Uiso   1.00
C727   C     0.21219   0.46330   0.90216   0.00000  Uiso   1.00
C728   C     0.17452   0.48029   0.56718   0.00000  Uiso   1.00
C729   C     0.25308   0.50739   0.55808   0.00000  Uiso   1.00
C730   C     0.12817   0.47664   0.90585   0.00000  Uiso   1.00
C731   C     0.20838   0.64513   0.72785   0.00000  Uiso   1.00
C732   C     0.14142   0.49292   0.85056   0.00000  Uiso   1.00
C733   C     0.20878   0.35452   0.72727   0.00000  Uiso   1.00
C734   C     0.16640   0.37601   0.75137   0.00000  Uiso   1.00
C735   C     0.12376   0.35547   0.77714   0.00000  Uiso   1.00
C736   C     0.12311   0.64585   0.77850   0.00000  Uiso   1.00
C737   C     0.16567   0.62423   0.75284   0.00000  Uiso   1.00
C738   C     0.31964   0.47683   0.71341   0.00000  Uiso   1.00
C739   C     0.03424   0.47683   0.71343   0.00000  Uiso   1.00
C740   C     0.01366   0.52307   0.78670   0.00000  Uiso   1.00
C741   C     0.29906   0.52308   0.78667   0.00000  Uiso   1.00
C742   C     0.16666   0.42003   0.75011   0.00000  Uiso   1.00
C743   C     0.19262   0.49958   0.64812   0.00000  Uiso   1.00
C744   C     0.26617   0.50338   0.50213   0.00000  Uiso   1.00
C745   C     0.20771   0.49534   0.59016   0.00000  Uiso   1.00
C746   C     0.08014   0.47036   0.93500   0.00000  Uiso   1.00
C747   C     0.06681   0.46187   0.98976   0.00000  Uiso   1.00
C748   C     0.10076   0.46281   0.51649   0.00000  Uiso   1.00
H749   H     0.27748   0.52111   0.57670   0.00000  Uiso   1.00
H750   H     0.24179   0.37072   0.70722   0.00000  Uiso   1.00
H751   H     0.09130   0.37267   0.79680   0.00000  Uiso   1.00
H752   H     0.30971   0.45830   0.68415   0.00000  Uiso   1.00
H753   H     0.06059   0.45827   0.68417   0.00000  Uiso   1.00
H754   H     0.02355   0.54152   0.81606   0.00000  Uiso   1.00
H755   H     0.27269   0.54155   0.81603   0.00000  Uiso   1.00
H756   H     0.28383   0.47204   0.90046   0.00000  Uiso   1.00
H757   H     0.13986   0.47166   0.59345   0.00000  Uiso   1.00
H758   H     0.05297   0.47245   0.91549   0.00000  Uiso   1.00
H759   H     0.08732   0.45911   0.55947   0.00000  Uiso   1.00
H760   H     0.02959   0.45696   0.51220   0.00000  Uiso   1.00
H761   H     0.22421   0.45228   0.86111   0.00000  Uiso   1.00
H762   H     0.24115   0.62845   0.70799   0.00000  Uiso   1.00
N763   N     0.04760   0.50001   0.75002   0.00000  Uiso   1.00
N764   N     0.28573   0.49998   0.75000   0.00000  Uiso   1.00
O765   O     0.12846   0.56108   0.75000   0.00000  Uiso   1.00
O766   O     0.20490   0.56107   0.75000   0.00000  Uiso   1.00
O767   O     0.10947   0.50000   0.82681   0.00000  Uiso   1.00
O768   O     0.18591   0.49999   0.82681   0.00000  Uiso   1.00
O769   O     0.12843   0.43893   0.75000   0.00000  Uiso   1.00
O770   O     0.20488   0.43892   0.74999   0.00000  Uiso   1.00
O771   O     0.14742   0.50001   0.67319   0.00000  Uiso   1.00
O772   O     0.22387   0.50000   0.67319   0.00000  Uiso   1.00
Zn773  Zn    0.11562   0.50001   0.75000   0.00000  Uiso   1.00
Zn774  Zn    0.21771   0.49999   0.75000   0.00000  Uiso   1.00
N775   N     0.07989   0.62444   0.80679   0.00000  Uiso   1.00
H776   H     0.06896   0.63454   0.84676   0.00000  Uiso   1.00
H777   H     0.05362   0.63312   0.78986   0.00000  Uiso   1.00
C778   C     0.31102   0.52342   0.96843   0.00000  Uiso   1.00
H779   H     0.32039   0.52415   0.92505   0.00000  Uiso   1.00
O780   O     0.00423   0.54102   0.98898   0.00000  Uiso   1.00
C781   C     0.49959   0.58001   0.75123   0.00000  Uiso   1.00
C782   C     0.48313   0.46851   0.98754   0.00000  Uiso   1.00
C783   C     0.49677   0.46901   0.93109   0.00000  Uiso   1.00
C784   C     0.51893   0.47672   0.51189   0.00000  Uiso   1.00
C785   C     0.56676   0.48480   0.97936   0.00000  Uiso   1.00
C786   C     0.58019   0.47339   0.92525   0.00000  Uiso   1.00
C787   C     0.54553   0.46330   0.90216   0.00000  Uiso   1.00
C788   C     0.50785   0.48029   0.56718   0.00000  Uiso   1.00
C789   C     0.58641   0.50739   0.55808   0.00000  Uiso   1.00
C790   C     0.46150   0.47664   0.90585   0.00000  Uiso   1.00
C791   C     0.54171   0.64513   0.72785   0.00000  Uiso   1.00
C792   C     0.47475   0.49292   0.85056   0.00000  Uiso   1.00
C793   C     0.54212   0.35452   0.72727   0.00000  Uiso   1.00
C794   C     0.49973   0.37601   0.75137   0.00000  Uiso   1.00
C795   C     0.45709   0.35547   0.77714   0.00000  Uiso   1.00
C796   C     0.45645   0.64585   0.77850   0.00000  Uiso   1.00
C797   C     0.49900   0.62423   0.75284   0.00000  Uiso   1.00
C798   C     0.65297   0.47683   0.71341   0.00000  Uiso   1.00
C799   C     0.36758   0.47683   0.71343   0.00000  Uiso   1.00
C800   C     0.34699   0.52307   0.78670   0.00000  Uiso   1.00
C801   C     0.63239   0.52308   0.78667   0.00000  Uiso   1.00
C802   C     0.49999   0.42003   0.75011   0.00000  Uiso   1.00
C803   C     0.52596   0.49958   0.64812   0.00000  Uiso   1.00
C804   C     0.59950   0.50338   0.50213   0.00000  Uiso   1.00
C805   C     0.54104   0.49534   0.59016   0.00000  Uiso   1.00
C806   C     0.41348   0.47036   0.93500   0.00000  Uiso   1.00
C807   C     0.40014   0.46187   0.98976   0.00000  Uiso   1.00
C808   C     0.43410   0.46281   0.51649   0.00000  Uiso   1.00
H809   H     0.61081   0.52111   0.57670   0.00000  Uiso   1.00
H810   H     0.57512   0.37072   0.70722   0.00000  Uiso   1.00
H811   H     0.42463   0.37267   0.79680   0.00000  Uiso   1.00
H812   H     0.64304   0.45830   0.68415   0.00000  Uiso   1.00
H813   H     0.39392   0.45827   0.68417   0.00000  Uiso   1.00
H814   H     0.35688   0.54152   0.81606   0.00000  Uiso   1.00
H815   H     0.60602   0.54155   0.81603   0.00000  Uiso   1.00
H816   H     0.61717   0.47204   0.90046   0.00000  Uiso   1.00
H817   H     0.47319   0.47166   0.59345   0.00000  Uiso   1.00
H818   H     0.38630   0.47245   0.91549   0.00000  Uiso   1.00
H819   H     0.42065   0.45911   0.55947   0.00000  Uiso   1.00
H820   H     0.36293   0.45696   0.51220   0.00000  Uiso   1.00
H821   H     0.55754   0.45228   0.86111   0.00000  Uiso   1.00
H822   H     0.57449   0.62845   0.70799   0.00000  Uiso   1.00
N823   N     0.38093   0.50001   0.75002   0.00000  Uiso   1.00
N824   N     0.61906   0.49998   0.75000   0.00000  Uiso   1.00
O825   O     0.46179   0.56108   0.75000   0.00000  Uiso   1.00
O826   O     0.53823   0.56107   0.75000   0.00000  Uiso   1.00
O827   O     0.44280   0.50000   0.82681   0.00000  Uiso   1.00
O828   O     0.51924   0.49999   0.82681   0.00000  Uiso   1.00
O829   O     0.46177   0.43893   0.75000   0.00000  Uiso   1.00
O830   O     0.53821   0.43892   0.74999   0.00000  Uiso   1.00
O831   O     0.48076   0.50001   0.67319   0.00000  Uiso   1.00
O832   O     0.55720   0.50000   0.67319   0.00000  Uiso   1.00
Zn833  Zn    0.44896   0.50001   0.75000   0.00000  Uiso   1.00
Zn834  Zn    0.55104   0.49999   0.75000   0.00000  Uiso   1.00
N835   N     0.41323   0.62444   0.80679   0.00000  Uiso   1.00
H836   H     0.40229   0.63454   0.84676   0.00000  Uiso   1.00
H837   H     0.38696   0.63312   0.78986   0.00000  Uiso   1.00
C838   C     0.64435   0.52342   0.96843   0.00000  Uiso   1.00
H839   H     0.65372   0.52415   0.92505   0.00000  Uiso   1.00
O840   O     0.33757   0.54102   0.98898   0.00000  Uiso   1.00
C841   C     0.83292   0.58001   0.75123   0.00000  Uiso   1.00
C842   C     0.81646   0.46851   0.98754   0.00000  Uiso   1.00
C843   C     0.83010   0.46901   0.93109   0.00000  Uiso   1.00
C844   C     0.85226   0.47672   0.51189   0.00000  Uiso   1.00
C845   C     0.90009   0.48480   0.97936   0.00000  Uiso   1.00
C846   C     0.91352   0.47339   0.92525   0.00000  Uiso   1.00
C847   C     0.87886   0.46330   0.90216   0.00000  Uiso   1.00
C848   C     0.84119   0.48029   0.56718   0.00000  Uiso   1.00
C849   C     0.91974   0.50739   0.55808   0.00000  Uiso   1.00
C850   C     0.79484   0.47664   0.90585   0.00000  Uiso   1.00
C851   C     0.87504   0.64513   0.72785   0.00000  Uiso   1.00
C852   C     0.80809   0.49292   0.85056   0.00000  Uiso   1.00
C853   C     0.87545   0.35452   0.72727   0.00000  Uiso   1.00
C854   C     0.83307   0.37601   0.75137   0.00000  Uiso   1.00
C855   C     0.79043   0.35547   0.77714   0.00000  Uiso   1.00
C856   C     0.78978   0.64585   0.77850   0.00000  Uiso   1.00
C857   C     0.83233   0.62423   0.75284   0.00000  Uiso   1.00
C858   C     0.98630   0.47683   0.71341   0.00000  Uiso   1.00
C859   C     0.70091   0.47683   0.71343   0.00000  Uiso   1.00
C860   C     0.68033   0.52307   0.78670   0.00000  Uiso   1.00
C861   C     0.96573   0.52308   0.78667   0.00000  Uiso   1.00
C862   C     0.83333   0.42003   0.75011   0.00000  Uiso   1.00
C863   C     0.85929   0.49958   0.64812   0.00000  Uiso   1.00
C864   C     0.93284   0.50338   0.50213   0.00000  Uiso   1.00
C865   C     0.87437   0.49534   0.59016   0.00000  Uiso   1.00
C866   C     0.74681   0.47036   0.93500   0.00000  Uiso   1.00
C867   C     0.73348   0.46187   0.98976   0.00000  Uiso   1.00
C868   C     0.76743   0.46281   0.51649   0.00000  Uiso   1.00
H869   H     0.94415   0.52111   0.57670   0.00000  Uiso   1.00
H870   H     0.90845   0.37072   0.70722   0.00000  Uiso   1.00
H871   H     0.75797   0.37267   0.79680   0.00000  Uiso   1.00
H872   H     0.97638   0.45830   0.68415   0.00000  Uiso   1.00
H873   H     0.72726   0.45827   0.68417   0.00000  Uiso   1.00
H874   H     0.69022   0.54152   0.81606   0.00000  Uiso   1.00
H875   H     0.93936   0.54155   0.81603   0.00000  Uiso   1.00
H876   H     0.95050   0.47204   0.90046   0.00000  Uiso   1.00
H877   H     0.80652   0.47166   0.59345   0.00000  Uiso   1.00
H878   H     0.71963   0.47245   0.91549   0.00000  Uiso   1.00
H879   H     0.75399   0.45911   0.55947   0.00000  Uiso   1.00
H880   H     0.69626   0.45696   0.51220   0.00000  Uiso   1.00
H881   H     0.89087   0.45228   0.86111   0.00000  Uiso   1.00
H882   H     0.90782   0.62845   0.70799   0.00000  Uiso   1.00
N883   N     0.71426   0.50001   0.75002   0.00000  Uiso   1.00
N884   N     0.95239   0.49998   0.75000   0.00000  Uiso   1.00
O885   O     0.79512   0.56108   0.75000   0.00000  Uiso   1.00
O886   O     0.87157   0.56107   0.75000   0.00000  Uiso   1.00
O887   O     0.77613   0.50000   0.82681   0.00000  Uiso   1.00
O888   O     0.85258   0.49999   0.82681   0.00000  Uiso   1.00
O889   O     0.79510   0.43893   0.75000   0.00000  Uiso   1.00
O890   O     0.87154   0.43892   0.74999   0.00000  Uiso   1.00
O891   O     0.81409   0.50001   0.67319   0.00000  Uiso   1.00
O892   O     0.89053   0.50000   0.67319   0.00000  Uiso   1.00
Zn893  Zn    0.78229   0.50001   0.75000   0.00000  Uiso   1.00
Zn894  Zn    0.88438   0.49999   0.75000   0.00000  Uiso   1.00
N895   N     0.74656   0.62444   0.80679   0.00000  Uiso   1.00
H896   H     0.73563   0.63454   0.84676   0.00000  Uiso   1.00
H897   H     0.72029   0.63312   0.78986   0.00000  Uiso   1.00
C898   C     0.97769   0.52342   0.96843   0.00000  Uiso   1.00
H899   H     0.98705   0.52415   0.92505   0.00000  Uiso   1.00
O900   O     0.67090   0.54102   0.98898   0.00000  Uiso   1.00
C901   C     0.16626   0.91334   0.75123   0.00000  Uiso   1.00
C902   C     0.14979   0.80184   0.98754   0.00000  Uiso   1.00
C903   C     0.16343   0.80234   0.93109   0.00000  Uiso   1.00
C904   C     0.18559   0.81005   0.51189   0.00000  Uiso   1.00
C905   C     0.23343   0.81813   0.97936   0.00000  Uiso   1.00
C906   C     0.24686   0.80672   0.92525   0.00000  Uiso   1.00
C907   C     0.21219   0.79664   0.90216   0.00000  Uiso   1.00
C908   C     0.17452   0.81362   0.56718   0.00000  Uiso   1.00
C909   C     0.25308   0.84073   0.55808   0.00000  Uiso   1.00
C910   C     0.12817   0.80997   0.90585   0.00000  Uiso   1.00
C911   C     0.20838   0.97847   0.72785   0.00000  Uiso   1.00
C912   C     0.14142   0.82626   0.85056   0.00000  Uiso   1.00
C913   C     0.20878   0.68785   0.72727   0.00000  Uiso   1.00
C914   C     0.16640   0.70934   0.75137   0.00000  Uiso   1.00
C915   C     0.12376   0.68880   0.77714   0.00000  Uiso   1.00
C916   C     0.12311   0.97919   0.77850   0.00000  Uiso   1.00
C917   C     0.16567   0.95756   0.75284   0.00000  Uiso   1.00
C918   C     0.31964   0.81016   0.71341   0.00000  Uiso   1.00
C919   C     0.03424   0.81016   0.71343   0.00000  Uiso   1.00
C920   C     0.01366   0.85641   0.78670   0.00000  Uiso   1.00
C921   C     0.29906   0.85642   0.78667   0.00000  Uiso   1.00
C922   C     0.16666   0.75337   0.75011   0.00000  Uiso   1.00
C923   C     0.19262   0.83292   0.64812   0.00000  Uiso   1.00
C924   C     0.26617   0.83671   0.50213   0.00000  Uiso   1.00
C925   C     0.20771   0.82867   0.59016   0.00000  Uiso   1.00
C926   C     0.08014   0.80369   0.93500   0.00000  Uiso   1.00
C927   C     0.06681   0.79520   0.98976   0.00000  Uiso   1.00
C928   C     0.10076   0.79614   0.51649   0.00000  Uiso   1.00
H929   H     0.27748   0.85444   0.57670   0.00000  Uiso   1.00
H930   H     0.24179   0.70405   0.70722   0.00000  Uiso   1.00
H931   H     0.09130   0.70601   0.79680   0.00000  Uiso   1.00
H932   H     0.30971   0.79163   0.68415   0.00000  Uiso   1.00
H933   H     0.06059   0.79160   0.68417   0.00000  Uiso   1.00
H934   H     0.02355   0.87485   0.81606   0.00000  Uiso   1.00
H935   H     0.27269   0.87488   0.81603   0.00000  Uiso   1.00
H936   H     0.28383   0.80537   0.90046   0.00000  Uiso   1.00
H937   H     0.13986   0.80499   0.59345   0.00000  Uiso   1.00
H938   H     0.05297   0.80578   0.91549   0.00000  Uiso   1.00
H939   H     0.08732   0.79244   0.55947   0.00000  Uiso   1.00
H940   H     0.02959   0.79029   0.51220   0.00000  Uiso   1.00
H941   H     0.22421   0.78561   0.86111   0.00000  Uiso   1.00
H942   H     0.24115   0.96178   0.70799   0.00000  Uiso   1.00
N943   N     0.04760   0.83334   0.75002   0.00000  Uiso   1.00
N944   N     0.28573   0.83331   0.75000   0.00000  Uiso   1.00
O945   O     0.12846   0.89442   0.75000   0.00000  Uiso   1.00
O946   O     0.20490   0.89441   0.75000   0.00000  Uiso   1.00
O947   O     0.10947   0.83333   0.82681   0.00000  Uiso   1.00
O948   O     0.18591   0.83332   0.82681   0.00000  Uiso   1.00
O949   O     0.12843   0.77226   0.75000   0.00000  Uiso   1.00
O950   O     0.20488   0.77225   0.74999   0.00000  Uiso   1.00
O951   O     0.14742   0.83335   0.67319   0.00000  Uiso   1.00
O952   O     0.22387   0.83334   0.67319   0.00000  Uiso   1.00
Zn953  Zn    0.11562   0.83334   0.75000   0.00000  Uiso   1.00
Zn954  Zn    0.21771   0.83333   0.75000   0.00000  Uiso   1.00
N955   N     0.07989   0.95778   0.80679   0.00000  Uiso   1.00
H956   H     0.06896   0.96787   0.84676   0.00000  Uiso   1.00
H957   H     0.05362   0.96645   0.78986   0.00000  Uiso   1.00
C958   C     0.31102   0.85675   0.96843   0.00000  Uiso   1.00
H959   H     0.32039   0.85748   0.92505   0.00000  Uiso   1.00
O960   O     0.00423   0.87435   0.98898   0.00000  Uiso   1.00
C961   C     0.49959   0.91334   0.75123   0.00000  Uiso   1.00
C962   C     0.48313   0.80184   0.98754   0.00000  Uiso   1.00
C963   C     0.49677   0.80234   0.93109   0.00000  Uiso   1.00
C964   C     0.51893   0.81005   0.51189   0.00000  Uiso   1.00
C965   C     0.56676   0.81813   0.97936   0.00000  Uiso   1.00
C966   C     0.58019   0.80672   0.92525   0.00000  Uiso   1.00
C967   C     0.54553   0.79664   0.90216   0.00000  Uiso   1.00
C968   C     0.50785   0.81362   0.56718   0.00000  Uiso   1.00
C969   C     0.58641   0.84073   0.55808   0.00000  Uiso   1.00
C970   C     0.46150   0.80997   0.90585   0.00000  Uiso   1.00
C971   C     0.54171   0.97847   0.72785   0.00000  Uiso   1.00
C972   C     0.47475   0.82626   0.85056   0.00000  Uiso   1.00
C973   C     0.54212   0.68785   0.72727   0.00000  Uiso   1.00
C974   C     0.49973   0.70934   0.75137   0.00000  Uiso   1.00
C975   C     0.45709   0.68880   0.77714   0.00000  Uiso   1.00
C976   C     0.45645   0.97919   0.77850   0.00000  Uiso   1.00
C977   C     0.49900   0.95756   0.75284   0.00000  Uiso   1.00
C978   C     0.65297   0.81016   0.71341   0.00000  Uiso   1.00
C979   C     0.36758   0.81016   0.71343   0.00000  Uiso   1.00
C980   C     0.34699   0.85641   0.78670   0.00000  Uiso   1.00
C981   C     0.63239   0.85642   0.78667   0.00000  Uiso   1.00
C982   C     0.49999   0.75337   0.75011   0.00000  Uiso   1.00
C983   C     0.52596   0.83292   0.64812   0.00000  Uiso   1.00
C984   C     0.59950   0.83671   0.50213   0.00000  Uiso   1.00
C985   C     0.54104   0.82867   0.59016   0.00000  Uiso   1.00
C986   C     0.41348   0.80369   0.93500   0.00000  Uiso   1.00
C987   C     0.40014   0.79520   0.98976   0.00000  Uiso   1.00
C988   C     0.43410   0.79614   0.51649   0.00000  Uiso   1.00
H989   H     0.61081   0.85444   0.57670   0.00000  Uiso   1.00
H990   H     0.57512   0.70405   0.70722   0.00000  Uiso   1.00
H991   H     0.42463   0.70601   0.79680   0.00000  Uiso   1.00
H992   H     0.64304   0.79163   0.68415   0.00000  Uiso   1.00
H993   H     0.39392   0.79160   0.68417   0.00000  Uiso   1.00
H994   H     0.35688   0.87485   0.81606   0.00000  Uiso   1.00
H995   H     0.60602   0.87488   0.81603   0.00000  Uiso   1.00
H996   H     0.61717   0.80537   0.90046   0.00000  Uiso   1.00
H997   H     0.47319   0.80499   0.59345   0.00000  Uiso   1.00
H998   H     0.38630   0.80578   0.91549   0.00000  Uiso   1.00
H999   H     0.42065   0.79244   0.55947   0.00000  Uiso   1.00
H1000  H     0.36293   0.79029   0.51220   0.00000  Uiso   1.00
H1001  H     0.55754   0.78561   0.86111   0.00000  Uiso   1.00
H1002  H     0.57449   0.96178   0.70799   0.00000  Uiso   1.00
N1003  N     0.38093   0.83334   0.75002   0.00000  Uiso   1.00
N1004  N     0.61906   0.83331   0.75000   0.00000  Uiso   1.00
O1005  O     0.46179   0.89442   0.75000   0.00000  Uiso   1.00
O1006  O     0.53823   0.89441   0.75000   0.00000  Uiso   1.00
O1007  O     0.44280   0.83333   0.82681   0.00000  Uiso   1.00
O1008  O     0.51924   0.83332   0.82681   0.00000  Uiso   1.00
O1009  O     0.46177   0.77226   0.75000   0.00000  Uiso   1.00
O1010  O     0.53821   0.77225   0.74999   0.00000  Uiso   1.00
O1011  O     0.48076   0.83335   0.67319   0.00000  Uiso   1.00
O1012  O     0.55720   0.83334   0.67319   0.00000  Uiso   1.00
Zn1013 Zn    0.44896   0.83334   0.75000   0.00000  Uiso   1.00
Zn1014 Zn    0.55104   0.83333   0.75000   0.00000  Uiso   1.00
N1015  N     0.41323   0.95778   0.80679   0.00000  Uiso   1.00
H1016  H     0.40229   0.96787   0.84676   0.00000  Uiso   1.00
H1017  H     0.38696   0.96645   0.78986   0.00000  Uiso   1.00
C1018  C     0.64435   0.85675   0.96843   0.00000  Uiso   1.00
H1019  H     0.65372   0.85748   0.92505   0.00000  Uiso   1.00
O1020  O     0.33757   0.87435   0.98898   0.00000  Uiso   1.00
C1021  C     0.83292   0.91334   0.75123   0.00000  Uiso   1.00
C1022  C     0.81646   0.80184   0.98754   0.00000  Uiso   1.00
C1023  C     0.83010   0.80234   0.93109   0.00000  Uiso   1.00
C1024  C     0.85226   0.81005   0.51189   0.00000  Uiso   1.00
C1025  C     0.90009   0.81813   0.97936   0.00000  Uiso   1.00
C1026  C     0.91352   0.80672   0.92525   0.00000  Uiso   1.00
C1027  C     0.87886   0.79664   0.90216   0.00000  Uiso   1.00
C1028  C     0.84119   0.81362   0.56718   0.00000  Uiso   1.00
C1029  C     0.91974   0.84073   0.55808   0.00000  Uiso   1.00
C1030  C     0.79484   0.80997   0.90585   0.00000  Uiso   1.00
C1031  C     0.87504   0.97847   0.72785   0.00000  Uiso   1.00
C1032  C     0.80809   0.82626   0.85056   0.00000  Uiso   1.00
C1033  C     0.87545   0.68785   0.72727   0.00000  Uiso   1.00
C1034  C     0.83307   0.70934   0.75137   0.00000  Uiso   1.00
C1035  C     0.79043   0.68880   0.77714   0.00000  Uiso   1.00
C1036  C     0.78978   0.97919   0.77850   0.00000  Uiso   1.00
C1037  C     0.83233   0.95756   0.75284   0.00000  Uiso   1.00
C1038  C     0.98630   0.81016   0.71341   0.00000  Uiso   1.00
C1039  C     0.70091   0.81016   0.71343   0.00000  Uiso   1.00
C1040  C     0.68033   0.85641   0.78670   0.00000  Uiso   1.00
C1041  C     0.96573   0.85642   0.78667   0.00000  Uiso   1.00
C1042  C     0.83333   0.75337   0.75011   0.00000  Uiso   1.00
C1043  C     0.85929   0.83292   0.64812   0.00000  Uiso   1.00
C1044  C     0.93284   0.83671   0.50213   0.00000  Uiso   1.00
C1045  C     0.87437   0.82867   0.59016   0.00000  Uiso   1.00
C1046  C     0.74681   0.80369   0.93500   0.00000  Uiso   1.00
C1047  C     0.73348   0.79520   0.98976   0.00000  Uiso   1.00
C1048  C     0.76743   0.79614   0.51649   0.00000  Uiso   1.00
H1049  H     0.94415   0.85444   0.57670   0.00000  Uiso   1.00
H1050  H     0.90845   0.70405   0.70722   0.00000  Uiso   1.00
H1051  H     0.75797   0.70601   0.79680   0.00000  Uiso   1.00
H1052  H     0.97638   0.79163   0.68415   0.00000  Uiso   1.00
H1053  H     0.72726   0.79160   0.68417   0.00000  Uiso   1.00
H1054  H     0.69022   0.87485   0.81606   0.00000  Uiso   1.00
H1055  H     0.93936   0.87488   0.81603   0.00000  Uiso   1.00
H1056  H     0.95050   0.80537   0.90046   0.00000  Uiso   1.00
H1057  H     0.80652   0.80499   0.59345   0.00000  Uiso   1.00
H1058  H     0.71963   0.80578   0.91549   0.00000  Uiso   1.00
H1059  H     0.75399   0.79244   0.55947   0.00000  Uiso   1.00
H1060  H     0.69626   0.79029   0.51220   0.00000  Uiso   1.00
H1061  H     0.89087   0.78561   0.86111   0.00000  Uiso   1.00
H1062  H     0.90782   0.96178   0.70799   0.00000  Uiso   1.00
N1063  N     0.71426   0.83334   0.75002   0.00000  Uiso   1.00
N1064  N     0.95239   0.83331   0.75000   0.00000  Uiso   1.00
O1065  O     0.79512   0.89442   0.75000   0.00000  Uiso   1.00
O1066  O     0.87157   0.89441   0.75000   0.00000  Uiso   1.00
O1067  O     0.77613   0.83333   0.82681   0.00000  Uiso   1.00
O1068  O     0.85258   0.83332   0.82681   0.00000  Uiso   1.00
O1069  O     0.79510   0.77226   0.75000   0.00000  Uiso   1.00
O1070  O     0.87154   0.77225   0.74999   0.00000  Uiso   1.00
O1071  O     0.81409   0.83335   0.67319   0.00000  Uiso   1.00
O1072  O     0.89053   0.83334   0.67319   0.00000  Uiso   1.00
Zn1073 Zn    0.78229   0.83334   0.75000   0.00000  Uiso   1.00
Zn1074 Zn    0.88438   0.83333   0.75000   0.00000  Uiso   1.00
N1075  N     0.74656   0.95778   0.80679   0.00000  Uiso   1.00
H1076  H     0.73563   0.96787   0.84676   0.00000  Uiso   1.00
H1077  H     0.72029   0.96645   0.78986   0.00000  Uiso   1.00
C1078  C     0.97769   0.85675   0.96843   0.00000  Uiso   1.00
H1079  H     0.98705   0.85748   0.92505   0.00000  Uiso   1.00
O1080  O     0.67090   0.87435   0.98898   0.00000  Uiso   1.00
loop_
_geom_bond_atom_site_label_1
_geom_bond_atom_site_label_2
_geom_bond_distance
_geom_bond_site_symmetry_2
_ccdc_geom_bond_type
C1     C17     1.419   .     S
C1     O45     1.281   .     A
C1     O46     1.284   .     A
C2     C3      1.406   .     A
C2     C544    1.422   .     S
C2     C568    1.420   .     S
C3     C10     1.420   .     A
C3     C7      1.412   .     A
C4     C8      1.387   .     A
C4     C542    1.422   1_554 S
C4     C545    1.426   1_554 S
C5     C6      1.396   .     A
C5     C544    1.426   .     S
C5     C564    1.419   .     S
C6     H36     1.081   .     S
C6     C7      1.383   .     A
C7     H41     1.081   .     S
C8     C25     1.390   .     A
C8     H37     1.075   .     S
C9     C25     1.394   .     A
C9     C24     1.400   .     A
C9     H29     1.084   .     S
C10    C26     1.398   .     A
C10    C12     1.473   .     S
C11    H42     1.084   .     S
C11    C17     1.397   .     A
C11    C193    1.370   .     S
C12    O48     1.285   .     A
C12    O47     1.304   .     A
C13    H30     1.084   .     S
C13    C14     1.393   .     A
C13    C371    1.370   1_545 S
C14    C22     1.412   .     S
C14    C15     1.394   .     A
C15    H31     1.085   .     S
C15    C376    1.378   1_545 S
C16    N55     1.434   .     S
C16    C17     1.406   .     A
C16    C195    1.378   .     S
C18    N44     1.366   .     A
C18    H32     1.082   .     S
C18    C79     1.417   .     S
C19    N43     1.367   .     A
C19    H33     1.082   .     S
C19    C138    1.417   1_455 S
C20    H34     1.082   .     S
C20    N43     1.366   .     A
C20    C141    1.416   1_455 S
C21    H35     1.082   .     S
C21    N44     1.367   .     A
C21    C80     1.416   .     S
C22    O50     1.281   .     A
C22    O49     1.282   .     A
C23    C25     1.449   .     S
C23    O52     1.291   .     A
C23    O51     1.289   .     A
C24    C545    1.419   1_554 S
C24    C598    1.488   1_554 S
C26    C27     1.391   .     A
C26    H38     1.082   .     S
C27    C568    1.394   .     S
C27    H580    1.083   .     S
C28    H39     1.077   .     S
C28    C542    1.420   1_554 S
C28    C567    1.394   1_554 S
H40    C567    1.083   1_554 S
N43    Zn53    2.010   .     S
N44    Zn54    2.010   .     S
O45    Zn53    1.995   .     S
O46    Zn54    1.994   .     S
O47    Zn53    1.964   .     S
O48    Zn54    1.935   .     S
O49    Zn53    1.994   .     S
O50    Zn54    1.995   .     S
O51    Zn53    1.935   .     S
O52    Zn54    1.964   .     S
N55    H56     1.046   .     S
N55    H57     1.046   .     S
C58    H59     1.083   .     S
C58    C564    1.488   .     S
C58    O120    1.222   .     S
O60    C178    1.222   1_455 S
C61    C77     1.419   .     S
C61    O105    1.281   .     A
C61    O106    1.284   .     A
C62    C63     1.406   .     A
C62    C604    1.422   .     S
C62    C628    1.420   .     S
C63    C70     1.420   .     A
C63    C67     1.412   .     A
C64    C68     1.387   .     A
C64    C602    1.422   1_554 S
C64    C605    1.426   1_554 S
C65    C66     1.396   .     A
C65    C604    1.426   .     S
C65    C624    1.419   .     S
C66    H96     1.081   .     S
C66    C67     1.383   .     A
C67    H101    1.081   .     S
C68    C85     1.390   .     A
C68    H97     1.075   .     S
C69    C85     1.394   .     A
C69    C84     1.400   .     A
C69    H89     1.084   .     S
C70    C86     1.398   .     A
C70    C72     1.473   .     S
C71    H102    1.084   .     S
C71    C77     1.397   .     A
C71    C253    1.370   .     S
C72    O108    1.285   .     A
C72    O107    1.304   .     A
C73    H90     1.084   .     S
C73    C74     1.393   .     A
C73    C431    1.370   1_545 S
C74    C82     1.412   .     S
C74    C75     1.394   .     A
C75    H91     1.085   .     S
C75    C436    1.378   1_545 S
C76    N115    1.434   .     S
C76    C77     1.406   .     A
C76    C255    1.378   .     S
C78    N104    1.366   .     A
C78    H92     1.082   .     S
C78    C139    1.417   .     S
C79    N103    1.367   .     A
C79    H93     1.082   .     S
C80    H94     1.082   .     S
C80    N103    1.366   .     A
C81    H95     1.082   .     S
C81    N104    1.367   .     A
C81    C140    1.416   .     S
C82    O110    1.281   .     A
C82    O109    1.282   .     A
C83    C85     1.449   .     S
C83    O112    1.291   .     A
C83    O111    1.289   .     A
C84    C605    1.419   1_554 S
C84    C658    1.488   1_554 S
C86    C87     1.391   .     A
C86    H98     1.082   .     S
C87    C628    1.394   .     S
C87    H640    1.083   .     S
C88    H99     1.077   .     S
C88    C602    1.420   1_554 S
C88    C627    1.394   1_554 S
H100   C627    1.083   1_554 S
N103   Zn113   2.010   .     S
N104   Zn114   2.010   .     S
O105   Zn113   1.995   .     S
O106   Zn114   1.994   .     S
O107   Zn113   1.964   .     S
O108   Zn114   1.935   .     S
O109   Zn113   1.994   .     S
O110   Zn114   1.995   .     S
O111   Zn113   1.935   .     S
O112   Zn114   1.964   .     S
N115   H116    1.046   .     S
N115   H117    1.046   .     S
C118   H119    1.083   .     S
C118   C624    1.488   .     S
C118   O180    1.222   .     S
C121   C137    1.419   .     S
C121   O165    1.281   .     A
C121   O166    1.284   .     A
C122   C123    1.406   .     A
C122   C664    1.422   .     S
C122   C688    1.420   .     S
C123   C130    1.420   .     A
C123   C127    1.412   .     A
C124   C128    1.387   .     A
C124   C662    1.422   1_554 S
C124   C665    1.426   1_554 S
C125   C126    1.396   .     A
C125   C664    1.426   .     S
C125   C684    1.419   .     S
C126   H156    1.081   .     S
C126   C127    1.383   .     A
C127   H161    1.081   .     S
C128   C145    1.390   .     A
C128   H157    1.075   .     S
C129   C145    1.394   .     A
C129   C144    1.400   .     A
C129   H149    1.084   .     S
C130   C146    1.398   .     A
C130   C132    1.473   .     S
C131   H162    1.084   .     S
C131   C137    1.397   .     A
C131   C313    1.370   .     S
C132   O168    1.285   .     A
C132   O167    1.304   .     A
C133   H150    1.084   .     S
C133   C134    1.393   .     A
C133   C491    1.370   1_545 S
C134   C142    1.412   .     S
C134   C135    1.394   .     A
C135   H151    1.085   .     S
C135   C496    1.378   1_545 S
C136   N175    1.434   .     S
C136   C137    1.406   .     A
C136   C315    1.378   .     S
C138   N164    1.366   .     A
C138   H152    1.082   .     S
C138   C19     1.417   1_655 S
C139   N163    1.367   .     A
C139   H153    1.082   .     S
C140   H154    1.082   .     S
C140   N163    1.366   .     A
C141   H155    1.082   .     S
C141   N164    1.367   .     A
C141   C20     1.416   1_655 S
C142   O170    1.281   .     A
C142   O169    1.282   .     A
C143   C145    1.449   .     S
C143   O172    1.291   .     A
C143   O171    1.289   .     A
C144   C665    1.419   1_554 S
C144   C718    1.488   1_554 S
C146   C147    1.391   .     A
C146   H158    1.082   .     S
C147   C688    1.394   .     S
C147   H700    1.083   .     S
C148   H159    1.077   .     S
C148   C662    1.420   1_554 S
C148   C687    1.394   1_554 S
H160   C687    1.083   1_554 S
N163   Zn173   2.010   .     S
N164   Zn174   2.010   .     S
O165   Zn173   1.995   .     S
O166   Zn174   1.994   .     S
O167   Zn173   1.964   .     S
O168   Zn174   1.935   .     S
O169   Zn173   1.994   .     S
O170   Zn174   1.995   .     S
O171   Zn173   1.935   .     S
O172   Zn174   1.964   .     S
N175   H176    1.046   .     S
N175   H177    1.046   .     S
C178   H179    1.083   .     S
C178   C684    1.488   .     S
C178   O60     1.222   1_655 S
C181   C197    1.419   .     S
C181   O225    1.281   .     A
C181   O226    1.284   .     A
C182   C183    1.406   .     A
C182   C724    1.422   .     S
C182   C748    1.420   .     S
C183   C190    1.420   .     A
C183   C187    1.412   .     A
C184   C188    1.387   .     A
C184   C722    1.422   1_554 S
C184   C725    1.426   1_554 S
C185   C186    1.396   .     A
C185   C724    1.426   .     S
C185   C744    1.419   .     S
C186   H216    1.081   .     S
C186   C187    1.383   .     A
C187   H221    1.081   .     S
C188   C205    1.390   .     A
C188   H217    1.075   .     S
C189   C205    1.394   .     A
C189   C204    1.400   .     A
C189   H209    1.084   .     S
C190   C206    1.398   .     A
C190   C192    1.473   .     S
C191   H222    1.084   .     S
C191   C197    1.397   .     A
C191   C373    1.370   .     S
C192   O228    1.285   .     A
C192   O227    1.304   .     A
C193   H210    1.084   .     S
C193   C194    1.393   .     A
C194   C202    1.412   .     S
C194   C195    1.394   .     A
C195   H211    1.085   .     S
C196   N235    1.434   .     S
C196   C197    1.406   .     A
C196   C375    1.378   .     S
C198   N224    1.366   .     A
C198   H212    1.082   .     S
C198   C259    1.417   .     S
C199   N223    1.367   .     A
C199   H213    1.082   .     S
C199   C318    1.417   1_455 S
C200   H214    1.082   .     S
C200   N223    1.366   .     A
C200   C321    1.416   1_455 S
C201   H215    1.082   .     S
C201   N224    1.367   .     A
C201   C260    1.416   .     S
C202   O230    1.281   .     A
C202   O229    1.282   .     A
C203   C205    1.449   .     S
C203   O232    1.291   .     A
C203   O231    1.289   .     A
C204   C725    1.419   1_554 S
C204   C778    1.488   1_554 S
C206   C207    1.391   .     A
C206   H218    1.082   .     S
C207   C748    1.394   .     S
C207   H760    1.083   .     S
C208   H219    1.077   .     S
C208   C722    1.420   1_554 S
C208   C747    1.394   1_554 S
H220   C747    1.083   1_554 S
N223   Zn233   2.010   .     S
N224   Zn234   2.010   .     S
O225   Zn233   1.995   .     S
O226   Zn234   1.994   .     S
O227   Zn233   1.964   .     S
O228   Zn234   1.935   .     S
O229   Zn233   1.994   .     S
O230   Zn234   1.995   .     S
O231   Zn233   1.935   .     S
O232   Zn234   1.964   .     S
N235   H236    1.046   .     S
N235   H237    1.046   .     S
C238   H239    1.083   .     S
C238   C744    1.488   .     S
C238   O300    1.222   .     S
O240   C358    1.222   1_455 S
C241   C257    1.419   .     S
C241   O285    1.281   .     A
C241   O286    1.284   .     A
C242   C243    1.406   .     A
C242   C784    1.422   .     S
C242   C808    1.420   .     S
C243   C250    1.420   .     A
C243   C247    1.412   .     A
C244   C248    1.387   .     A
C244   C782    1.422   1_554 S
C244   C785    1.426   1_554 S
C245   C246    1.396   .     A
C245   C784    1.426   .     S
C245   C804    1.419   .     S
C246   H276    1.081   .     S
C246   C247    1.383   .     A
C247   H281    1.081   .     S
C248   C265    1.390   .     A
C248   H277    1.075   .     S
C249   C265    1.394   .     A
C249   C264    1.400   .     A
C249   H269    1.084   .     S
C250   C266    1.398   .     A
C250   C252    1.473   .     S
C251   H282    1.084   .     S
C251   C257    1.397   .     A
C251   C433    1.370   .     S
C252   O288    1.285   .     A
C252   O287    1.304   .     A
C253   H270    1.084   .     S
C253   C254    1.393   .     A
C254   C262    1.412   .     S
C254   C255    1.394   .     A
C255   H271    1.085   .     S
C256   N295    1.434   .     S
C256   C257    1.406   .     A
C256   C435    1.378   .     S
C258   N284    1.366   .     A
C258   H272    1.082   .     S
C258   C319    1.417   .     S
C259   N283    1.367   .     A
C259   H273    1.082   .     S
C260   H274    1.082   .     S
C260   N283    1.366   .     A
C261   H275    1.082   .     S
C261   N284    1.367   .     A
C261   C320    1.416   .     S
C262   O290    1.281   .     A
C262   O289    1.282   .     A
C263   C265    1.449   .     S
C263   O292    1.291   .     A
C263   O291    1.289   .     A
C264   C785    1.419   1_554 S
C264   C838    1.488   1_554 S
C266   C267    1.391   .     A
C266   H278    1.082   .     S
C267   C808    1.394   .     S
C267   H820    1.083   .     S
C268   H279    1.077   .     S
C268   C782    1.420   1_554 S
C268   C807    1.394   1_554 S
H280   C807    1.083   1_554 S
N283   Zn293   2.010   .     S
N284   Zn294   2.010   .     S
O285   Zn293   1.995   .     S
O286   Zn294   1.994   .     S
O287   Zn293   1.964   .     S
O288   Zn294   1.935   .     S
O289   Zn293   1.994   .     S
O290   Zn294   1.995   .     S
O291   Zn293   1.935   .     S
O292   Zn294   1.964   .     S
N295   H296    1.046   .     S
N295   H297    1.046   .     S
C298   H299    1.083   .     S
C298   C804    1.488   .     S
C298   O360    1.222   .     S
C301   C317    1.419   .     S
C301   O345    1.281   .     A
C301   O346    1.284   .     A
C302   C303    1.406   .     A
C302   C844    1.422   .     S
C302   C868    1.420   .     S
C303   C310    1.420   .     A
C303   C307    1.412   .     A
C304   C308    1.387   .     A
C304   C842    1.422   1_554 S
C304   C845    1.426   1_554 S
C305   C306    1.396   .     A
C305   C844    1.426   .     S
C305   C864    1.419   .     S
C306   H336    1.081   .     S
C306   C307    1.383   .     A
C307   H341    1.081   .     S
C308   C325    1.390   .     A
C308   H337    1.075   .     S
C309   C325    1.394   .     A
C309   C324    1.400   .     A
C309   H329    1.084   .     S
C310   C326    1.398   .     A
C310   C312    1.473   .     S
C311   H342    1.084   .     S
C311   C317    1.397   .     A
C311   C493    1.370   .     S
C312   O348    1.285   .     A
C312   O347    1.304   .     A
C313   H330    1.084   .     S
C313   C314    1.393   .     A
C314   C322    1.412   .     S
C314   C315    1.394   .     A
C315   H331    1.085   .     S
C316   N355    1.434   .     S
C316   C317    1.406   .     A
C316   C495    1.378   .     S
C318   N344    1.366   .     A
C318   H332    1.082   .     S
C318   C199    1.417   1_655 S
C319   N343    1.367   .     A
C319   H333    1.082   .     S
C320   H334    1.082   .     S
C320   N343    1.366   .     A
C321   H335    1.082   .     S
C321   N344    1.367   .     A
C321   C200    1.416   1_655 S
C322   O350    1.281   .     A
C322   O349    1.282   .     A
C323   C325    1.449   .     S
C323   O352    1.291   .     A
C323   O351    1.289   .     A
C324   C845    1.419   1_554 S
C324   C898    1.488   1_554 S
C326   C327    1.391   .     A
C326   H338    1.082   .     S
C327   C868    1.394   .     S
C327   H880    1.083   .     S
C328   H339    1.077   .     S
C328   C842    1.420   1_554 S
C328   C867    1.394   1_554 S
H340   C867    1.083   1_554 S
N343   Zn353   2.010   .     S
N344   Zn354   2.010   .     S
O345   Zn353   1.995   .     S
O346   Zn354   1.994   .     S
O347   Zn353   1.964   .     S
O348   Zn354   1.935   .     S
O349   Zn353   1.994   .     S
O350   Zn354   1.995   .     S
O351   Zn353   1.935   .     S
O352   Zn354   1.964   .     S
N355   H356    1.046   .     S
N355   H357    1.046   .     S
C358   H359    1.083   .     S
C358   C864    1.488   .     S
C358   O240    1.222   1_655 S
C361   C377    1.419   .     S
C361   O405    1.281   .     A
C361   O406    1.284   .     A
C362   C363    1.406   .     A
C362   C904    1.422   .     S
C362   C928    1.420   .     S
C363   C370    1.420   .     A
C363   C367    1.412   .     A
C364   C368    1.387   .     A
C364   C902    1.422   1_554 S
C364   C905    1.426   1_554 S
C365   C366    1.396   .     A
C365   C904    1.426   .     S
C365   C924    1.419   .     S
C366   H396    1.081   .     S
C366   C367    1.383   .     A
C367   H401    1.081   .     S
C368   C385    1.390   .     A
C368   H397    1.075   .     S
C369   C385    1.394   .     A
C369   C384    1.400   .     A
C369   H389    1.084   .     S
C370   C386    1.398   .     A
C370   C372    1.473   .     S
C371   H402    1.084   .     S
C371   C377    1.397   .     A
C371   C13     1.370   1_565 S
C372   O408    1.285   .     A
C372   O407    1.304   .     A
C373   H390    1.084   .     S
C373   C374    1.393   .     A
C374   C382    1.412   .     S
C374   C375    1.394   .     A
C375   H391    1.085   .     S
C376   N415    1.434   .     S
C376   C377    1.406   .     A
C376   C15     1.378   1_565 S
C378   N404    1.366   .     A
C378   H392    1.082   .     S
C378   C439    1.417   .     S
C379   N403    1.367   .     A
C379   H393    1.082   .     S
C379   C498    1.417   1_455 S
C380   H394    1.082   .     S
C380   N403    1.366   .     A
C380   C501    1.416   1_455 S
C381   H395    1.082   .     S
C381   N404    1.367   .     A
C381   C440    1.416   .     S
C382   O410    1.281   .     A
C382   O409    1.282   .     A
C383   C385    1.449   .     S
C383   O412    1.291   .     A
C383   O411    1.289   .     A
C384   C905    1.419   1_554 S
C384   C958    1.488   1_554 S
C386   C387    1.391   .     A
C386   H398    1.082   .     S
C387   C928    1.394   .     S
C387   H940    1.083   .     S
C388   H399    1.077   .     S
C388   C902    1.420   1_554 S
C388   C927    1.394   1_554 S
H400   C927    1.083   1_554 S
N403   Zn413   2.010   .     S
N404   Zn414   2.010   .     S
O405   Zn413   1.995   .     S
O406   Zn414   1.994   .     S
O407   Zn413   1.964   .     S
O408   Zn414   1.935   .     S
O409   Zn413   1.994   .     S
O410   Zn414   1.995   .     S
O411   Zn413   1.935   .     S
O412   Zn414   1.964   .     S
N415   H416    1.046   .     S
N415   H417    1.046   .     S
C418   H419    1.083   .     S
C418   C924    1.488   .     S
C418   O480    1.222   .     S
O420   C538    1.222   1_455 S
C421   C437    1.419   .     S
C421   O465    1.281   .     A
C421   O466    1.284   .     A
C422   C423    1.406   .     A
C422   C964    1.422   .     S
C422   C988    1.420   .     S
C423   C430    1.420   .     A
C423   C427    1.412   .     A
C424   C428    1.387   .     A
C424   C962    1.422   1_554 S
C424   C965    1.426   1_554 S
C425   C426    1.396   .     A
C425   C964    1.426   .     S
C425   C984    1.419   .     S
C426   H456    1.081   .     S
C426   C427    1.383   .     A
C427   H461    1.081   .     S
C428   C445    1.390   .     A
C428   H457    1.075   .     S
C429   C445    1.394   .     A
C429   C444    1.400   .     A
C429   H449    1.084   .     S
C430   C446    1.398   .     A
C430   C432    1.473   .     S
C431   H462    1.084   .     S
C431   C437    1.397   .     A
C431   C73     1.370   1_565 S
C432   O468    1.285   .     A
C432   O467    1.304   .     A
C433   H450    1.084   .     S
C433   C434    1.393   .     A
C434   C442    1.412   .     S
C434   C435    1.394   .     A
C435   H451    1.085   .     S
C436   N475    1.434   .     S
C436   C437    1.406   .     A
C436   C75     1.378   1_565 S
C438   N464    1.366   .     A
C438   H452    1.082   .     S
C438   C499    1.417   .     S
C439   N463    1.367   .     A
C439   H453    1.082   .     S
C440   H454    1.082   .     S
C440   N463    1.366   .     A
C441   H455    1.082   .     S
C441   N464    1.367   .     A
C441   C500    1.416   .     S
C442   O470    1.281   .     A
C442   O469    1.282   .     A
C443   C445    1.449   .     S
C443   O472    1.291   .     A
C443   O471    1.289   .     A
C444   C965    1.419   1_554 S
C444   C1018   1.488   1_554 S
C446   C447    1.391   .     A
C446   H458    1.082   .     S
C447   C988    1.394   .     S
C447   H1000   1.083   .     S
C448   H459    1.077   .     S
C448   C962    1.420   1_554 S
C448   C987    1.394   1_554 S
H460   C987    1.083   1_554 S
N463   Zn473   2.010   .     S
N464   Zn474   2.010   .     S
O465   Zn473   1.995   .     S
O466   Zn474   1.994   .     S
O467   Zn473   1.964   .     S
O468   Zn474   1.935   .     S
O469   Zn473   1.994   .     S
O470   Zn474   1.995   .     S
O471   Zn473   1.935   .     S
O472   Zn474   1.964   .     S
N475   H476    1.046   .     S
N475   H477    1.046   .     S
C478   H479    1.083   .     S
C478   C984    1.488   .     S
C478   O540    1.222   .     S
C481   C497    1.419   .     S
C481   O525    1.281   .     A
C481   O526    1.284   .     A
C482   C483    1.406   .     A
C482   C1024   1.422   .     S
C482   C1048   1.420   .     S
C483   C490    1.420   .     A
C483   C487    1.412   .     A
C484   C488    1.387   .     A
C484   C1022   1.422   1_554 S
C484   C1025   1.426   1_554 S
C485   C486    1.396   .     A
C485   C1024   1.426   .     S
C485   C1044   1.419   .     S
C486   H516    1.081   .     S
C486   C487    1.383   .     A
C487   H521    1.081   .     S
C488   C505    1.390   .     A
C488   H517    1.075   .     S
C489   C505    1.394   .     A
C489   C504    1.400   .     A
C489   H509    1.084   .     S
C490   C506    1.398   .     A
C490   C492    1.473   .     S
C491   H522    1.084   .     S
C491   C497    1.397   .     A
C491   C133    1.370   1_565 S
C492   O528    1.285   .     A
C492   O527    1.304   .     A
C493   H510    1.084   .     S
C493   C494    1.393   .     A
C494   C502    1.412   .     S
C494   C495    1.394   .     A
C495   H511    1.085   .     S
C496   N535    1.434   .     S
C496   C497    1.406   .     A
C496   C135    1.378   1_565 S
C498   N524    1.366   .     A
C498   H512    1.082   .     S
C498   C379    1.417   1_655 S
C499   N523    1.367   .     A
C499   H513    1.082   .     S
C500   H514    1.082   .     S
C500   N523    1.366   .     A
C501   H515    1.082   .     S
C501   N524    1.367   .     A
C501   C380    1.416   1_655 S
C502   O530    1.281   .     A
C502   O529    1.282   .     A
C503   C505    1.449   .     S
C503   O532    1.291   .     A
C503   O531    1.289   .     A
C504   C1025   1.419   1_554 S
C504   C1078   1.488   1_554 S
C506   C507    1.391   .     A
C506   H518    1.082   .     S
C507   C1048   1.394   .     S
C507   H1060   1.083   .     S
C508   H519    1.077   .     S
C508   C1022   1.420   1_554 S
C508   C1047   1.394   1_554 S
H520   C1047   1.083   1_554 S
N523   Zn533   2.010   .     S
N524   Zn534   2.010   .     S
O525   Zn533   1.995   .     S
O526   Zn534   1.994   .     S
O527   Zn533   1.964   .     S
O528   Zn534   1.935   .     S
O529   Zn533   1.994   .     S
O530   Zn534   1.995   .     S
O531   Zn533   1.935   .     S
O532   Zn534   1.964   .     S
N535   H536    1.046   .     S
N535   H537    1.046   .     S
C538   H539    1.083   .     S
C538   C1044   1.488   .     S
C538   O420    1.222   1_655 S
C541   C557    1.419   .     S
C541   O585    1.281   .     A
C541   O586    1.284   .     A
C542   C543    1.406   .     A
C542   C4      1.422   1_556 S
C542   C28     1.420   1_556 S
C543   C550    1.420   .     A
C543   C547    1.412   .     A
C544   C548    1.387   .     A
C545   C546    1.396   .     A
C545   C4      1.426   1_556 S
C545   C24     1.419   1_556 S
C546   H576    1.081   .     S
C546   C547    1.383   .     A
C547   H581    1.081   .     S
C548   C565    1.390   .     A
C548   H577    1.075   .     S
C549   C565    1.394   .     A
C549   C564    1.400   .     A
C549   H569    1.084   .     S
C550   C566    1.398   .     A
C550   C552    1.473   .     S
C551   H582    1.084   .     S
C551   C557    1.397   .     A
C551   C733    1.370   .     S
C552   O588    1.285   .     A
C552   O587    1.304   .     A
C553   H570    1.084   .     S
C553   C554    1.393   .     A
C553   C911    1.370   1_545 S
C554   C562    1.412   .     S
C554   C555    1.394   .     A
C555   H571    1.085   .     S
C555   C916    1.378   1_545 S
C556   N595    1.434   .     S
C556   C557    1.406   .     A
C556   C735    1.378   .     S
C558   N584    1.366   .     A
C558   H572    1.082   .     S
C558   C619    1.417   .     S
C559   N583    1.367   .     A
C559   H573    1.082   .     S
C559   C678    1.417   1_455 S
C560   H574    1.082   .     S
C560   N583    1.366   .     A
C560   C681    1.416   1_455 S
C561   H575    1.082   .     S
C561   N584    1.367   .     A
C561   C620    1.416   .     S
C562   O590    1.281   .     A
C562   O589    1.282   .     A
C563   C565    1.449   .     S
C563   O592    1.291   .     A
C563   O591    1.289   .     A
C566   C567    1.391   .     A
C566   H578    1.082   .     S
C567   C28     1.394   1_556 S
C567   H40     1.083   1_556 S
C568   H579    1.077   .     S
N583   Zn593   2.010   .     S
N584   Zn594   2.010   .     S
O585   Zn593   1.995   .     S
O586   Zn594   1.994   .     S
O587   Zn593   1.964   .     S
O588   Zn594   1.935   .     S
O589   Zn593   1.994   .     S
O590   Zn594   1.995   .     S
O591   Zn593   1.935   .     S
O592   Zn594   1.964   .     S
N595   H596    1.046   .     S
N595   H597    1.046   .     S
C598   H599    1.083   .     S
C598   C24     1.488   1_556 S
C598   O660    1.222   .     S
O600   C718    1.222   1_455 S
C601   C617    1.419   .     S
C601   O645    1.281   .     A
C601   O646    1.284   .     A
C602   C603    1.406   .     A
C602   C64     1.422   1_556 S
C602   C88     1.420   1_556 S
C603   C610    1.420   .     A
C603   C607    1.412   .     A
C604   C608    1.387   .     A
C605   C606    1.396   .     A
C605   C64     1.426   1_556 S
C605   C84     1.419   1_556 S
C606   H636    1.081   .     S
C606   C607    1.383   .     A
C607   H641    1.081   .     S
C608   C625    1.390   .     A
C608   H637    1.075   .     S
C609   C625    1.394   .     A
C609   C624    1.400   .     A
C609   H629    1.084   .     S
C610   C626    1.398   .     A
C610   C612    1.473   .     S
C611   H642    1.084   .     S
C611   C617    1.397   .     A
C611   C793    1.370   .     S
C612   O648    1.285   .     A
C612   O647    1.304   .     A
C613   H630    1.084   .     S
C613   C614    1.393   .     A
C613   C971    1.370   1_545 S
C614   C622    1.412   .     S
C614   C615    1.394   .     A
C615   H631    1.085   .     S
C615   C976    1.378   1_545 S
C616   N655    1.434   .     S
C616   C617    1.406   .     A
C616   C795    1.378   .     S
C618   N644    1.366   .     A
C618   H632    1.082   .     S
C618   C679    1.417   .     S
C619   N643    1.367   .     A
C619   H633    1.082   .     S
C620   H634    1.082   .     S
C620   N643    1.366   .     A
C621   H635    1.082   .     S
C621   N644    1.367   .     A
C621   C680    1.416   .     S
C622   O650    1.281   .     A
C622   O649    1.282   .     A
C623   C625    1.449   .     S
C623   O652    1.291   .     A
C623   O651    1.289   .     A
C626   C627    1.391   .     A
C626   H638    1.082   .     S
C627   C88     1.394   1_556 S
C627   H100    1.083   1_556 S
C628   H639    1.077   .     S
N643   Zn653   2.010   .     S
N644   Zn654   2.010   .     S
O645   Zn653   1.995   .     S
O646   Zn654   1.994   .     S
O647   Zn653   1.964   .     S
O648   Zn654   1.935   .     S
O649   Zn653   1.994   .     S
O650   Zn654   1.995   .     S
O651   Zn653   1.935   .     S
O652   Zn654   1.964   .     S
N655   H656    1.046   .     S
N655   H657    1.046   .     S
C658   H659    1.083   .     S
C658   C84     1.488   1_556 S
C658   O720    1.222   .     S
C661   C677    1.419   .     S
C661   O705    1.281   .     A
C661   O706    1.284   .     A
C662   C663    1.406   .     A
C662   C124    1.422   1_556 S
C662   C148    1.420   1_556 S
C663   C670    1.420   .     A
C663   C667    1.412   .     A
C664   C668    1.387   .     A
C665   C666    1.396   .     A
C665   C124    1.426   1_556 S
C665   C144    1.419   1_556 S
C666   H696    1.081   .     S
C666   C667    1.383   .     A
C667   H701    1.081   .     S
C668   C685    1.390   .     A
C668   H697    1.075   .     S
C669   C685    1.394   .     A
C669   C684    1.400   .     A
C669   H689    1.084   .     S
C670   C686    1.398   .     A
C670   C672    1.473   .     S
C671   H702    1.084   .     S
C671   C677    1.397   .     A
C671   C853    1.370   .     S
C672   O708    1.285   .     A
C672   O707    1.304   .     A
C673   H690    1.084   .     S
C673   C674    1.393   .     A
C673   C1031   1.370   1_545 S
C674   C682    1.412   .     S
C674   C675    1.394   .     A
C675   H691    1.085   .     S
C675   C1036   1.378   1_545 S
C676   N715    1.434   .     S
C676   C677    1.406   .     A
C676   C855    1.378   .     S
C678   N704    1.366   .     A
C678   H692    1.082   .     S
C678   C559    1.417   1_655 S
C679   N703    1.367   .     A
C679   H693    1.082   .     S
C680   H694    1.082   .     S
C680   N703    1.366   .     A
C681   H695    1.082   .     S
C681   N704    1.367   .     A
C681   C560    1.416   1_655 S
C682   O710    1.281   .     A
C682   O709    1.282   .     A
C683   C685    1.449   .     S
C683   O712    1.291   .     A
C683   O711    1.289   .     A
C686   C687    1.391   .     A
C686   H698    1.082   .     S
C687   C148    1.394   1_556 S
C687   H160    1.083   1_556 S
C688   H699    1.077   .     S
N703   Zn713   2.010   .     S
N704   Zn714   2.010   .     S
O705   Zn713   1.995   .     S
O706   Zn714   1.994   .     S
O707   Zn713   1.964   .     S
O708   Zn714   1.935   .     S
O709   Zn713   1.994   .     S
O710   Zn714   1.995   .     S
O711   Zn713   1.935   .     S
O712   Zn714   1.964   .     S
N715   H716    1.046   .     S
N715   H717    1.046   .     S
C718   H719    1.083   .     S
C718   C144    1.488   1_556 S
C718   O600    1.222   1_655 S
C721   C737    1.419   .     S
C721   O765    1.281   .     A
C721   O766    1.284   .     A
C722   C723    1.406   .     A
C722   C184    1.422   1_556 S
C722   C208    1.420   1_556 S
C723   C730    1.420   .     A
C723   C727    1.412   .     A
C724   C728    1.387   .     A
C725   C726    1.396   .     A
C725   C184    1.426   1_556 S
C725   C204    1.419   1_556 S
C726   H756    1.081   .     S
C726   C727    1.383   .     A
C727   H761    1.081   .     S
C728   C745    1.390   .     A
C728   H757    1.075   .     S
C729   C745    1.394   .     A
C729   C744    1.400   .     A
C729   H749    1.084   .     S
C730   C746    1.398   .     A
C730   C732    1.473   .     S
C731   H762    1.084   .     S
C731   C737    1.397   .     A
C731   C913    1.370   .     S
C732   O768    1.285   .     A
C732   O767    1.304   .     A
C733   H750    1.084   .     S
C733   C734    1.393   .     A
C734   C742    1.412   .     S
C734   C735    1.394   .     A
C735   H751    1.085   .     S
C736   N775    1.434   .     S
C736   C737    1.406   .     A
C736   C915    1.378   .     S
C738   N764    1.366   .     A
C738   H752    1.082   .     S
C738   C799    1.417   .     S
C739   N763    1.367   .     A
C739   H753    1.082   .     S
C739   C858    1.417   1_455 S
C740   H754    1.082   .     S
C740   N763    1.366   .     A
C740   C861    1.416   1_455 S
C741   H755    1.082   .     S
C741   N764    1.367   .     A
C741   C800    1.416   .     S
C742   O770    1.281   .     A
C742   O769    1.282   .     A
C743   C745    1.449   .     S
C743   O772    1.291   .     A
C743   O771    1.289   .     A
C746   C747    1.391   .     A
C746   H758    1.082   .     S
C747   C208    1.394   1_556 S
C747   H220    1.083   1_556 S
C748   H759    1.077   .     S
N763   Zn773   2.010   .     S
N764   Zn774   2.010   .     S
O765   Zn773   1.995   .     S
O766   Zn774   1.994   .     S
O767   Zn773   1.964   .     S
O768   Zn774   1.935   .     S
O769   Zn773   1.994   .     S
O770   Zn774   1.995   .     S
O771   Zn773   1.935   .     S
O772   Zn774   1.964   .     S
N775   H776    1.046   .     S
N775   H777    1.046   .     S
C778   H779    1.083   .     S
C778   C204    1.488   1_556 S
C778   O840    1.222   .     S
O780   C898    1.222   1_455 S
C781   C797    1.419   .     S
C781   O825    1.281   .     A
C781   O826    1.284   .     A
C782   C783    1.406   .     A
C782   C244    1.422   1_556 S
C782   C268    1.420   1_556 S
C783   C790    1.420   .     A
C783   C787    1.412   .     A
C784   C788    1.387   .     A
C785   C786    1.396   .     A
C785   C244    1.426   1_556 S
C785   C264    1.419   1_556 S
C786   H816    1.081   .     S
C786   C787    1.383   .     A
C787   H821    1.081   .     S
C788   C805    1.390   .     A
C788   H817    1.075   .     S
C789   C805    1.394   .     A
C789   C804    1.400   .     A
C789   H809    1.084   .     S
C790   C806    1.398   .     A
C790   C792    1.473   .     S
C791   H822    1.084   .     S
C791   C797    1.397   .     A
C791   C973    1.370   .     S
C792   O828    1.285   .     A
C792   O827    1.304   .     A
C793   H810    1.084   .     S
C793   C794    1.393   .     A
C794   C802    1.412   .     S
C794   C795    1.394   .     A
C795   H811    1.085   .     S
C796   N835    1.434   .     S
C796   C797    1.406   .     A
C796   C975    1.378   .     S
C798   N824    1.366   .     A
C798   H812    1.082   .     S
C798   C859    1.417   .     S
C799   N823    1.367   .     A
C799   H813    1.082   .     S
C800   H814    1.082   .     S
C800   N823    1.366   .     A
C801   H815    1.082   .     S
C801   N824    1.367   .     A
C801   C860    1.416   .     S
C802   O830    1.281   .     A
C802   O829    1.282   .     A
C803   C805    1.449   .     S
C803   O832    1.291   .     A
C803   O831    1.289   .     A
C806   C807    1.391   .     A
C806   H818    1.082   .     S
C807   C268    1.394   1_556 S
C807   H280    1.083   1_556 S
C808   H819    1.077   .     S
N823   Zn833   2.010   .     S
N824   Zn834   2.010   .     S
O825   Zn833   1.995   .     S
O826   Zn834   1.994   .     S
O827   Zn833   1.964   .     S
O828   Zn834   1.935   .     S
O829   Zn833   1.994   .     S
O830   Zn834   1.995   .     S
O831   Zn833   1.935   .     S
O832   Zn834   1.964   .     S
N835   H836    1.046   .     S
N835   H837    1.046   .     S
C838   H839    1.083   .     S
C838   C264    1.488   1_556 S
C838   O900    1.222   .     S
C841   C857    1.419   .     S
C841   O885    1.281   .     A
C841   O886    1.284   .     A
C842   C843    1.406   .     A
C842   C304    1.422   1_556 S
C842   C328    1.420   1_556 S
C843   C850    1.420   .     A
C843   C847    1.412   .     A
C844   C848    1.387   .     A
C845   C846    1.396   .     A
C845   C304    1.426   1_556 S
C845   C324    1.419   1_556 S
C846   H876    1.081   .     S
C846   C847    1.383   .     A
C847   H881    1.081   .     S
C848   C865    1.390   .     A
C848   H877    1.075   .     S
C849   C865    1.394   .     A
C849   C864    1.400   .     A
C849   H869    1.084   .     S
C850   C866    1.398   .     A
C850   C852    1.473   .     S
C851   H882    1.084   .     S
C851   C857    1.397   .     A
C851   C1033   1.370   .     S
C852   O888    1.285   .     A
C852   O887    1.304   .     A
C853   H870    1.084   .     S
C853   C854    1.393   .     A
C854   C862    1.412   .     S
C854   C855    1.394   .     A
C855   H871    1.085   .     S
C856   N895    1.434   .     S
C856   C857    1.406   .     A
C856   C1035   1.378   .     S
C858   N884    1.366   .     A
C858   H872    1.082   .     S
C858   C739    1.417   1_655 S
C859   N883    1.367   .     A
C859   H873    1.082   .     S
C860   H874    1.082   .     S
C860   N883    1.366   .     A
C861   H875    1.082   .     S
C861   N884    1.367   .     A
C861   C740    1.416   1_655 S
C862   O890    1.281   .     A
C862   O889    1.282   .     A
C863   C865    1.449   .     S
C863   O892    1.291   .     A
C863   O891    1.289   .     A
C866   C867    1.391   .     A
C866   H878    1.082   .     S
C867   C328    1.394   1_556 S
C867   H340    1.083   1_556 S
C868   H879    1.077   .     S
N883   Zn893   2.010   .     S
N884   Zn894   2.010   .     S
O885   Zn893   1.995   .     S
O886   Zn894   1.994   .     S
O887   Zn893   1.964   .     S
O888   Zn894   1.935   .     S
O889   Zn893   1.994   .     S
O890   Zn894   1.995   .     S
O891   Zn893   1.935   .     S
O892   Zn894   1.964   .     S
N895   H896    1.046   .     S
N895   H897    1.046   .     S
C898   H899    1.083   .     S
C898   C324    1.488   1_556 S
C898   O780    1.222   1_655 S
C901   C917    1.419   .     S
C901   O945    1.281   .     A
C901   O946    1.284   .     A
C902   C903    1.406   .     A
C902   C364    1.422   1_556 S
C902   C388    1.420   1_556 S
C903   C910    1.420   .     A
C903   C907    1.412   .     A
C904   C908    1.387   .     A
C905   C906    1.396   .     A
C905   C364    1.426   1_556 S
C905   C384    1.419   1_556 S
C906   H936    1.081   .     S
C906   C907    1.383   .     A
C907   H941    1.081   .     S
C908   C925    1.390   .     A
C908   H937    1.075   .     S
C909   C925    1.394   .     A
C909   C924    1.400   .     A
C909   H929    1.084   .     S
C910   C926    1.398   .     A
C910   C912    1.473   .     S
C911   H942    1.084   .     S
C911   C917    1.397   .     A
C911   C553    1.370   1_565 S
C912   O948    1.285   .     A
C912   O947    1.304   .     A
C913   H930    1.084   .     S
C913   C914    1.393   .     A
C914   C922    1.412   .     S
C914   C915    1.394   .     A
C915   H931    1.085   .     S
C916   N955    1.434   .     S
C916   C917    1.406   .     A
C916   C555    1.378   1_565 S
C918   N944    1.366   .     A
C918   H932    1.082   .     S
C918   C979    1.417   .     S
C919   N943    1.367   .     A
C919   H933    1.082   .     S
C919   C1038   1.417   1_455 S
C920   H934    1.082   .     S
C920   N943    1.366   .     A
C920   C1041   1.416   1_455 S
C921   H935    1.082   .     S
C921   N944    1.367   .     A
C921   C980    1.416   .     S
C922   O950    1.281   .     A
C922   O949    1.282   .     A
C923   C925    1.449   .     S
C923   O952    1.291   .     A
C923   O951    1.289   .     A
C926   C927    1.391   .     A
C926   H938    1.082   .     S
C927   C388    1.394   1_556 S
C927   H400    1.083   1_556 S
C928   H939    1.077   .     S
N943   Zn953   2.010   .     S
N944   Zn954   2.010   .     S
O945   Zn953   1.995   .     S
O946   Zn954   1.994   .     S
O947   Zn953   1.964   .     S
O948   Zn954   1.935   .     S
O949   Zn953   1.994   .     S
O950   Zn954   1.995   .     S
O951   Zn953   1.935   .     S
O952   Zn954   1.964   .     S
N955   H956    1.046   .     S
N955   H957    1.046   .     S
C958   H959    1.083   .     S
C958   C384    1.488   1_556 S
C958   O1020   1.222   .     S
O960   C1078   1.222   1_455 S
C961   C977    1.419   .     S
C961   O1005   1.281   .     A
C961   O1006   1.284   .     A
C962   C963    1.406   .     A
C962   C424    1.422   1_556 S
C962   C448    1.420   1_556 S
C963   C970    1.420   .     A
C963   C967    1.412   .     A
C964   C968    1.387   .     A
C965   C966    1.396   .     A
C965   C424    1.426   1_556 S
C965   C444    1.419   1_556 S
C966   H996    1.081   .     S
C966   C967    1.383   .     A
C967   H1001   1.081   .     S
C968   C985    1.390   .     A
C968   H997    1.075   .     S
C969   C985    1.394   .     A
C969   C984    1.400   .     A
C969   H989    1.084   .     S
C970   C986    1.398   .     A
C970   C972    1.473   .     S
C971   H1002   1.084   .     S
C971   C977    1.397   .     A
C971   C613    1.370   1_565 S
C972   O1008   1.285   .     A
C972   O1007   1.304   .     A
C973   H990    1.084   .     S
C973   C974    1.393   .     A
C974   C982    1.412   .     S
C974   C975    1.394   .     A
C975   H991    1.085   .     S
C976   N1015   1.434   .     S
C976   C977    1.406   .     A
C976   C615    1.378   1_565 S
C978   N1004   1.366   .     A
C978   H992    1.082   .     S
C978   C1039   1.417   .     S
C979   N1003   1.367   .     A
C979   H993    1.082   .     S
C980   H994    1.082   .     S
C980   N1003   1.366   .     A
C981   H995    1.082   .     S
C981   N1004   1.367   .     A
C981   C1040   1.416   .     S
C982   O1010   1.281   .     A
C982   O1009   1.282   .     A
C983   C985    1.449   .     S
C983   O1012   1.291   .     A
C983   O1011   1.289   .     A
C986   C987    1.391   .     A
C986   H998    1.082   .     S
C987   C448    1.394   1_556 S
C987   H460    1.083   1_556 S
C988   H999    1.077   .     S
N1003  Zn1013  2.010   .     S
N1004  Zn1014  2.010   .     S
O1005  Zn1013  1.995   .     S
O1006  Zn1014  1.994   .     S
O1007  Zn1013  1.964   .     S
O1008  Zn1014  1.935   .     S
O1009  Zn1013  1.994   .     S
O1010  Zn1014  1.995   .     S
O1011  Zn1013  1.935   .     S
O1012  Zn1014  1.964   .     S
N1015  H1016   1.046   .     S
N1015  H1017   1.046   .     S
C1018  H1019   1.083   .     S
C1018  C444    1.488   1_556 S
C1018  O1080   1.222   .     S
C1021  C1037   1.419   .     S
C1021  O1065   1.281   .     A
C1021  O1066   1.284   .     A
C1022  C1023   1.406   .     A
C1022  C484    1.422   1_556 S
C1022  C508    1.420   1_556 S
C1023  C1030   1.420   .     A
C1023  C1027   1.412   .     A
C1024  C1028   1.387   .     A
C1025  C1026   1.396   .     A
C1025  C484    1.426   1_556 S
C1025  C504    1.419   1_556 S
C1026  H1056   1.081   .     S
C1026  C1027   1.383   .     A
C1027  H1061   1.081   .     S
C1028  C1045   1.390   .     A
C1028  H1057   1.075   .     S
C1029  C1045   1.394   .     A
C1029  C1044   1.400   .     A
C1029  H1049   1.084   .     S
C1030  C1046   1.398   .     A
C1030  C1032   1.473   .     S
C1031  H1062   1.084   .     S
C1031  C1037   1.397   .     A
C1031  C673    1.370   1_565 S
C1032  O1068   1.285   .     A
C1032  O1067   1.304   .     A
C1033  H1050   1.084   .     S
C1033  C1034   1.393   .     A
C1034  C1042   1.412   .     S
C1034  C1035   1.394   .     A
C1035  H1051   1.085   .     S
C1036  N1075   1.434   .     S
C1036  C1037   1.406   .     A
C1036  C675    1.378   1_565 S
C1038  N1064   1.366   .     A
C1038  H1052   1.082   .     S
C1038  C919    1.417   1_655 S
C1039  N1063   1.367   .     A
C1039  H1053   1.082   .     S
C1040  H1054   1.082   .     S
C1040  N1063   1.366   .     A
C1041  H1055   1.082   .     S
C1041  N1064   1.367   .     A
C1041  C920    1.416   1_655 S
C1042  O1070   1.281   .     A
C1042  O1069   1.282   .     A
C1043  C1045   1.449   .     S
C1043  O1072   1.291   .     A
C1043  O1071   1.289   .     A
C1046  C1047   1.391   .     A
C1046  H1058   1.082   .     S
C1047  C508    1.394   1_556 S
C1047  H520    1.083   1_556 S
C1048  H1059   1.077   .     S
N1063  Zn1073  2.010   .     S
N1064  Zn1074  2.010   .     S
O1065  Zn1073  1.995   .     S
O1066  Zn1074  1.994   .     S
O1067  Zn1073  1.964   .     S
O1068  Zn1074  1.935   .     S
O1069  Zn1073  1.994   .     S
O1070  Zn1074  1.995   .     S
O1071  Zn1073  1.935   .     S
O1072  Zn1074  1.964   .     S
N1075  H1076   1.046   .     S
N1075  H1077   1.046   .     S
C1078  H1079   1.083   .     S
C1078  C504    1.488   1_556 S
C1078  O960    1.222   1_655 S
