data_str_m2_o1_o16_pcu_sym.222
_audit_creation_date              2020-01-03
_audit_creation_method            'Materials Studio'
_symmetry_space_group_name_H-M    'P1'
_symmetry_Int_Tables_number       1
_symmetry_cell_setting            triclinic
loop_
_symmetry_equiv_pos_as_xyz
  x,y,z
_cell_length_a                    28.5602
_cell_length_b                    32.4938
_cell_length_c                    27.0582
_cell_angle_alpha                 90.2458
_cell_angle_beta                  73.2648
_cell_angle_gamma                 89.9948
loop_
_atom_site_label
_atom_site_type_symbol
_atom_site_fract_x
_atom_site_fract_y
_atom_site_fract_z
_atom_site_U_iso_or_equiv
_atom_site_adp_type
_atom_site_occupancy
C1     C     0.16670   0.24597   0.24994   0.00000  Uiso   1.00
C2     C     0.14888   0.17245   0.48696   0.00000  Uiso   1.00
C3     C     0.15880   0.15810   0.43538   0.00000  Uiso   1.00
C4     C     0.18348   0.16489   0.01436   0.00000  Uiso   1.00
C5     C     0.23019   0.14942   0.48775   0.00000  Uiso   1.00
C6     C     0.23850   0.13336   0.43818   0.00000  Uiso   1.00
C7     C     0.20188   0.13501   0.41385   0.00000  Uiso   1.00
C8     C     0.17263   0.17112   0.06768   0.00000  Uiso   1.00
C9     C     0.25833   0.16175   0.06314   0.00000  Uiso   1.00
C10    C     0.12630   0.16861   0.40629   0.00000  Uiso   1.00
C11    C     0.20956   0.31203   0.24880   0.00000  Uiso   1.00
C12    C     0.14085   0.16533   0.34980   0.00000  Uiso   1.00
C13    C     0.20955   0.02128   0.24880   0.00000  Uiso   1.00
C14    C     0.16674   0.04274   0.24975   0.00000  Uiso   1.00
C15    C     0.12398   0.02128   0.25058   0.00000  Uiso   1.00
C16    C     0.12397   0.31204   0.25061   0.00000  Uiso   1.00
C17    C     0.16674   0.29058   0.24978   0.00000  Uiso   1.00
C18    C     0.30037   0.19392   0.27994   0.00000  Uiso   1.00
C19    C     0.01664   0.19388   0.27997   0.00000  Uiso   1.00
C20    C     0.03289   0.13924   0.22032   0.00000  Uiso   1.00
C21    C     0.31655   0.13906   0.22062   0.00000  Uiso   1.00
C22    C     0.16669   0.08736   0.24989   0.00000  Uiso   1.00
C23    C     0.19292   0.16767   0.14999   0.00000  Uiso   1.00
C24    C     0.26781   0.14997   0.01130   0.00000  Uiso   1.00
C25    C     0.20880   0.16737   0.09299   0.00000  Uiso   1.00
C26    C     0.08308   0.19010   0.42989   0.00000  Uiso   1.00
C27    C     0.07408   0.20468   0.47985   0.00000  Uiso   1.00
C28    C     0.10673   0.19664   0.00801   0.00000  Uiso   1.00
Cu29   Cu    0.11978   0.16666   0.25000   0.00000  Uiso   1.00
Cu30   Cu    0.21355   0.16667   0.25000   0.00000  Uiso   1.00
H31    H     0.24301   0.03729   0.24806   0.00000  Uiso   1.00
H32    H     0.09052   0.03730   0.25128   0.00000  Uiso   1.00
H33    H     0.09051   0.29603   0.25135   0.00000  Uiso   1.00
H34    H     0.27516   0.21577   0.30390   0.00000  Uiso   1.00
H35    H     0.02879   0.21567   0.30399   0.00000  Uiso   1.00
H36    H     0.05806   0.11732   0.19645   0.00000  Uiso   1.00
H37    H     0.30427   0.11687   0.19718   0.00000  Uiso   1.00
H38    H     0.27295   0.11860   0.41867   0.00000  Uiso   1.00
H39    H     0.30468   0.14181   0.48895   0.00000  Uiso   1.00
H40    H     0.13543   0.17707   0.09036   0.00000  Uiso   1.00
H41    H     0.05812   0.19889   0.40826   0.00000  Uiso   1.00
H42    H     0.09994   0.21176   0.04490   0.00000  Uiso   1.00
H43    H     0.04292   0.22432   0.49556   0.00000  Uiso   1.00
H44    H     0.20861   0.11890   0.37748   0.00000  Uiso   1.00
H45    H     0.24303   0.29601   0.24804   0.00000  Uiso   1.00
N46    N     0.04931   0.16666   0.24998   0.00000  Uiso   1.00
N47    N     0.28402   0.16669   0.24999   0.00000  Uiso   1.00
O48    O     0.12708   0.22678   0.25000   0.00000  Uiso   1.00
O49    O     0.20627   0.22679   0.25000   0.00000  Uiso   1.00
O50    O     0.10775   0.16665   0.32549   0.00000  Uiso   1.00
O51    O     0.18694   0.16666   0.32549   0.00000  Uiso   1.00
O52    O     0.12706   0.10654   0.24999   0.00000  Uiso   1.00
O53    O     0.20625   0.10655   0.24999   0.00000  Uiso   1.00
O54    O     0.14640   0.16667   0.17451   0.00000  Uiso   1.00
O55    O     0.22559   0.16668   0.17451   0.00000  Uiso   1.00
C56    C     0.30148   0.16909   0.08420   0.00000  Uiso   1.00
C57    C     0.30388   0.21465   0.09966   0.00000  Uiso   1.00
C58    C     0.00728   0.22162   0.13022   0.00000  Uiso   1.00
H59    H     0.32235   0.21750   0.17191   0.00000  Uiso   1.00
H60    H     0.03839   0.19978   0.11844   0.00000  Uiso   1.00
H61    H     0.02149   0.25358   0.12441   0.00000  Uiso   1.00
H62    H     0.31386   0.23386   0.06448   0.00000  Uiso   1.00
H63    H     0.26772   0.22623   0.12314   0.00000  Uiso   1.00
H64    H     0.30014   0.14794   0.11654   0.00000  Uiso   1.00
H65    H     0.00299   0.16137   0.05462   0.00000  Uiso   1.00
C66    C     0.50003   0.24597   0.24994   0.00000  Uiso   1.00
C67    C     0.48221   0.17245   0.48696   0.00000  Uiso   1.00
C68    C     0.49213   0.15810   0.43538   0.00000  Uiso   1.00
C69    C     0.51681   0.16489   0.01436   0.00000  Uiso   1.00
C70    C     0.56352   0.14942   0.48775   0.00000  Uiso   1.00
C71    C     0.57183   0.13336   0.43818   0.00000  Uiso   1.00
C72    C     0.53522   0.13501   0.41385   0.00000  Uiso   1.00
C73    C     0.50596   0.17112   0.06768   0.00000  Uiso   1.00
C74    C     0.59166   0.16175   0.06314   0.00000  Uiso   1.00
C75    C     0.45963   0.16861   0.40629   0.00000  Uiso   1.00
C76    C     0.54289   0.31203   0.24880   0.00000  Uiso   1.00
C77    C     0.47418   0.16533   0.34980   0.00000  Uiso   1.00
C78    C     0.54289   0.02128   0.24880   0.00000  Uiso   1.00
C79    C     0.50008   0.04274   0.24975   0.00000  Uiso   1.00
C80    C     0.45731   0.02128   0.25058   0.00000  Uiso   1.00
C81    C     0.45730   0.31204   0.25061   0.00000  Uiso   1.00
C82    C     0.50008   0.29058   0.24978   0.00000  Uiso   1.00
C83    C     0.63370   0.19392   0.27994   0.00000  Uiso   1.00
C84    C     0.34997   0.19388   0.27997   0.00000  Uiso   1.00
C85    C     0.36622   0.13924   0.22032   0.00000  Uiso   1.00
C86    C     0.64988   0.13906   0.22062   0.00000  Uiso   1.00
C87    C     0.50002   0.08736   0.24989   0.00000  Uiso   1.00
C88    C     0.52626   0.16767   0.14999   0.00000  Uiso   1.00
C89    C     0.60114   0.14997   0.01130   0.00000  Uiso   1.00
C90    C     0.54214   0.16737   0.09299   0.00000  Uiso   1.00
C91    C     0.41642   0.19010   0.42989   0.00000  Uiso   1.00
C92    C     0.40742   0.20468   0.47985   0.00000  Uiso   1.00
C93    C     0.44006   0.19664   0.00801   0.00000  Uiso   1.00
Cu94   Cu    0.45311   0.16666   0.25000   0.00000  Uiso   1.00
Cu95   Cu    0.54689   0.16667   0.25000   0.00000  Uiso   1.00
H96    H     0.57635   0.03729   0.24806   0.00000  Uiso   1.00
H97    H     0.42385   0.03730   0.25128   0.00000  Uiso   1.00
H98    H     0.42384   0.29603   0.25135   0.00000  Uiso   1.00
H99    H     0.60849   0.21577   0.30390   0.00000  Uiso   1.00
H100   H     0.36212   0.21567   0.30399   0.00000  Uiso   1.00
H101   H     0.39140   0.11732   0.19645   0.00000  Uiso   1.00
H102   H     0.63761   0.11687   0.19718   0.00000  Uiso   1.00
H103   H     0.60628   0.11860   0.41867   0.00000  Uiso   1.00
H104   H     0.63801   0.14181   0.48895   0.00000  Uiso   1.00
H105   H     0.46876   0.17707   0.09036   0.00000  Uiso   1.00
H106   H     0.39145   0.19889   0.40826   0.00000  Uiso   1.00
H107   H     0.43327   0.21176   0.04490   0.00000  Uiso   1.00
H108   H     0.37625   0.22432   0.49556   0.00000  Uiso   1.00
H109   H     0.54195   0.11890   0.37748   0.00000  Uiso   1.00
H110   H     0.57636   0.29601   0.24804   0.00000  Uiso   1.00
N111   N     0.38265   0.16666   0.24998   0.00000  Uiso   1.00
N112   N     0.61735   0.16669   0.24999   0.00000  Uiso   1.00
O113   O     0.46042   0.22678   0.25000   0.00000  Uiso   1.00
O114   O     0.53961   0.22679   0.25000   0.00000  Uiso   1.00
O115   O     0.44108   0.16665   0.32549   0.00000  Uiso   1.00
O116   O     0.52027   0.16666   0.32549   0.00000  Uiso   1.00
O117   O     0.46039   0.10654   0.24999   0.00000  Uiso   1.00
O118   O     0.53958   0.10655   0.24999   0.00000  Uiso   1.00
O119   O     0.47973   0.16667   0.17451   0.00000  Uiso   1.00
O120   O     0.55892   0.16668   0.17451   0.00000  Uiso   1.00
C121   C     0.63481   0.16909   0.08420   0.00000  Uiso   1.00
C122   C     0.63721   0.21465   0.09966   0.00000  Uiso   1.00
C123   C     0.34061   0.22162   0.13022   0.00000  Uiso   1.00
H124   H     0.65568   0.21750   0.17191   0.00000  Uiso   1.00
H125   H     0.37172   0.19978   0.11844   0.00000  Uiso   1.00
H126   H     0.35483   0.25358   0.12441   0.00000  Uiso   1.00
H127   H     0.64720   0.23386   0.06448   0.00000  Uiso   1.00
H128   H     0.60106   0.22623   0.12314   0.00000  Uiso   1.00
H129   H     0.63347   0.14794   0.11654   0.00000  Uiso   1.00
H130   H     0.33632   0.16137   0.05462   0.00000  Uiso   1.00
C131   C     0.83336   0.24597   0.24994   0.00000  Uiso   1.00
C132   C     0.81555   0.17245   0.48696   0.00000  Uiso   1.00
C133   C     0.82546   0.15810   0.43538   0.00000  Uiso   1.00
C134   C     0.85015   0.16489   0.01436   0.00000  Uiso   1.00
C135   C     0.89685   0.14942   0.48775   0.00000  Uiso   1.00
C136   C     0.90517   0.13336   0.43818   0.00000  Uiso   1.00
C137   C     0.86855   0.13501   0.41385   0.00000  Uiso   1.00
C138   C     0.83929   0.17112   0.06768   0.00000  Uiso   1.00
C139   C     0.92500   0.16175   0.06314   0.00000  Uiso   1.00
C140   C     0.79296   0.16861   0.40629   0.00000  Uiso   1.00
C141   C     0.87622   0.31203   0.24880   0.00000  Uiso   1.00
C142   C     0.80752   0.16533   0.34980   0.00000  Uiso   1.00
C143   C     0.87622   0.02128   0.24880   0.00000  Uiso   1.00
C144   C     0.83341   0.04274   0.24975   0.00000  Uiso   1.00
C145   C     0.79064   0.02128   0.25058   0.00000  Uiso   1.00
C146   C     0.79064   0.31204   0.25061   0.00000  Uiso   1.00
C147   C     0.83341   0.29058   0.24978   0.00000  Uiso   1.00
C148   C     0.96704   0.19392   0.27994   0.00000  Uiso   1.00
C149   C     0.68330   0.19388   0.27997   0.00000  Uiso   1.00
C150   C     0.69955   0.13924   0.22032   0.00000  Uiso   1.00
C151   C     0.98321   0.13906   0.22062   0.00000  Uiso   1.00
C152   C     0.83336   0.08736   0.24989   0.00000  Uiso   1.00
C153   C     0.85959   0.16767   0.14999   0.00000  Uiso   1.00
C154   C     0.93448   0.14997   0.01130   0.00000  Uiso   1.00
C155   C     0.87547   0.16737   0.09299   0.00000  Uiso   1.00
C156   C     0.74975   0.19010   0.42989   0.00000  Uiso   1.00
C157   C     0.74075   0.20468   0.47985   0.00000  Uiso   1.00
C158   C     0.77339   0.19664   0.00801   0.00000  Uiso   1.00
Cu159  Cu    0.78645   0.16666   0.25000   0.00000  Uiso   1.00
Cu160  Cu    0.88022   0.16667   0.25000   0.00000  Uiso   1.00
H161   H     0.90968   0.03729   0.24806   0.00000  Uiso   1.00
H162   H     0.75719   0.03730   0.25128   0.00000  Uiso   1.00
H163   H     0.75717   0.29603   0.25135   0.00000  Uiso   1.00
H164   H     0.94183   0.21577   0.30390   0.00000  Uiso   1.00
H165   H     0.69545   0.21567   0.30399   0.00000  Uiso   1.00
H166   H     0.72473   0.11732   0.19645   0.00000  Uiso   1.00
H167   H     0.97094   0.11687   0.19718   0.00000  Uiso   1.00
H168   H     0.93961   0.11860   0.41867   0.00000  Uiso   1.00
H169   H     0.97134   0.14181   0.48895   0.00000  Uiso   1.00
H170   H     0.80209   0.17707   0.09036   0.00000  Uiso   1.00
H171   H     0.72478   0.19889   0.40826   0.00000  Uiso   1.00
H172   H     0.76660   0.21176   0.04490   0.00000  Uiso   1.00
H173   H     0.70959   0.22432   0.49556   0.00000  Uiso   1.00
H174   H     0.87528   0.11890   0.37748   0.00000  Uiso   1.00
H175   H     0.90969   0.29601   0.24804   0.00000  Uiso   1.00
N176   N     0.71598   0.16666   0.24998   0.00000  Uiso   1.00
N177   N     0.95069   0.16669   0.24999   0.00000  Uiso   1.00
O178   O     0.79375   0.22678   0.25000   0.00000  Uiso   1.00
O179   O     0.87294   0.22679   0.25000   0.00000  Uiso   1.00
O180   O     0.77441   0.16665   0.32549   0.00000  Uiso   1.00
O181   O     0.85360   0.16666   0.32549   0.00000  Uiso   1.00
O182   O     0.79373   0.10654   0.24999   0.00000  Uiso   1.00
O183   O     0.87292   0.10655   0.24999   0.00000  Uiso   1.00
O184   O     0.81306   0.16667   0.17451   0.00000  Uiso   1.00
O185   O     0.89225   0.16668   0.17451   0.00000  Uiso   1.00
C186   C     0.96814   0.16909   0.08420   0.00000  Uiso   1.00
C187   C     0.97054   0.21465   0.09966   0.00000  Uiso   1.00
C188   C     0.67395   0.22162   0.13022   0.00000  Uiso   1.00
H189   H     0.98901   0.21750   0.17191   0.00000  Uiso   1.00
H190   H     0.70505   0.19978   0.11844   0.00000  Uiso   1.00
H191   H     0.68816   0.25358   0.12441   0.00000  Uiso   1.00
H192   H     0.98053   0.23386   0.06448   0.00000  Uiso   1.00
H193   H     0.93439   0.22623   0.12314   0.00000  Uiso   1.00
H194   H     0.96680   0.14794   0.11654   0.00000  Uiso   1.00
H195   H     0.66966   0.16137   0.05462   0.00000  Uiso   1.00
C196   C     0.16670   0.57930   0.24994   0.00000  Uiso   1.00
C197   C     0.14888   0.50578   0.48696   0.00000  Uiso   1.00
C198   C     0.15880   0.49143   0.43538   0.00000  Uiso   1.00
C199   C     0.18348   0.49823   0.01436   0.00000  Uiso   1.00
C200   C     0.23019   0.48275   0.48775   0.00000  Uiso   1.00
C201   C     0.23850   0.46669   0.43818   0.00000  Uiso   1.00
C202   C     0.20188   0.46835   0.41385   0.00000  Uiso   1.00
C203   C     0.17263   0.50445   0.06768   0.00000  Uiso   1.00
C204   C     0.25833   0.49508   0.06314   0.00000  Uiso   1.00
C205   C     0.12630   0.50194   0.40629   0.00000  Uiso   1.00
C206   C     0.20956   0.64537   0.24880   0.00000  Uiso   1.00
C207   C     0.14085   0.49867   0.34980   0.00000  Uiso   1.00
C208   C     0.20955   0.35461   0.24880   0.00000  Uiso   1.00
C209   C     0.16674   0.37607   0.24975   0.00000  Uiso   1.00
C210   C     0.12398   0.35462   0.25058   0.00000  Uiso   1.00
C211   C     0.12397   0.64538   0.25061   0.00000  Uiso   1.00
C212   C     0.16674   0.62392   0.24978   0.00000  Uiso   1.00
C213   C     0.30037   0.52725   0.27994   0.00000  Uiso   1.00
C214   C     0.01664   0.52721   0.27997   0.00000  Uiso   1.00
C215   C     0.03289   0.47257   0.22032   0.00000  Uiso   1.00
C216   C     0.31655   0.47239   0.22062   0.00000  Uiso   1.00
C217   C     0.16669   0.42069   0.24989   0.00000  Uiso   1.00
C218   C     0.19292   0.50100   0.14999   0.00000  Uiso   1.00
C219   C     0.26781   0.48331   0.01130   0.00000  Uiso   1.00
C220   C     0.20880   0.50070   0.09299   0.00000  Uiso   1.00
C221   C     0.08308   0.52344   0.42989   0.00000  Uiso   1.00
C222   C     0.07408   0.53801   0.47985   0.00000  Uiso   1.00
C223   C     0.10673   0.52997   0.00801   0.00000  Uiso   1.00
Cu224  Cu    0.11978   0.49999   0.25000   0.00000  Uiso   1.00
Cu225  Cu    0.21355   0.50001   0.25000   0.00000  Uiso   1.00
H226   H     0.24301   0.37062   0.24806   0.00000  Uiso   1.00
H227   H     0.09052   0.37063   0.25128   0.00000  Uiso   1.00
H228   H     0.09051   0.62937   0.25135   0.00000  Uiso   1.00
H229   H     0.27516   0.54910   0.30390   0.00000  Uiso   1.00
H230   H     0.02879   0.54900   0.30399   0.00000  Uiso   1.00
H231   H     0.05806   0.45066   0.19645   0.00000  Uiso   1.00
H232   H     0.30427   0.45021   0.19718   0.00000  Uiso   1.00
H233   H     0.27295   0.45193   0.41867   0.00000  Uiso   1.00
H234   H     0.30468   0.47514   0.48895   0.00000  Uiso   1.00
H235   H     0.13543   0.51040   0.09036   0.00000  Uiso   1.00
H236   H     0.05812   0.53223   0.40826   0.00000  Uiso   1.00
H237   H     0.09994   0.54510   0.04490   0.00000  Uiso   1.00
H238   H     0.04292   0.55765   0.49556   0.00000  Uiso   1.00
H239   H     0.20861   0.45223   0.37748   0.00000  Uiso   1.00
H240   H     0.24303   0.62934   0.24804   0.00000  Uiso   1.00
N241   N     0.04931   0.49999   0.24998   0.00000  Uiso   1.00
N242   N     0.28402   0.50002   0.24999   0.00000  Uiso   1.00
O243   O     0.12708   0.56011   0.25000   0.00000  Uiso   1.00
O244   O     0.20627   0.56012   0.25000   0.00000  Uiso   1.00
O245   O     0.10775   0.49998   0.32549   0.00000  Uiso   1.00
O246   O     0.18694   0.49999   0.32549   0.00000  Uiso   1.00
O247   O     0.12706   0.43988   0.24999   0.00000  Uiso   1.00
O248   O     0.20625   0.43989   0.24999   0.00000  Uiso   1.00
O249   O     0.14640   0.50001   0.17451   0.00000  Uiso   1.00
O250   O     0.22559   0.50002   0.17451   0.00000  Uiso   1.00
C251   C     0.30148   0.50242   0.08420   0.00000  Uiso   1.00
C252   C     0.30388   0.54798   0.09966   0.00000  Uiso   1.00
C253   C     0.00728   0.55495   0.13022   0.00000  Uiso   1.00
H254   H     0.32235   0.55083   0.17191   0.00000  Uiso   1.00
H255   H     0.03839   0.53311   0.11844   0.00000  Uiso   1.00
H256   H     0.02149   0.58691   0.12441   0.00000  Uiso   1.00
H257   H     0.31386   0.56719   0.06448   0.00000  Uiso   1.00
H258   H     0.26772   0.55956   0.12314   0.00000  Uiso   1.00
H259   H     0.30014   0.48128   0.11654   0.00000  Uiso   1.00
H260   H     0.00299   0.49471   0.05462   0.00000  Uiso   1.00
C261   C     0.50003   0.57930   0.24994   0.00000  Uiso   1.00
C262   C     0.48221   0.50578   0.48696   0.00000  Uiso   1.00
C263   C     0.49213   0.49143   0.43538   0.00000  Uiso   1.00
C264   C     0.51681   0.49823   0.01436   0.00000  Uiso   1.00
C265   C     0.56352   0.48275   0.48775   0.00000  Uiso   1.00
C266   C     0.57183   0.46669   0.43818   0.00000  Uiso   1.00
C267   C     0.53522   0.46835   0.41385   0.00000  Uiso   1.00
C268   C     0.50596   0.50445   0.06768   0.00000  Uiso   1.00
C269   C     0.59166   0.49508   0.06314   0.00000  Uiso   1.00
C270   C     0.45963   0.50194   0.40629   0.00000  Uiso   1.00
C271   C     0.54289   0.64537   0.24880   0.00000  Uiso   1.00
C272   C     0.47418   0.49867   0.34980   0.00000  Uiso   1.00
C273   C     0.54289   0.35461   0.24880   0.00000  Uiso   1.00
C274   C     0.50008   0.37607   0.24975   0.00000  Uiso   1.00
C275   C     0.45731   0.35462   0.25058   0.00000  Uiso   1.00
C276   C     0.45730   0.64538   0.25061   0.00000  Uiso   1.00
C277   C     0.50008   0.62392   0.24978   0.00000  Uiso   1.00
C278   C     0.63370   0.52725   0.27994   0.00000  Uiso   1.00
C279   C     0.34997   0.52721   0.27997   0.00000  Uiso   1.00
C280   C     0.36622   0.47257   0.22032   0.00000  Uiso   1.00
C281   C     0.64988   0.47239   0.22062   0.00000  Uiso   1.00
C282   C     0.50002   0.42069   0.24989   0.00000  Uiso   1.00
C283   C     0.52626   0.50100   0.14999   0.00000  Uiso   1.00
C284   C     0.60114   0.48331   0.01130   0.00000  Uiso   1.00
C285   C     0.54214   0.50070   0.09299   0.00000  Uiso   1.00
C286   C     0.41642   0.52344   0.42989   0.00000  Uiso   1.00
C287   C     0.40742   0.53801   0.47985   0.00000  Uiso   1.00
C288   C     0.44006   0.52997   0.00801   0.00000  Uiso   1.00
Cu289  Cu    0.45311   0.49999   0.25000   0.00000  Uiso   1.00
Cu290  Cu    0.54689   0.50001   0.25000   0.00000  Uiso   1.00
H291   H     0.57635   0.37062   0.24806   0.00000  Uiso   1.00
H292   H     0.42385   0.37063   0.25128   0.00000  Uiso   1.00
H293   H     0.42384   0.62937   0.25135   0.00000  Uiso   1.00
H294   H     0.60849   0.54910   0.30390   0.00000  Uiso   1.00
H295   H     0.36212   0.54900   0.30399   0.00000  Uiso   1.00
H296   H     0.39140   0.45066   0.19645   0.00000  Uiso   1.00
H297   H     0.63761   0.45021   0.19718   0.00000  Uiso   1.00
H298   H     0.60628   0.45193   0.41867   0.00000  Uiso   1.00
H299   H     0.63801   0.47514   0.48895   0.00000  Uiso   1.00
H300   H     0.46876   0.51040   0.09036   0.00000  Uiso   1.00
H301   H     0.39145   0.53223   0.40826   0.00000  Uiso   1.00
H302   H     0.43327   0.54510   0.04490   0.00000  Uiso   1.00
H303   H     0.37625   0.55765   0.49556   0.00000  Uiso   1.00
H304   H     0.54195   0.45223   0.37748   0.00000  Uiso   1.00
H305   H     0.57636   0.62934   0.24804   0.00000  Uiso   1.00
N306   N     0.38265   0.49999   0.24998   0.00000  Uiso   1.00
N307   N     0.61735   0.50002   0.24999   0.00000  Uiso   1.00
O308   O     0.46042   0.56011   0.25000   0.00000  Uiso   1.00
O309   O     0.53961   0.56012   0.25000   0.00000  Uiso   1.00
O310   O     0.44108   0.49998   0.32549   0.00000  Uiso   1.00
O311   O     0.52027   0.49999   0.32549   0.00000  Uiso   1.00
O312   O     0.46039   0.43988   0.24999   0.00000  Uiso   1.00
O313   O     0.53958   0.43989   0.24999   0.00000  Uiso   1.00
O314   O     0.47973   0.50001   0.17451   0.00000  Uiso   1.00
O315   O     0.55892   0.50002   0.17451   0.00000  Uiso   1.00
C316   C     0.63481   0.50242   0.08420   0.00000  Uiso   1.00
C317   C     0.63721   0.54798   0.09966   0.00000  Uiso   1.00
C318   C     0.34061   0.55495   0.13022   0.00000  Uiso   1.00
H319   H     0.65568   0.55083   0.17191   0.00000  Uiso   1.00
H320   H     0.37172   0.53311   0.11844   0.00000  Uiso   1.00
H321   H     0.35483   0.58691   0.12441   0.00000  Uiso   1.00
H322   H     0.64720   0.56719   0.06448   0.00000  Uiso   1.00
H323   H     0.60106   0.55956   0.12314   0.00000  Uiso   1.00
H324   H     0.63347   0.48128   0.11654   0.00000  Uiso   1.00
H325   H     0.33632   0.49471   0.05462   0.00000  Uiso   1.00
C326   C     0.83336   0.57930   0.24994   0.00000  Uiso   1.00
C327   C     0.81555   0.50578   0.48696   0.00000  Uiso   1.00
C328   C     0.82546   0.49143   0.43538   0.00000  Uiso   1.00
C329   C     0.85015   0.49823   0.01436   0.00000  Uiso   1.00
C330   C     0.89685   0.48275   0.48775   0.00000  Uiso   1.00
C331   C     0.90517   0.46669   0.43818   0.00000  Uiso   1.00
C332   C     0.86855   0.46835   0.41385   0.00000  Uiso   1.00
C333   C     0.83929   0.50445   0.06768   0.00000  Uiso   1.00
C334   C     0.92500   0.49508   0.06314   0.00000  Uiso   1.00
C335   C     0.79296   0.50194   0.40629   0.00000  Uiso   1.00
C336   C     0.87622   0.64537   0.24880   0.00000  Uiso   1.00
C337   C     0.80752   0.49867   0.34980   0.00000  Uiso   1.00
C338   C     0.87622   0.35461   0.24880   0.00000  Uiso   1.00
C339   C     0.83341   0.37607   0.24975   0.00000  Uiso   1.00
C340   C     0.79064   0.35462   0.25058   0.00000  Uiso   1.00
C341   C     0.79064   0.64538   0.25061   0.00000  Uiso   1.00
C342   C     0.83341   0.62392   0.24978   0.00000  Uiso   1.00
C343   C     0.96704   0.52725   0.27994   0.00000  Uiso   1.00
C344   C     0.68330   0.52721   0.27997   0.00000  Uiso   1.00
C345   C     0.69955   0.47257   0.22032   0.00000  Uiso   1.00
C346   C     0.98321   0.47239   0.22062   0.00000  Uiso   1.00
C347   C     0.83336   0.42069   0.24989   0.00000  Uiso   1.00
C348   C     0.85959   0.50100   0.14999   0.00000  Uiso   1.00
C349   C     0.93448   0.48331   0.01130   0.00000  Uiso   1.00
C350   C     0.87547   0.50070   0.09299   0.00000  Uiso   1.00
C351   C     0.74975   0.52344   0.42989   0.00000  Uiso   1.00
C352   C     0.74075   0.53801   0.47985   0.00000  Uiso   1.00
C353   C     0.77339   0.52997   0.00801   0.00000  Uiso   1.00
Cu354  Cu    0.78645   0.49999   0.25000   0.00000  Uiso   1.00
Cu355  Cu    0.88022   0.50001   0.25000   0.00000  Uiso   1.00
H356   H     0.90968   0.37062   0.24806   0.00000  Uiso   1.00
H357   H     0.75719   0.37063   0.25128   0.00000  Uiso   1.00
H358   H     0.75717   0.62937   0.25135   0.00000  Uiso   1.00
H359   H     0.94183   0.54910   0.30390   0.00000  Uiso   1.00
H360   H     0.69545   0.54900   0.30399   0.00000  Uiso   1.00
H361   H     0.72473   0.45066   0.19645   0.00000  Uiso   1.00
H362   H     0.97094   0.45021   0.19718   0.00000  Uiso   1.00
H363   H     0.93961   0.45193   0.41867   0.00000  Uiso   1.00
H364   H     0.97134   0.47514   0.48895   0.00000  Uiso   1.00
H365   H     0.80209   0.51040   0.09036   0.00000  Uiso   1.00
H366   H     0.72478   0.53223   0.40826   0.00000  Uiso   1.00
H367   H     0.76660   0.54510   0.04490   0.00000  Uiso   1.00
H368   H     0.70959   0.55765   0.49556   0.00000  Uiso   1.00
H369   H     0.87528   0.45223   0.37748   0.00000  Uiso   1.00
H370   H     0.90969   0.62934   0.24804   0.00000  Uiso   1.00
N371   N     0.71598   0.49999   0.24998   0.00000  Uiso   1.00
N372   N     0.95069   0.50002   0.24999   0.00000  Uiso   1.00
O373   O     0.79375   0.56011   0.25000   0.00000  Uiso   1.00
O374   O     0.87294   0.56012   0.25000   0.00000  Uiso   1.00
O375   O     0.77441   0.49998   0.32549   0.00000  Uiso   1.00
O376   O     0.85360   0.49999   0.32549   0.00000  Uiso   1.00
O377   O     0.79373   0.43988   0.24999   0.00000  Uiso   1.00
O378   O     0.87292   0.43989   0.24999   0.00000  Uiso   1.00
O379   O     0.81306   0.50001   0.17451   0.00000  Uiso   1.00
O380   O     0.89225   0.50002   0.17451   0.00000  Uiso   1.00
C381   C     0.96814   0.50242   0.08420   0.00000  Uiso   1.00
C382   C     0.97054   0.54798   0.09966   0.00000  Uiso   1.00
C383   C     0.67395   0.55495   0.13022   0.00000  Uiso   1.00
H384   H     0.98901   0.55083   0.17191   0.00000  Uiso   1.00
H385   H     0.70505   0.53311   0.11844   0.00000  Uiso   1.00
H386   H     0.68816   0.58691   0.12441   0.00000  Uiso   1.00
H387   H     0.98053   0.56719   0.06448   0.00000  Uiso   1.00
H388   H     0.93439   0.55956   0.12314   0.00000  Uiso   1.00
H389   H     0.96680   0.48128   0.11654   0.00000  Uiso   1.00
H390   H     0.66966   0.49471   0.05462   0.00000  Uiso   1.00
C391   C     0.16670   0.91264   0.24994   0.00000  Uiso   1.00
C392   C     0.14888   0.83912   0.48696   0.00000  Uiso   1.00
C393   C     0.15880   0.82476   0.43538   0.00000  Uiso   1.00
C394   C     0.18348   0.83156   0.01436   0.00000  Uiso   1.00
C395   C     0.23019   0.81609   0.48775   0.00000  Uiso   1.00
C396   C     0.23850   0.80003   0.43818   0.00000  Uiso   1.00
C397   C     0.20188   0.80168   0.41385   0.00000  Uiso   1.00
C398   C     0.17263   0.83779   0.06768   0.00000  Uiso   1.00
C399   C     0.25833   0.82842   0.06314   0.00000  Uiso   1.00
C400   C     0.12630   0.83527   0.40629   0.00000  Uiso   1.00
C401   C     0.20956   0.97870   0.24880   0.00000  Uiso   1.00
C402   C     0.14085   0.83200   0.34980   0.00000  Uiso   1.00
C403   C     0.20955   0.68794   0.24880   0.00000  Uiso   1.00
C404   C     0.16674   0.70940   0.24975   0.00000  Uiso   1.00
C405   C     0.12398   0.68795   0.25058   0.00000  Uiso   1.00
C406   C     0.12397   0.97871   0.25061   0.00000  Uiso   1.00
C407   C     0.16674   0.95725   0.24978   0.00000  Uiso   1.00
C408   C     0.30037   0.86059   0.27994   0.00000  Uiso   1.00
C409   C     0.01664   0.86054   0.27997   0.00000  Uiso   1.00
C410   C     0.03289   0.80590   0.22032   0.00000  Uiso   1.00
C411   C     0.31655   0.80573   0.22062   0.00000  Uiso   1.00
C412   C     0.16669   0.75403   0.24989   0.00000  Uiso   1.00
C413   C     0.19292   0.83434   0.14999   0.00000  Uiso   1.00
C414   C     0.26781   0.81664   0.01130   0.00000  Uiso   1.00
C415   C     0.20880   0.83403   0.09299   0.00000  Uiso   1.00
C416   C     0.08308   0.85677   0.42989   0.00000  Uiso   1.00
C417   C     0.07408   0.87134   0.47985   0.00000  Uiso   1.00
C418   C     0.10673   0.86331   0.00801   0.00000  Uiso   1.00
Cu419  Cu    0.11978   0.83333   0.25000   0.00000  Uiso   1.00
Cu420  Cu    0.21355   0.83334   0.25000   0.00000  Uiso   1.00
H421   H     0.24301   0.70396   0.24806   0.00000  Uiso   1.00
H422   H     0.09052   0.70396   0.25128   0.00000  Uiso   1.00
H423   H     0.09051   0.96270   0.25135   0.00000  Uiso   1.00
H424   H     0.27516   0.88244   0.30390   0.00000  Uiso   1.00
H425   H     0.02879   0.88233   0.30399   0.00000  Uiso   1.00
H426   H     0.05806   0.78399   0.19645   0.00000  Uiso   1.00
H427   H     0.30427   0.78354   0.19718   0.00000  Uiso   1.00
H428   H     0.27295   0.78526   0.41867   0.00000  Uiso   1.00
H429   H     0.30468   0.80847   0.48895   0.00000  Uiso   1.00
H430   H     0.13543   0.84374   0.09036   0.00000  Uiso   1.00
H431   H     0.05812   0.86556   0.40826   0.00000  Uiso   1.00
H432   H     0.09994   0.87843   0.04490   0.00000  Uiso   1.00
H433   H     0.04292   0.89098   0.49556   0.00000  Uiso   1.00
H434   H     0.20861   0.78556   0.37748   0.00000  Uiso   1.00
H435   H     0.24303   0.96268   0.24804   0.00000  Uiso   1.00
N436   N     0.04931   0.83332   0.24998   0.00000  Uiso   1.00
N437   N     0.28402   0.83335   0.24999   0.00000  Uiso   1.00
O438   O     0.12708   0.89345   0.25000   0.00000  Uiso   1.00
O439   O     0.20627   0.89346   0.25000   0.00000  Uiso   1.00
O440   O     0.10775   0.83332   0.32549   0.00000  Uiso   1.00
O441   O     0.18694   0.83333   0.32549   0.00000  Uiso   1.00
O442   O     0.12706   0.77321   0.24999   0.00000  Uiso   1.00
O443   O     0.20625   0.77322   0.24999   0.00000  Uiso   1.00
O444   O     0.14640   0.83334   0.17451   0.00000  Uiso   1.00
O445   O     0.22559   0.83335   0.17451   0.00000  Uiso   1.00
C446   C     0.30148   0.83575   0.08420   0.00000  Uiso   1.00
C447   C     0.30388   0.88131   0.09966   0.00000  Uiso   1.00
C448   C     0.00728   0.88828   0.13022   0.00000  Uiso   1.00
H449   H     0.32235   0.88417   0.17191   0.00000  Uiso   1.00
H450   H     0.03839   0.86644   0.11844   0.00000  Uiso   1.00
H451   H     0.02149   0.92025   0.12441   0.00000  Uiso   1.00
H452   H     0.31386   0.90053   0.06448   0.00000  Uiso   1.00
H453   H     0.26772   0.89290   0.12314   0.00000  Uiso   1.00
H454   H     0.30014   0.81461   0.11654   0.00000  Uiso   1.00
H455   H     0.00299   0.82804   0.05462   0.00000  Uiso   1.00
C456   C     0.50003   0.91264   0.24994   0.00000  Uiso   1.00
C457   C     0.48221   0.83912   0.48696   0.00000  Uiso   1.00
C458   C     0.49213   0.82476   0.43538   0.00000  Uiso   1.00
C459   C     0.51681   0.83156   0.01436   0.00000  Uiso   1.00
C460   C     0.56352   0.81609   0.48775   0.00000  Uiso   1.00
C461   C     0.57183   0.80003   0.43818   0.00000  Uiso   1.00
C462   C     0.53522   0.80168   0.41385   0.00000  Uiso   1.00
C463   C     0.50596   0.83779   0.06768   0.00000  Uiso   1.00
C464   C     0.59166   0.82842   0.06314   0.00000  Uiso   1.00
C465   C     0.45963   0.83527   0.40629   0.00000  Uiso   1.00
C466   C     0.54289   0.97870   0.24880   0.00000  Uiso   1.00
C467   C     0.47418   0.83200   0.34980   0.00000  Uiso   1.00
C468   C     0.54289   0.68794   0.24880   0.00000  Uiso   1.00
C469   C     0.50008   0.70940   0.24975   0.00000  Uiso   1.00
C470   C     0.45731   0.68795   0.25058   0.00000  Uiso   1.00
C471   C     0.45730   0.97871   0.25061   0.00000  Uiso   1.00
C472   C     0.50008   0.95725   0.24978   0.00000  Uiso   1.00
C473   C     0.63370   0.86059   0.27994   0.00000  Uiso   1.00
C474   C     0.34997   0.86054   0.27997   0.00000  Uiso   1.00
C475   C     0.36622   0.80590   0.22032   0.00000  Uiso   1.00
C476   C     0.64988   0.80573   0.22062   0.00000  Uiso   1.00
C477   C     0.50002   0.75403   0.24989   0.00000  Uiso   1.00
C478   C     0.52626   0.83434   0.14999   0.00000  Uiso   1.00
C479   C     0.60114   0.81664   0.01130   0.00000  Uiso   1.00
C480   C     0.54214   0.83403   0.09299   0.00000  Uiso   1.00
C481   C     0.41642   0.85677   0.42989   0.00000  Uiso   1.00
C482   C     0.40742   0.87134   0.47985   0.00000  Uiso   1.00
C483   C     0.44006   0.86331   0.00801   0.00000  Uiso   1.00
Cu484  Cu    0.45311   0.83333   0.25000   0.00000  Uiso   1.00
Cu485  Cu    0.54689   0.83334   0.25000   0.00000  Uiso   1.00
H486   H     0.57635   0.70396   0.24806   0.00000  Uiso   1.00
H487   H     0.42385   0.70396   0.25128   0.00000  Uiso   1.00
H488   H     0.42384   0.96270   0.25135   0.00000  Uiso   1.00
H489   H     0.60849   0.88244   0.30390   0.00000  Uiso   1.00
H490   H     0.36212   0.88233   0.30399   0.00000  Uiso   1.00
H491   H     0.39140   0.78399   0.19645   0.00000  Uiso   1.00
H492   H     0.63761   0.78354   0.19718   0.00000  Uiso   1.00
H493   H     0.60628   0.78526   0.41867   0.00000  Uiso   1.00
H494   H     0.63801   0.80847   0.48895   0.00000  Uiso   1.00
H495   H     0.46876   0.84374   0.09036   0.00000  Uiso   1.00
H496   H     0.39145   0.86556   0.40826   0.00000  Uiso   1.00
H497   H     0.43327   0.87843   0.04490   0.00000  Uiso   1.00
H498   H     0.37625   0.89098   0.49556   0.00000  Uiso   1.00
H499   H     0.54195   0.78556   0.37748   0.00000  Uiso   1.00
H500   H     0.57636   0.96268   0.24804   0.00000  Uiso   1.00
N501   N     0.38265   0.83332   0.24998   0.00000  Uiso   1.00
N502   N     0.61735   0.83335   0.24999   0.00000  Uiso   1.00
O503   O     0.46042   0.89345   0.25000   0.00000  Uiso   1.00
O504   O     0.53961   0.89346   0.25000   0.00000  Uiso   1.00
O505   O     0.44108   0.83332   0.32549   0.00000  Uiso   1.00
O506   O     0.52027   0.83333   0.32549   0.00000  Uiso   1.00
O507   O     0.46039   0.77321   0.24999   0.00000  Uiso   1.00
O508   O     0.53958   0.77322   0.24999   0.00000  Uiso   1.00
O509   O     0.47973   0.83334   0.17451   0.00000  Uiso   1.00
O510   O     0.55892   0.83335   0.17451   0.00000  Uiso   1.00
C511   C     0.63481   0.83575   0.08420   0.00000  Uiso   1.00
C512   C     0.63721   0.88131   0.09966   0.00000  Uiso   1.00
C513   C     0.34061   0.88828   0.13022   0.00000  Uiso   1.00
H514   H     0.65568   0.88417   0.17191   0.00000  Uiso   1.00
H515   H     0.37172   0.86644   0.11844   0.00000  Uiso   1.00
H516   H     0.35483   0.92025   0.12441   0.00000  Uiso   1.00
H517   H     0.64720   0.90053   0.06448   0.00000  Uiso   1.00
H518   H     0.60106   0.89290   0.12314   0.00000  Uiso   1.00
H519   H     0.63347   0.81461   0.11654   0.00000  Uiso   1.00
H520   H     0.33632   0.82804   0.05462   0.00000  Uiso   1.00
C521   C     0.83336   0.91264   0.24994   0.00000  Uiso   1.00
C522   C     0.81555   0.83912   0.48696   0.00000  Uiso   1.00
C523   C     0.82546   0.82476   0.43538   0.00000  Uiso   1.00
C524   C     0.85015   0.83156   0.01436   0.00000  Uiso   1.00
C525   C     0.89685   0.81609   0.48775   0.00000  Uiso   1.00
C526   C     0.90517   0.80003   0.43818   0.00000  Uiso   1.00
C527   C     0.86855   0.80168   0.41385   0.00000  Uiso   1.00
C528   C     0.83929   0.83779   0.06768   0.00000  Uiso   1.00
C529   C     0.92500   0.82842   0.06314   0.00000  Uiso   1.00
C530   C     0.79296   0.83527   0.40629   0.00000  Uiso   1.00
C531   C     0.87622   0.97870   0.24880   0.00000  Uiso   1.00
C532   C     0.80752   0.83200   0.34980   0.00000  Uiso   1.00
C533   C     0.87622   0.68794   0.24880   0.00000  Uiso   1.00
C534   C     0.83341   0.70940   0.24975   0.00000  Uiso   1.00
C535   C     0.79064   0.68795   0.25058   0.00000  Uiso   1.00
C536   C     0.79064   0.97871   0.25061   0.00000  Uiso   1.00
C537   C     0.83341   0.95725   0.24978   0.00000  Uiso   1.00
C538   C     0.96704   0.86059   0.27994   0.00000  Uiso   1.00
C539   C     0.68330   0.86054   0.27997   0.00000  Uiso   1.00
C540   C     0.69955   0.80590   0.22032   0.00000  Uiso   1.00
C541   C     0.98321   0.80573   0.22062   0.00000  Uiso   1.00
C542   C     0.83336   0.75403   0.24989   0.00000  Uiso   1.00
C543   C     0.85959   0.83434   0.14999   0.00000  Uiso   1.00
C544   C     0.93448   0.81664   0.01130   0.00000  Uiso   1.00
C545   C     0.87547   0.83403   0.09299   0.00000  Uiso   1.00
C546   C     0.74975   0.85677   0.42989   0.00000  Uiso   1.00
C547   C     0.74075   0.87134   0.47985   0.00000  Uiso   1.00
C548   C     0.77339   0.86331   0.00801   0.00000  Uiso   1.00
Cu549  Cu    0.78645   0.83333   0.25000   0.00000  Uiso   1.00
Cu550  Cu    0.88022   0.83334   0.25000   0.00000  Uiso   1.00
H551   H     0.90968   0.70396   0.24806   0.00000  Uiso   1.00
H552   H     0.75719   0.70396   0.25128   0.00000  Uiso   1.00
H553   H     0.75717   0.96270   0.25135   0.00000  Uiso   1.00
H554   H     0.94183   0.88244   0.30390   0.00000  Uiso   1.00
H555   H     0.69545   0.88233   0.30399   0.00000  Uiso   1.00
H556   H     0.72473   0.78399   0.19645   0.00000  Uiso   1.00
H557   H     0.97094   0.78354   0.19718   0.00000  Uiso   1.00
H558   H     0.93961   0.78526   0.41867   0.00000  Uiso   1.00
H559   H     0.97134   0.80847   0.48895   0.00000  Uiso   1.00
H560   H     0.80209   0.84374   0.09036   0.00000  Uiso   1.00
H561   H     0.72478   0.86556   0.40826   0.00000  Uiso   1.00
H562   H     0.76660   0.87843   0.04490   0.00000  Uiso   1.00
H563   H     0.70959   0.89098   0.49556   0.00000  Uiso   1.00
H564   H     0.87528   0.78556   0.37748   0.00000  Uiso   1.00
H565   H     0.90969   0.96268   0.24804   0.00000  Uiso   1.00
N566   N     0.71598   0.83332   0.24998   0.00000  Uiso   1.00
N567   N     0.95069   0.83335   0.24999   0.00000  Uiso   1.00
O568   O     0.79375   0.89345   0.25000   0.00000  Uiso   1.00
O569   O     0.87294   0.89346   0.25000   0.00000  Uiso   1.00
O570   O     0.77441   0.83332   0.32549   0.00000  Uiso   1.00
O571   O     0.85360   0.83333   0.32549   0.00000  Uiso   1.00
O572   O     0.79373   0.77321   0.24999   0.00000  Uiso   1.00
O573   O     0.87292   0.77322   0.24999   0.00000  Uiso   1.00
O574   O     0.81306   0.83334   0.17451   0.00000  Uiso   1.00
O575   O     0.89225   0.83335   0.17451   0.00000  Uiso   1.00
C576   C     0.96814   0.83575   0.08420   0.00000  Uiso   1.00
C577   C     0.97054   0.88131   0.09966   0.00000  Uiso   1.00
C578   C     0.67395   0.88828   0.13022   0.00000  Uiso   1.00
H579   H     0.98901   0.88417   0.17191   0.00000  Uiso   1.00
H580   H     0.70505   0.86644   0.11844   0.00000  Uiso   1.00
H581   H     0.68816   0.92025   0.12441   0.00000  Uiso   1.00
H582   H     0.98053   0.90053   0.06448   0.00000  Uiso   1.00
H583   H     0.93439   0.89290   0.12314   0.00000  Uiso   1.00
H584   H     0.96680   0.81461   0.11654   0.00000  Uiso   1.00
H585   H     0.66966   0.82804   0.05462   0.00000  Uiso   1.00
C586   C     0.16670   0.24597   0.74994   0.00000  Uiso   1.00
C587   C     0.14888   0.17245   0.98696   0.00000  Uiso   1.00
C588   C     0.15880   0.15810   0.93538   0.00000  Uiso   1.00
C589   C     0.18348   0.16489   0.51436   0.00000  Uiso   1.00
C590   C     0.23019   0.14942   0.98775   0.00000  Uiso   1.00
C591   C     0.23850   0.13336   0.93818   0.00000  Uiso   1.00
C592   C     0.20188   0.13501   0.91385   0.00000  Uiso   1.00
C593   C     0.17263   0.17112   0.56768   0.00000  Uiso   1.00
C594   C     0.25833   0.16175   0.56314   0.00000  Uiso   1.00
C595   C     0.12630   0.16861   0.90629   0.00000  Uiso   1.00
C596   C     0.20956   0.31203   0.74880   0.00000  Uiso   1.00
C597   C     0.14085   0.16533   0.84980   0.00000  Uiso   1.00
C598   C     0.20955   0.02128   0.74880   0.00000  Uiso   1.00
C599   C     0.16674   0.04274   0.74975   0.00000  Uiso   1.00
C600   C     0.12398   0.02128   0.75058   0.00000  Uiso   1.00
C601   C     0.12397   0.31204   0.75061   0.00000  Uiso   1.00
C602   C     0.16674   0.29058   0.74978   0.00000  Uiso   1.00
C603   C     0.30037   0.19392   0.77994   0.00000  Uiso   1.00
C604   C     0.01664   0.19388   0.77997   0.00000  Uiso   1.00
C605   C     0.03289   0.13924   0.72032   0.00000  Uiso   1.00
C606   C     0.31655   0.13906   0.72062   0.00000  Uiso   1.00
C607   C     0.16669   0.08736   0.74989   0.00000  Uiso   1.00
C608   C     0.19292   0.16767   0.64999   0.00000  Uiso   1.00
C609   C     0.26781   0.14997   0.51130   0.00000  Uiso   1.00
C610   C     0.20880   0.16737   0.59299   0.00000  Uiso   1.00
C611   C     0.08308   0.19010   0.92989   0.00000  Uiso   1.00
C612   C     0.07408   0.20468   0.97985   0.00000  Uiso   1.00
C613   C     0.10673   0.19664   0.50801   0.00000  Uiso   1.00
Cu614  Cu    0.11978   0.16666   0.75000   0.00000  Uiso   1.00
Cu615  Cu    0.21355   0.16667   0.75000   0.00000  Uiso   1.00
H616   H     0.24301   0.03729   0.74806   0.00000  Uiso   1.00
H617   H     0.09052   0.03730   0.75128   0.00000  Uiso   1.00
H618   H     0.09051   0.29603   0.75135   0.00000  Uiso   1.00
H619   H     0.27516   0.21577   0.80390   0.00000  Uiso   1.00
H620   H     0.02879   0.21567   0.80399   0.00000  Uiso   1.00
H621   H     0.05806   0.11732   0.69645   0.00000  Uiso   1.00
H622   H     0.30427   0.11687   0.69718   0.00000  Uiso   1.00
H623   H     0.27295   0.11860   0.91867   0.00000  Uiso   1.00
H624   H     0.30468   0.14181   0.98895   0.00000  Uiso   1.00
H625   H     0.13543   0.17707   0.59036   0.00000  Uiso   1.00
H626   H     0.05812   0.19889   0.90826   0.00000  Uiso   1.00
H627   H     0.09994   0.21176   0.54490   0.00000  Uiso   1.00
H628   H     0.04292   0.22432   0.99556   0.00000  Uiso   1.00
H629   H     0.20861   0.11890   0.87748   0.00000  Uiso   1.00
H630   H     0.24303   0.29601   0.74804   0.00000  Uiso   1.00
N631   N     0.04931   0.16666   0.74998   0.00000  Uiso   1.00
N632   N     0.28402   0.16669   0.74999   0.00000  Uiso   1.00
O633   O     0.12708   0.22678   0.75000   0.00000  Uiso   1.00
O634   O     0.20627   0.22679   0.75000   0.00000  Uiso   1.00
O635   O     0.10775   0.16665   0.82549   0.00000  Uiso   1.00
O636   O     0.18694   0.16666   0.82549   0.00000  Uiso   1.00
O637   O     0.12706   0.10654   0.74999   0.00000  Uiso   1.00
O638   O     0.20625   0.10655   0.74999   0.00000  Uiso   1.00
O639   O     0.14640   0.16667   0.67451   0.00000  Uiso   1.00
O640   O     0.22559   0.16668   0.67451   0.00000  Uiso   1.00
C641   C     0.30148   0.16909   0.58420   0.00000  Uiso   1.00
C642   C     0.30388   0.21465   0.59966   0.00000  Uiso   1.00
C643   C     0.00728   0.22162   0.63022   0.00000  Uiso   1.00
H644   H     0.32235   0.21750   0.67191   0.00000  Uiso   1.00
H645   H     0.03839   0.19978   0.61844   0.00000  Uiso   1.00
H646   H     0.02149   0.25358   0.62441   0.00000  Uiso   1.00
H647   H     0.31386   0.23386   0.56448   0.00000  Uiso   1.00
H648   H     0.26772   0.22623   0.62314   0.00000  Uiso   1.00
H649   H     0.30014   0.14794   0.61654   0.00000  Uiso   1.00
H650   H     0.00299   0.16137   0.55462   0.00000  Uiso   1.00
C651   C     0.50003   0.24597   0.74994   0.00000  Uiso   1.00
C652   C     0.48221   0.17245   0.98696   0.00000  Uiso   1.00
C653   C     0.49213   0.15810   0.93538   0.00000  Uiso   1.00
C654   C     0.51681   0.16489   0.51436   0.00000  Uiso   1.00
C655   C     0.56352   0.14942   0.98775   0.00000  Uiso   1.00
C656   C     0.57183   0.13336   0.93818   0.00000  Uiso   1.00
C657   C     0.53522   0.13501   0.91385   0.00000  Uiso   1.00
C658   C     0.50596   0.17112   0.56768   0.00000  Uiso   1.00
C659   C     0.59166   0.16175   0.56314   0.00000  Uiso   1.00
C660   C     0.45963   0.16861   0.90629   0.00000  Uiso   1.00
C661   C     0.54289   0.31203   0.74880   0.00000  Uiso   1.00
C662   C     0.47418   0.16533   0.84980   0.00000  Uiso   1.00
C663   C     0.54289   0.02128   0.74880   0.00000  Uiso   1.00
C664   C     0.50008   0.04274   0.74975   0.00000  Uiso   1.00
C665   C     0.45731   0.02128   0.75058   0.00000  Uiso   1.00
C666   C     0.45730   0.31204   0.75061   0.00000  Uiso   1.00
C667   C     0.50008   0.29058   0.74978   0.00000  Uiso   1.00
C668   C     0.63370   0.19392   0.77994   0.00000  Uiso   1.00
C669   C     0.34997   0.19388   0.77997   0.00000  Uiso   1.00
C670   C     0.36622   0.13924   0.72032   0.00000  Uiso   1.00
C671   C     0.64988   0.13906   0.72062   0.00000  Uiso   1.00
C672   C     0.50002   0.08736   0.74989   0.00000  Uiso   1.00
C673   C     0.52626   0.16767   0.64999   0.00000  Uiso   1.00
C674   C     0.60114   0.14997   0.51130   0.00000  Uiso   1.00
C675   C     0.54214   0.16737   0.59299   0.00000  Uiso   1.00
C676   C     0.41642   0.19010   0.92989   0.00000  Uiso   1.00
C677   C     0.40742   0.20468   0.97985   0.00000  Uiso   1.00
C678   C     0.44006   0.19664   0.50801   0.00000  Uiso   1.00
Cu679  Cu    0.45311   0.16666   0.75000   0.00000  Uiso   1.00
Cu680  Cu    0.54689   0.16667   0.75000   0.00000  Uiso   1.00
H681   H     0.57635   0.03729   0.74806   0.00000  Uiso   1.00
H682   H     0.42385   0.03730   0.75128   0.00000  Uiso   1.00
H683   H     0.42384   0.29603   0.75135   0.00000  Uiso   1.00
H684   H     0.60849   0.21577   0.80390   0.00000  Uiso   1.00
H685   H     0.36212   0.21567   0.80399   0.00000  Uiso   1.00
H686   H     0.39140   0.11732   0.69645   0.00000  Uiso   1.00
H687   H     0.63761   0.11687   0.69718   0.00000  Uiso   1.00
H688   H     0.60628   0.11860   0.91867   0.00000  Uiso   1.00
H689   H     0.63801   0.14181   0.98895   0.00000  Uiso   1.00
H690   H     0.46876   0.17707   0.59036   0.00000  Uiso   1.00
H691   H     0.39145   0.19889   0.90826   0.00000  Uiso   1.00
H692   H     0.43327   0.21176   0.54490   0.00000  Uiso   1.00
H693   H     0.37625   0.22432   0.99556   0.00000  Uiso   1.00
H694   H     0.54195   0.11890   0.87748   0.00000  Uiso   1.00
H695   H     0.57636   0.29601   0.74804   0.00000  Uiso   1.00
N696   N     0.38265   0.16666   0.74998   0.00000  Uiso   1.00
N697   N     0.61735   0.16669   0.74999   0.00000  Uiso   1.00
O698   O     0.46042   0.22678   0.75000   0.00000  Uiso   1.00
O699   O     0.53961   0.22679   0.75000   0.00000  Uiso   1.00
O700   O     0.44108   0.16665   0.82549   0.00000  Uiso   1.00
O701   O     0.52027   0.16666   0.82549   0.00000  Uiso   1.00
O702   O     0.46039   0.10654   0.74999   0.00000  Uiso   1.00
O703   O     0.53958   0.10655   0.74999   0.00000  Uiso   1.00
O704   O     0.47973   0.16667   0.67451   0.00000  Uiso   1.00
O705   O     0.55892   0.16668   0.67451   0.00000  Uiso   1.00
C706   C     0.63481   0.16909   0.58420   0.00000  Uiso   1.00
C707   C     0.63721   0.21465   0.59966   0.00000  Uiso   1.00
C708   C     0.34061   0.22162   0.63022   0.00000  Uiso   1.00
H709   H     0.65568   0.21750   0.67191   0.00000  Uiso   1.00
H710   H     0.37172   0.19978   0.61844   0.00000  Uiso   1.00
H711   H     0.35483   0.25358   0.62441   0.00000  Uiso   1.00
H712   H     0.64720   0.23386   0.56448   0.00000  Uiso   1.00
H713   H     0.60106   0.22623   0.62314   0.00000  Uiso   1.00
H714   H     0.63347   0.14794   0.61654   0.00000  Uiso   1.00
H715   H     0.33632   0.16137   0.55462   0.00000  Uiso   1.00
C716   C     0.83336   0.24597   0.74994   0.00000  Uiso   1.00
C717   C     0.81555   0.17245   0.98696   0.00000  Uiso   1.00
C718   C     0.82546   0.15810   0.93538   0.00000  Uiso   1.00
C719   C     0.85015   0.16489   0.51436   0.00000  Uiso   1.00
C720   C     0.89685   0.14942   0.98775   0.00000  Uiso   1.00
C721   C     0.90517   0.13336   0.93818   0.00000  Uiso   1.00
C722   C     0.86855   0.13501   0.91385   0.00000  Uiso   1.00
C723   C     0.83929   0.17112   0.56768   0.00000  Uiso   1.00
C724   C     0.92500   0.16175   0.56314   0.00000  Uiso   1.00
C725   C     0.79296   0.16861   0.90629   0.00000  Uiso   1.00
C726   C     0.87622   0.31203   0.74880   0.00000  Uiso   1.00
C727   C     0.80752   0.16533   0.84980   0.00000  Uiso   1.00
C728   C     0.87622   0.02128   0.74880   0.00000  Uiso   1.00
C729   C     0.83341   0.04274   0.74975   0.00000  Uiso   1.00
C730   C     0.79064   0.02128   0.75058   0.00000  Uiso   1.00
C731   C     0.79064   0.31204   0.75061   0.00000  Uiso   1.00
C732   C     0.83341   0.29058   0.74978   0.00000  Uiso   1.00
C733   C     0.96704   0.19392   0.77994   0.00000  Uiso   1.00
C734   C     0.68330   0.19388   0.77997   0.00000  Uiso   1.00
C735   C     0.69955   0.13924   0.72032   0.00000  Uiso   1.00
C736   C     0.98321   0.13906   0.72062   0.00000  Uiso   1.00
C737   C     0.83336   0.08736   0.74989   0.00000  Uiso   1.00
C738   C     0.85959   0.16767   0.64999   0.00000  Uiso   1.00
C739   C     0.93448   0.14997   0.51130   0.00000  Uiso   1.00
C740   C     0.87547   0.16737   0.59299   0.00000  Uiso   1.00
C741   C     0.74975   0.19010   0.92989   0.00000  Uiso   1.00
C742   C     0.74075   0.20468   0.97985   0.00000  Uiso   1.00
C743   C     0.77339   0.19664   0.50801   0.00000  Uiso   1.00
Cu744  Cu    0.78645   0.16666   0.75000   0.00000  Uiso   1.00
Cu745  Cu    0.88022   0.16667   0.75000   0.00000  Uiso   1.00
H746   H     0.90968   0.03729   0.74806   0.00000  Uiso   1.00
H747   H     0.75719   0.03730   0.75128   0.00000  Uiso   1.00
H748   H     0.75717   0.29603   0.75135   0.00000  Uiso   1.00
H749   H     0.94183   0.21577   0.80390   0.00000  Uiso   1.00
H750   H     0.69545   0.21567   0.80399   0.00000  Uiso   1.00
H751   H     0.72473   0.11732   0.69645   0.00000  Uiso   1.00
H752   H     0.97094   0.11687   0.69718   0.00000  Uiso   1.00
H753   H     0.93961   0.11860   0.91867   0.00000  Uiso   1.00
H754   H     0.97134   0.14181   0.98895   0.00000  Uiso   1.00
H755   H     0.80209   0.17707   0.59036   0.00000  Uiso   1.00
H756   H     0.72478   0.19889   0.90826   0.00000  Uiso   1.00
H757   H     0.76660   0.21176   0.54490   0.00000  Uiso   1.00
H758   H     0.70959   0.22432   0.99556   0.00000  Uiso   1.00
H759   H     0.87528   0.11890   0.87748   0.00000  Uiso   1.00
H760   H     0.90969   0.29601   0.74804   0.00000  Uiso   1.00
N761   N     0.71598   0.16666   0.74998   0.00000  Uiso   1.00
N762   N     0.95069   0.16669   0.74999   0.00000  Uiso   1.00
O763   O     0.79375   0.22678   0.75000   0.00000  Uiso   1.00
O764   O     0.87294   0.22679   0.75000   0.00000  Uiso   1.00
O765   O     0.77441   0.16665   0.82549   0.00000  Uiso   1.00
O766   O     0.85360   0.16666   0.82549   0.00000  Uiso   1.00
O767   O     0.79373   0.10654   0.74999   0.00000  Uiso   1.00
O768   O     0.87292   0.10655   0.74999   0.00000  Uiso   1.00
O769   O     0.81306   0.16667   0.67451   0.00000  Uiso   1.00
O770   O     0.89225   0.16668   0.67451   0.00000  Uiso   1.00
C771   C     0.96814   0.16909   0.58420   0.00000  Uiso   1.00
C772   C     0.97054   0.21465   0.59966   0.00000  Uiso   1.00
C773   C     0.67395   0.22162   0.63022   0.00000  Uiso   1.00
H774   H     0.98901   0.21750   0.67191   0.00000  Uiso   1.00
H775   H     0.70505   0.19978   0.61844   0.00000  Uiso   1.00
H776   H     0.68816   0.25358   0.62441   0.00000  Uiso   1.00
H777   H     0.98053   0.23386   0.56448   0.00000  Uiso   1.00
H778   H     0.93439   0.22623   0.62314   0.00000  Uiso   1.00
H779   H     0.96680   0.14794   0.61654   0.00000  Uiso   1.00
H780   H     0.66966   0.16137   0.55462   0.00000  Uiso   1.00
C781   C     0.16670   0.57930   0.74994   0.00000  Uiso   1.00
C782   C     0.14888   0.50578   0.98696   0.00000  Uiso   1.00
C783   C     0.15880   0.49143   0.93538   0.00000  Uiso   1.00
C784   C     0.18348   0.49823   0.51436   0.00000  Uiso   1.00
C785   C     0.23019   0.48275   0.98775   0.00000  Uiso   1.00
C786   C     0.23850   0.46669   0.93818   0.00000  Uiso   1.00
C787   C     0.20188   0.46835   0.91385   0.00000  Uiso   1.00
C788   C     0.17263   0.50445   0.56768   0.00000  Uiso   1.00
C789   C     0.25833   0.49508   0.56314   0.00000  Uiso   1.00
C790   C     0.12630   0.50194   0.90629   0.00000  Uiso   1.00
C791   C     0.20956   0.64537   0.74880   0.00000  Uiso   1.00
C792   C     0.14085   0.49867   0.84980   0.00000  Uiso   1.00
C793   C     0.20955   0.35461   0.74880   0.00000  Uiso   1.00
C794   C     0.16674   0.37607   0.74975   0.00000  Uiso   1.00
C795   C     0.12398   0.35462   0.75058   0.00000  Uiso   1.00
C796   C     0.12397   0.64538   0.75061   0.00000  Uiso   1.00
C797   C     0.16674   0.62392   0.74978   0.00000  Uiso   1.00
C798   C     0.30037   0.52725   0.77994   0.00000  Uiso   1.00
C799   C     0.01664   0.52721   0.77997   0.00000  Uiso   1.00
C800   C     0.03289   0.47257   0.72032   0.00000  Uiso   1.00
C801   C     0.31655   0.47239   0.72062   0.00000  Uiso   1.00
C802   C     0.16669   0.42069   0.74989   0.00000  Uiso   1.00
C803   C     0.19292   0.50100   0.64999   0.00000  Uiso   1.00
C804   C     0.26781   0.48331   0.51130   0.00000  Uiso   1.00
C805   C     0.20880   0.50070   0.59299   0.00000  Uiso   1.00
C806   C     0.08308   0.52344   0.92989   0.00000  Uiso   1.00
C807   C     0.07408   0.53801   0.97985   0.00000  Uiso   1.00
C808   C     0.10673   0.52997   0.50801   0.00000  Uiso   1.00
Cu809  Cu    0.11978   0.49999   0.75000   0.00000  Uiso   1.00
Cu810  Cu    0.21355   0.50001   0.75000   0.00000  Uiso   1.00
H811   H     0.24301   0.37062   0.74806   0.00000  Uiso   1.00
H812   H     0.09052   0.37063   0.75128   0.00000  Uiso   1.00
H813   H     0.09051   0.62937   0.75135   0.00000  Uiso   1.00
H814   H     0.27516   0.54910   0.80390   0.00000  Uiso   1.00
H815   H     0.02879   0.54900   0.80399   0.00000  Uiso   1.00
H816   H     0.05806   0.45066   0.69645   0.00000  Uiso   1.00
H817   H     0.30427   0.45021   0.69718   0.00000  Uiso   1.00
H818   H     0.27295   0.45193   0.91867   0.00000  Uiso   1.00
H819   H     0.30468   0.47514   0.98895   0.00000  Uiso   1.00
H820   H     0.13543   0.51040   0.59036   0.00000  Uiso   1.00
H821   H     0.05812   0.53223   0.90826   0.00000  Uiso   1.00
H822   H     0.09994   0.54510   0.54490   0.00000  Uiso   1.00
H823   H     0.04292   0.55765   0.99556   0.00000  Uiso   1.00
H824   H     0.20861   0.45223   0.87748   0.00000  Uiso   1.00
H825   H     0.24303   0.62934   0.74804   0.00000  Uiso   1.00
N826   N     0.04931   0.49999   0.74998   0.00000  Uiso   1.00
N827   N     0.28402   0.50002   0.74999   0.00000  Uiso   1.00
O828   O     0.12708   0.56011   0.75000   0.00000  Uiso   1.00
O829   O     0.20627   0.56012   0.75000   0.00000  Uiso   1.00
O830   O     0.10775   0.49998   0.82549   0.00000  Uiso   1.00
O831   O     0.18694   0.49999   0.82549   0.00000  Uiso   1.00
O832   O     0.12706   0.43988   0.74999   0.00000  Uiso   1.00
O833   O     0.20625   0.43989   0.74999   0.00000  Uiso   1.00
O834   O     0.14640   0.50001   0.67451   0.00000  Uiso   1.00
O835   O     0.22559   0.50002   0.67451   0.00000  Uiso   1.00
C836   C     0.30148   0.50242   0.58420   0.00000  Uiso   1.00
C837   C     0.30388   0.54798   0.59966   0.00000  Uiso   1.00
C838   C     0.00728   0.55495   0.63022   0.00000  Uiso   1.00
H839   H     0.32235   0.55083   0.67191   0.00000  Uiso   1.00
H840   H     0.03839   0.53311   0.61844   0.00000  Uiso   1.00
H841   H     0.02149   0.58691   0.62441   0.00000  Uiso   1.00
H842   H     0.31386   0.56719   0.56448   0.00000  Uiso   1.00
H843   H     0.26772   0.55956   0.62314   0.00000  Uiso   1.00
H844   H     0.30014   0.48128   0.61654   0.00000  Uiso   1.00
H845   H     0.00299   0.49471   0.55462   0.00000  Uiso   1.00
C846   C     0.50003   0.57930   0.74994   0.00000  Uiso   1.00
C847   C     0.48221   0.50578   0.98696   0.00000  Uiso   1.00
C848   C     0.49213   0.49143   0.93538   0.00000  Uiso   1.00
C849   C     0.51681   0.49823   0.51436   0.00000  Uiso   1.00
C850   C     0.56352   0.48275   0.98775   0.00000  Uiso   1.00
C851   C     0.57183   0.46669   0.93818   0.00000  Uiso   1.00
C852   C     0.53522   0.46835   0.91385   0.00000  Uiso   1.00
C853   C     0.50596   0.50445   0.56768   0.00000  Uiso   1.00
C854   C     0.59166   0.49508   0.56314   0.00000  Uiso   1.00
C855   C     0.45963   0.50194   0.90629   0.00000  Uiso   1.00
C856   C     0.54289   0.64537   0.74880   0.00000  Uiso   1.00
C857   C     0.47418   0.49867   0.84980   0.00000  Uiso   1.00
C858   C     0.54289   0.35461   0.74880   0.00000  Uiso   1.00
C859   C     0.50008   0.37607   0.74975   0.00000  Uiso   1.00
C860   C     0.45731   0.35462   0.75058   0.00000  Uiso   1.00
C861   C     0.45730   0.64538   0.75061   0.00000  Uiso   1.00
C862   C     0.50008   0.62392   0.74978   0.00000  Uiso   1.00
C863   C     0.63370   0.52725   0.77994   0.00000  Uiso   1.00
C864   C     0.34997   0.52721   0.77997   0.00000  Uiso   1.00
C865   C     0.36622   0.47257   0.72032   0.00000  Uiso   1.00
C866   C     0.64988   0.47239   0.72062   0.00000  Uiso   1.00
C867   C     0.50002   0.42069   0.74989   0.00000  Uiso   1.00
C868   C     0.52626   0.50100   0.64999   0.00000  Uiso   1.00
C869   C     0.60114   0.48331   0.51130   0.00000  Uiso   1.00
C870   C     0.54214   0.50070   0.59299   0.00000  Uiso   1.00
C871   C     0.41642   0.52344   0.92989   0.00000  Uiso   1.00
C872   C     0.40742   0.53801   0.97985   0.00000  Uiso   1.00
C873   C     0.44006   0.52997   0.50801   0.00000  Uiso   1.00
Cu874  Cu    0.45311   0.49999   0.75000   0.00000  Uiso   1.00
Cu875  Cu    0.54689   0.50001   0.75000   0.00000  Uiso   1.00
H876   H     0.57635   0.37062   0.74806   0.00000  Uiso   1.00
H877   H     0.42385   0.37063   0.75128   0.00000  Uiso   1.00
H878   H     0.42384   0.62937   0.75135   0.00000  Uiso   1.00
H879   H     0.60849   0.54910   0.80390   0.00000  Uiso   1.00
H880   H     0.36212   0.54900   0.80399   0.00000  Uiso   1.00
H881   H     0.39140   0.45066   0.69645   0.00000  Uiso   1.00
H882   H     0.63761   0.45021   0.69718   0.00000  Uiso   1.00
H883   H     0.60628   0.45193   0.91867   0.00000  Uiso   1.00
H884   H     0.63801   0.47514   0.98895   0.00000  Uiso   1.00
H885   H     0.46876   0.51040   0.59036   0.00000  Uiso   1.00
H886   H     0.39145   0.53223   0.90826   0.00000  Uiso   1.00
H887   H     0.43327   0.54510   0.54490   0.00000  Uiso   1.00
H888   H     0.37625   0.55765   0.99556   0.00000  Uiso   1.00
H889   H     0.54195   0.45223   0.87748   0.00000  Uiso   1.00
H890   H     0.57636   0.62934   0.74804   0.00000  Uiso   1.00
N891   N     0.38265   0.49999   0.74998   0.00000  Uiso   1.00
N892   N     0.61735   0.50002   0.74999   0.00000  Uiso   1.00
O893   O     0.46042   0.56011   0.75000   0.00000  Uiso   1.00
O894   O     0.53961   0.56012   0.75000   0.00000  Uiso   1.00
O895   O     0.44108   0.49998   0.82549   0.00000  Uiso   1.00
O896   O     0.52027   0.49999   0.82549   0.00000  Uiso   1.00
O897   O     0.46039   0.43988   0.74999   0.00000  Uiso   1.00
O898   O     0.53958   0.43989   0.74999   0.00000  Uiso   1.00
O899   O     0.47973   0.50001   0.67451   0.00000  Uiso   1.00
O900   O     0.55892   0.50002   0.67451   0.00000  Uiso   1.00
C901   C     0.63481   0.50242   0.58420   0.00000  Uiso   1.00
C902   C     0.63721   0.54798   0.59966   0.00000  Uiso   1.00
C903   C     0.34061   0.55495   0.63022   0.00000  Uiso   1.00
H904   H     0.65568   0.55083   0.67191   0.00000  Uiso   1.00
H905   H     0.37172   0.53311   0.61844   0.00000  Uiso   1.00
H906   H     0.35483   0.58691   0.62441   0.00000  Uiso   1.00
H907   H     0.64720   0.56719   0.56448   0.00000  Uiso   1.00
H908   H     0.60106   0.55956   0.62314   0.00000  Uiso   1.00
H909   H     0.63347   0.48128   0.61654   0.00000  Uiso   1.00
H910   H     0.33632   0.49471   0.55462   0.00000  Uiso   1.00
C911   C     0.83336   0.57930   0.74994   0.00000  Uiso   1.00
C912   C     0.81555   0.50578   0.98696   0.00000  Uiso   1.00
C913   C     0.82546   0.49143   0.93538   0.00000  Uiso   1.00
C914   C     0.85015   0.49823   0.51436   0.00000  Uiso   1.00
C915   C     0.89685   0.48275   0.98775   0.00000  Uiso   1.00
C916   C     0.90517   0.46669   0.93818   0.00000  Uiso   1.00
C917   C     0.86855   0.46835   0.91385   0.00000  Uiso   1.00
C918   C     0.83929   0.50445   0.56768   0.00000  Uiso   1.00
C919   C     0.92500   0.49508   0.56314   0.00000  Uiso   1.00
C920   C     0.79296   0.50194   0.90629   0.00000  Uiso   1.00
C921   C     0.87622   0.64537   0.74880   0.00000  Uiso   1.00
C922   C     0.80752   0.49867   0.84980   0.00000  Uiso   1.00
C923   C     0.87622   0.35461   0.74880   0.00000  Uiso   1.00
C924   C     0.83341   0.37607   0.74975   0.00000  Uiso   1.00
C925   C     0.79064   0.35462   0.75058   0.00000  Uiso   1.00
C926   C     0.79064   0.64538   0.75061   0.00000  Uiso   1.00
C927   C     0.83341   0.62392   0.74978   0.00000  Uiso   1.00
C928   C     0.96704   0.52725   0.77994   0.00000  Uiso   1.00
C929   C     0.68330   0.52721   0.77997   0.00000  Uiso   1.00
C930   C     0.69955   0.47257   0.72032   0.00000  Uiso   1.00
C931   C     0.98321   0.47239   0.72062   0.00000  Uiso   1.00
C932   C     0.83336   0.42069   0.74989   0.00000  Uiso   1.00
C933   C     0.85959   0.50100   0.64999   0.00000  Uiso   1.00
C934   C     0.93448   0.48331   0.51130   0.00000  Uiso   1.00
C935   C     0.87547   0.50070   0.59299   0.00000  Uiso   1.00
C936   C     0.74975   0.52344   0.92989   0.00000  Uiso   1.00
C937   C     0.74075   0.53801   0.97985   0.00000  Uiso   1.00
C938   C     0.77339   0.52997   0.50801   0.00000  Uiso   1.00
Cu939  Cu    0.78645   0.49999   0.75000   0.00000  Uiso   1.00
Cu940  Cu    0.88022   0.50001   0.75000   0.00000  Uiso   1.00
H941   H     0.90968   0.37062   0.74806   0.00000  Uiso   1.00
H942   H     0.75719   0.37063   0.75128   0.00000  Uiso   1.00
H943   H     0.75717   0.62937   0.75135   0.00000  Uiso   1.00
H944   H     0.94183   0.54910   0.80390   0.00000  Uiso   1.00
H945   H     0.69545   0.54900   0.80399   0.00000  Uiso   1.00
H946   H     0.72473   0.45066   0.69645   0.00000  Uiso   1.00
H947   H     0.97094   0.45021   0.69718   0.00000  Uiso   1.00
H948   H     0.93961   0.45193   0.91867   0.00000  Uiso   1.00
H949   H     0.97134   0.47514   0.98895   0.00000  Uiso   1.00
H950   H     0.80209   0.51040   0.59036   0.00000  Uiso   1.00
H951   H     0.72478   0.53223   0.90826   0.00000  Uiso   1.00
H952   H     0.76660   0.54510   0.54490   0.00000  Uiso   1.00
H953   H     0.70959   0.55765   0.99556   0.00000  Uiso   1.00
H954   H     0.87528   0.45223   0.87748   0.00000  Uiso   1.00
H955   H     0.90969   0.62934   0.74804   0.00000  Uiso   1.00
N956   N     0.71598   0.49999   0.74998   0.00000  Uiso   1.00
N957   N     0.95069   0.50002   0.74999   0.00000  Uiso   1.00
O958   O     0.79375   0.56011   0.75000   0.00000  Uiso   1.00
O959   O     0.87294   0.56012   0.75000   0.00000  Uiso   1.00
O960   O     0.77441   0.49998   0.82549   0.00000  Uiso   1.00
O961   O     0.85360   0.49999   0.82549   0.00000  Uiso   1.00
O962   O     0.79373   0.43988   0.74999   0.00000  Uiso   1.00
O963   O     0.87292   0.43989   0.74999   0.00000  Uiso   1.00
O964   O     0.81306   0.50001   0.67451   0.00000  Uiso   1.00
O965   O     0.89225   0.50002   0.67451   0.00000  Uiso   1.00
C966   C     0.96814   0.50242   0.58420   0.00000  Uiso   1.00
C967   C     0.97054   0.54798   0.59966   0.00000  Uiso   1.00
C968   C     0.67395   0.55495   0.63022   0.00000  Uiso   1.00
H969   H     0.98901   0.55083   0.67191   0.00000  Uiso   1.00
H970   H     0.70505   0.53311   0.61844   0.00000  Uiso   1.00
H971   H     0.68816   0.58691   0.62441   0.00000  Uiso   1.00
H972   H     0.98053   0.56719   0.56448   0.00000  Uiso   1.00
H973   H     0.93439   0.55956   0.62314   0.00000  Uiso   1.00
H974   H     0.96680   0.48128   0.61654   0.00000  Uiso   1.00
H975   H     0.66966   0.49471   0.55462   0.00000  Uiso   1.00
C976   C     0.16670   0.91264   0.74994   0.00000  Uiso   1.00
C977   C     0.14888   0.83912   0.98696   0.00000  Uiso   1.00
C978   C     0.15880   0.82476   0.93538   0.00000  Uiso   1.00
C979   C     0.18348   0.83156   0.51436   0.00000  Uiso   1.00
C980   C     0.23019   0.81609   0.98775   0.00000  Uiso   1.00
C981   C     0.23850   0.80003   0.93818   0.00000  Uiso   1.00
C982   C     0.20188   0.80168   0.91385   0.00000  Uiso   1.00
C983   C     0.17263   0.83779   0.56768   0.00000  Uiso   1.00
C984   C     0.25833   0.82842   0.56314   0.00000  Uiso   1.00
C985   C     0.12630   0.83527   0.90629   0.00000  Uiso   1.00
C986   C     0.20956   0.97870   0.74880   0.00000  Uiso   1.00
C987   C     0.14085   0.83200   0.84980   0.00000  Uiso   1.00
C988   C     0.20955   0.68794   0.74880   0.00000  Uiso   1.00
C989   C     0.16674   0.70940   0.74975   0.00000  Uiso   1.00
C990   C     0.12398   0.68795   0.75058   0.00000  Uiso   1.00
C991   C     0.12397   0.97871   0.75061   0.00000  Uiso   1.00
C992   C     0.16674   0.95725   0.74978   0.00000  Uiso   1.00
C993   C     0.30037   0.86059   0.77994   0.00000  Uiso   1.00
C994   C     0.01664   0.86054   0.77997   0.00000  Uiso   1.00
C995   C     0.03289   0.80590   0.72032   0.00000  Uiso   1.00
C996   C     0.31655   0.80573   0.72062   0.00000  Uiso   1.00
C997   C     0.16669   0.75403   0.74989   0.00000  Uiso   1.00
C998   C     0.19292   0.83434   0.64999   0.00000  Uiso   1.00
C999   C     0.26781   0.81664   0.51130   0.00000  Uiso   1.00
C1000  C     0.20880   0.83403   0.59299   0.00000  Uiso   1.00
C1001  C     0.08308   0.85677   0.92989   0.00000  Uiso   1.00
C1002  C     0.07408   0.87134   0.97985   0.00000  Uiso   1.00
C1003  C     0.10673   0.86331   0.50801   0.00000  Uiso   1.00
Cu1004 Cu    0.11978   0.83333   0.75000   0.00000  Uiso   1.00
Cu1005 Cu    0.21355   0.83334   0.75000   0.00000  Uiso   1.00
H1006  H     0.24301   0.70396   0.74806   0.00000  Uiso   1.00
H1007  H     0.09052   0.70396   0.75128   0.00000  Uiso   1.00
H1008  H     0.09051   0.96270   0.75135   0.00000  Uiso   1.00
H1009  H     0.27516   0.88244   0.80390   0.00000  Uiso   1.00
H1010  H     0.02879   0.88233   0.80399   0.00000  Uiso   1.00
H1011  H     0.05806   0.78399   0.69645   0.00000  Uiso   1.00
H1012  H     0.30427   0.78354   0.69718   0.00000  Uiso   1.00
H1013  H     0.27295   0.78526   0.91867   0.00000  Uiso   1.00
H1014  H     0.30468   0.80847   0.98895   0.00000  Uiso   1.00
H1015  H     0.13543   0.84374   0.59036   0.00000  Uiso   1.00
H1016  H     0.05812   0.86556   0.90826   0.00000  Uiso   1.00
H1017  H     0.09994   0.87843   0.54490   0.00000  Uiso   1.00
H1018  H     0.04292   0.89098   0.99556   0.00000  Uiso   1.00
H1019  H     0.20861   0.78556   0.87748   0.00000  Uiso   1.00
H1020  H     0.24303   0.96268   0.74804   0.00000  Uiso   1.00
N1021  N     0.04931   0.83332   0.74998   0.00000  Uiso   1.00
N1022  N     0.28402   0.83335   0.74999   0.00000  Uiso   1.00
O1023  O     0.12708   0.89345   0.75000   0.00000  Uiso   1.00
O1024  O     0.20627   0.89346   0.75000   0.00000  Uiso   1.00
O1025  O     0.10775   0.83332   0.82549   0.00000  Uiso   1.00
O1026  O     0.18694   0.83333   0.82549   0.00000  Uiso   1.00
O1027  O     0.12706   0.77321   0.74999   0.00000  Uiso   1.00
O1028  O     0.20625   0.77322   0.74999   0.00000  Uiso   1.00
O1029  O     0.14640   0.83334   0.67451   0.00000  Uiso   1.00
O1030  O     0.22559   0.83335   0.67451   0.00000  Uiso   1.00
C1031  C     0.30148   0.83575   0.58420   0.00000  Uiso   1.00
C1032  C     0.30388   0.88131   0.59966   0.00000  Uiso   1.00
C1033  C     0.00728   0.88828   0.63022   0.00000  Uiso   1.00
H1034  H     0.32235   0.88417   0.67191   0.00000  Uiso   1.00
H1035  H     0.03839   0.86644   0.61844   0.00000  Uiso   1.00
H1036  H     0.02149   0.92025   0.62441   0.00000  Uiso   1.00
H1037  H     0.31386   0.90053   0.56448   0.00000  Uiso   1.00
H1038  H     0.26772   0.89290   0.62314   0.00000  Uiso   1.00
H1039  H     0.30014   0.81461   0.61654   0.00000  Uiso   1.00
H1040  H     0.00299   0.82804   0.55462   0.00000  Uiso   1.00
C1041  C     0.50003   0.91264   0.74994   0.00000  Uiso   1.00
C1042  C     0.48221   0.83912   0.98696   0.00000  Uiso   1.00
C1043  C     0.49213   0.82476   0.93538   0.00000  Uiso   1.00
C1044  C     0.51681   0.83156   0.51436   0.00000  Uiso   1.00
C1045  C     0.56352   0.81609   0.98775   0.00000  Uiso   1.00
C1046  C     0.57183   0.80003   0.93818   0.00000  Uiso   1.00
C1047  C     0.53522   0.80168   0.91385   0.00000  Uiso   1.00
C1048  C     0.50596   0.83779   0.56768   0.00000  Uiso   1.00
C1049  C     0.59166   0.82842   0.56314   0.00000  Uiso   1.00
C1050  C     0.45963   0.83527   0.90629   0.00000  Uiso   1.00
C1051  C     0.54289   0.97870   0.74880   0.00000  Uiso   1.00
C1052  C     0.47418   0.83200   0.84980   0.00000  Uiso   1.00
C1053  C     0.54289   0.68794   0.74880   0.00000  Uiso   1.00
C1054  C     0.50008   0.70940   0.74975   0.00000  Uiso   1.00
C1055  C     0.45731   0.68795   0.75058   0.00000  Uiso   1.00
C1056  C     0.45730   0.97871   0.75061   0.00000  Uiso   1.00
C1057  C     0.50008   0.95725   0.74978   0.00000  Uiso   1.00
C1058  C     0.63370   0.86059   0.77994   0.00000  Uiso   1.00
C1059  C     0.34997   0.86054   0.77997   0.00000  Uiso   1.00
C1060  C     0.36622   0.80590   0.72032   0.00000  Uiso   1.00
C1061  C     0.64988   0.80573   0.72062   0.00000  Uiso   1.00
C1062  C     0.50002   0.75403   0.74989   0.00000  Uiso   1.00
C1063  C     0.52626   0.83434   0.64999   0.00000  Uiso   1.00
C1064  C     0.60114   0.81664   0.51130   0.00000  Uiso   1.00
C1065  C     0.54214   0.83403   0.59299   0.00000  Uiso   1.00
C1066  C     0.41642   0.85677   0.92989   0.00000  Uiso   1.00
C1067  C     0.40742   0.87134   0.97985   0.00000  Uiso   1.00
C1068  C     0.44006   0.86331   0.50801   0.00000  Uiso   1.00
Cu1069 Cu    0.45311   0.83333   0.75000   0.00000  Uiso   1.00
Cu1070 Cu    0.54689   0.83334   0.75000   0.00000  Uiso   1.00
H1071  H     0.57635   0.70396   0.74806   0.00000  Uiso   1.00
H1072  H     0.42385   0.70396   0.75128   0.00000  Uiso   1.00
H1073  H     0.42384   0.96270   0.75135   0.00000  Uiso   1.00
H1074  H     0.60849   0.88244   0.80390   0.00000  Uiso   1.00
H1075  H     0.36212   0.88233   0.80399   0.00000  Uiso   1.00
H1076  H     0.39140   0.78399   0.69645   0.00000  Uiso   1.00
H1077  H     0.63761   0.78354   0.69718   0.00000  Uiso   1.00
H1078  H     0.60628   0.78526   0.91867   0.00000  Uiso   1.00
H1079  H     0.63801   0.80847   0.98895   0.00000  Uiso   1.00
H1080  H     0.46876   0.84374   0.59036   0.00000  Uiso   1.00
H1081  H     0.39145   0.86556   0.90826   0.00000  Uiso   1.00
H1082  H     0.43327   0.87843   0.54490   0.00000  Uiso   1.00
H1083  H     0.37625   0.89098   0.99556   0.00000  Uiso   1.00
H1084  H     0.54195   0.78556   0.87748   0.00000  Uiso   1.00
H1085  H     0.57636   0.96268   0.74804   0.00000  Uiso   1.00
N1086  N     0.38265   0.83332   0.74998   0.00000  Uiso   1.00
N1087  N     0.61735   0.83335   0.74999   0.00000  Uiso   1.00
O1088  O     0.46042   0.89345   0.75000   0.00000  Uiso   1.00
O1089  O     0.53961   0.89346   0.75000   0.00000  Uiso   1.00
O1090  O     0.44108   0.83332   0.82549   0.00000  Uiso   1.00
O1091  O     0.52027   0.83333   0.82549   0.00000  Uiso   1.00
O1092  O     0.46039   0.77321   0.74999   0.00000  Uiso   1.00
O1093  O     0.53958   0.77322   0.74999   0.00000  Uiso   1.00
O1094  O     0.47973   0.83334   0.67451   0.00000  Uiso   1.00
O1095  O     0.55892   0.83335   0.67451   0.00000  Uiso   1.00
C1096  C     0.63481   0.83575   0.58420   0.00000  Uiso   1.00
C1097  C     0.63721   0.88131   0.59966   0.00000  Uiso   1.00
C1098  C     0.34061   0.88828   0.63022   0.00000  Uiso   1.00
H1099  H     0.65568   0.88417   0.67191   0.00000  Uiso   1.00
H1100  H     0.37172   0.86644   0.61844   0.00000  Uiso   1.00
H1101  H     0.35483   0.92025   0.62441   0.00000  Uiso   1.00
H1102  H     0.64720   0.90053   0.56448   0.00000  Uiso   1.00
H1103  H     0.60106   0.89290   0.62314   0.00000  Uiso   1.00
H1104  H     0.63347   0.81461   0.61654   0.00000  Uiso   1.00
H1105  H     0.33632   0.82804   0.55462   0.00000  Uiso   1.00
C1106  C     0.83336   0.91264   0.74994   0.00000  Uiso   1.00
C1107  C     0.81555   0.83912   0.98696   0.00000  Uiso   1.00
C1108  C     0.82546   0.82476   0.93538   0.00000  Uiso   1.00
C1109  C     0.85015   0.83156   0.51436   0.00000  Uiso   1.00
C1110  C     0.89685   0.81609   0.98775   0.00000  Uiso   1.00
C1111  C     0.90517   0.80003   0.93818   0.00000  Uiso   1.00
C1112  C     0.86855   0.80168   0.91385   0.00000  Uiso   1.00
C1113  C     0.83929   0.83779   0.56768   0.00000  Uiso   1.00
C1114  C     0.92500   0.82842   0.56314   0.00000  Uiso   1.00
C1115  C     0.79296   0.83527   0.90629   0.00000  Uiso   1.00
C1116  C     0.87622   0.97870   0.74880   0.00000  Uiso   1.00
C1117  C     0.80752   0.83200   0.84980   0.00000  Uiso   1.00
C1118  C     0.87622   0.68794   0.74880   0.00000  Uiso   1.00
C1119  C     0.83341   0.70940   0.74975   0.00000  Uiso   1.00
C1120  C     0.79064   0.68795   0.75058   0.00000  Uiso   1.00
C1121  C     0.79064   0.97871   0.75061   0.00000  Uiso   1.00
C1122  C     0.83341   0.95725   0.74978   0.00000  Uiso   1.00
C1123  C     0.96704   0.86059   0.77994   0.00000  Uiso   1.00
C1124  C     0.68330   0.86054   0.77997   0.00000  Uiso   1.00
C1125  C     0.69955   0.80590   0.72032   0.00000  Uiso   1.00
C1126  C     0.98321   0.80573   0.72062   0.00000  Uiso   1.00
C1127  C     0.83336   0.75403   0.74989   0.00000  Uiso   1.00
C1128  C     0.85959   0.83434   0.64999   0.00000  Uiso   1.00
C1129  C     0.93448   0.81664   0.51130   0.00000  Uiso   1.00
C1130  C     0.87547   0.83403   0.59299   0.00000  Uiso   1.00
C1131  C     0.74975   0.85677   0.92989   0.00000  Uiso   1.00
C1132  C     0.74075   0.87134   0.97985   0.00000  Uiso   1.00
C1133  C     0.77339   0.86331   0.50801   0.00000  Uiso   1.00
Cu1134 Cu    0.78645   0.83333   0.75000   0.00000  Uiso   1.00
Cu1135 Cu    0.88022   0.83334   0.75000   0.00000  Uiso   1.00
H1136  H     0.90968   0.70396   0.74806   0.00000  Uiso   1.00
H1137  H     0.75719   0.70396   0.75128   0.00000  Uiso   1.00
H1138  H     0.75717   0.96270   0.75135   0.00000  Uiso   1.00
H1139  H     0.94183   0.88244   0.80390   0.00000  Uiso   1.00
H1140  H     0.69545   0.88233   0.80399   0.00000  Uiso   1.00
H1141  H     0.72473   0.78399   0.69645   0.00000  Uiso   1.00
H1142  H     0.97094   0.78354   0.69718   0.00000  Uiso   1.00
H1143  H     0.93961   0.78526   0.91867   0.00000  Uiso   1.00
H1144  H     0.97134   0.80847   0.98895   0.00000  Uiso   1.00
H1145  H     0.80209   0.84374   0.59036   0.00000  Uiso   1.00
H1146  H     0.72478   0.86556   0.90826   0.00000  Uiso   1.00
H1147  H     0.76660   0.87843   0.54490   0.00000  Uiso   1.00
H1148  H     0.70959   0.89098   0.99556   0.00000  Uiso   1.00
H1149  H     0.87528   0.78556   0.87748   0.00000  Uiso   1.00
H1150  H     0.90969   0.96268   0.74804   0.00000  Uiso   1.00
N1151  N     0.71598   0.83332   0.74998   0.00000  Uiso   1.00
N1152  N     0.95069   0.83335   0.74999   0.00000  Uiso   1.00
O1153  O     0.79375   0.89345   0.75000   0.00000  Uiso   1.00
O1154  O     0.87294   0.89346   0.75000   0.00000  Uiso   1.00
O1155  O     0.77441   0.83332   0.82549   0.00000  Uiso   1.00
O1156  O     0.85360   0.83333   0.82549   0.00000  Uiso   1.00
O1157  O     0.79373   0.77321   0.74999   0.00000  Uiso   1.00
O1158  O     0.87292   0.77322   0.74999   0.00000  Uiso   1.00
O1159  O     0.81306   0.83334   0.67451   0.00000  Uiso   1.00
O1160  O     0.89225   0.83335   0.67451   0.00000  Uiso   1.00
C1161  C     0.96814   0.83575   0.58420   0.00000  Uiso   1.00
C1162  C     0.97054   0.88131   0.59966   0.00000  Uiso   1.00
C1163  C     0.67395   0.88828   0.63022   0.00000  Uiso   1.00
H1164  H     0.98901   0.88417   0.67191   0.00000  Uiso   1.00
H1165  H     0.70505   0.86644   0.61844   0.00000  Uiso   1.00
H1166  H     0.68816   0.92025   0.62441   0.00000  Uiso   1.00
H1167  H     0.98053   0.90053   0.56448   0.00000  Uiso   1.00
H1168  H     0.93439   0.89290   0.62314   0.00000  Uiso   1.00
H1169  H     0.96680   0.81461   0.61654   0.00000  Uiso   1.00
H1170  H     0.66966   0.82804   0.55462   0.00000  Uiso   1.00
loop_
_geom_bond_atom_site_label_1
_geom_bond_atom_site_label_2
_geom_bond_distance
_geom_bond_site_symmetry_2
_ccdc_geom_bond_type
C1     C17     1.450   .     S
C1     O48     1.291   .     A
C1     O49     1.291   .     A
C2     C3      1.419   .     A
C2     C589    1.418   .     S
C2     C613    1.412   .     S
C3     C7      1.414   .     A
C3     C10     1.422   .     A
C4     C8      1.400   .     A
C4     C587    1.418   1_554 S
C4     C590    1.412   1_554 S
C5     C6      1.392   .     A
C5     C589    1.412   .     S
C5     C609    1.398   .     S
C6     C7      1.388   .     A
C6     H38     1.084   .     S
C7     H44     1.080   .     S
C8     C25     1.400   .     A
C8     H40     1.080   .     S
C9     C24     1.402   .     A
C9     C25     1.424   .     A
C9     C56     1.518   .     S
C10    C26     1.400   .     A
C10    C12     1.467   .     S
C11    H45     1.083   .     S
C11    C17     1.401   .     A
C11    C208    1.384   .     S
C12    O50     1.299   .     A
C12    O51     1.292   .     A
C13    C14     1.401   .     A
C13    H31     1.083   .     S
C13    C401    1.384   1_545 S
C14    C22     1.450   .     S
C14    C15     1.401   .     A
C15    H32     1.083   .     S
C15    C406    1.383   1_545 S
C16    H33     1.083   .     S
C16    C17     1.401   .     A
C16    C210    1.383   .     S
C18    N47     1.367   .     A
C18    H34     1.082   .     S
C18    C84     1.417   .     S
C19    N46     1.367   .     A
C19    H35     1.082   .     S
C19    C148    1.417   1_455 S
C20    H36     1.082   .     S
C20    N46     1.367   .     A
C20    C151    1.416   1_455 S
C21    H37     1.081   .     S
C21    N47     1.367   .     A
C21    C85     1.416   .     S
C22    O53     1.291   .     A
C22    O52     1.291   .     A
C23    O55     1.291   .     A
C23    C25     1.477   .     S
C23    O54     1.304   .     A
C24    C590    1.398   1_554 S
C24    H624    1.085   1_554 S
C26    C27     1.383   .     A
C26    H41     1.084   .     S
C27    H43     1.077   .     S
C27    C613    1.389   .     S
C28    H42     1.077   .     S
C28    C587    1.412   1_554 S
C28    C612    1.389   1_554 S
Cu29   N46     2.013   .     S
Cu29   Cu30    2.678   .     S
Cu29   O50     1.971   .     S
Cu29   O54     1.964   .     S
Cu29   O48     1.965   .     S
Cu29   O52     1.964   .     S
Cu30   O51     1.964   .     S
Cu30   O55     1.971   .     S
Cu30   O49     1.964   .     S
Cu30   O53     1.965   .     S
Cu30   N47     2.013   .     S
H39    C609    1.085   .     S
C56    H64     1.107   .     S
C56    C57     1.544   .     S
C56    H130    1.111   .     S
C57    H62     1.107   .     S
C57    H63     1.110   .     S
C57    C123    1.528   .     S
C58    H61     1.110   .     S
C58    H60     1.109   .     S
C58    C187    1.528   1_455 S
C58    H189    1.107   1_455 S
H59    C123    1.107   .     S
H65    C186    1.111   1_455 S
C66    C82     1.450   .     S
C66    O113    1.291   .     A
C66    O114    1.291   .     A
C67    C68     1.419   .     A
C67    C654    1.418   .     S
C67    C678    1.412   .     S
C68    C72     1.414   .     A
C68    C75     1.422   .     A
C69    C73     1.400   .     A
C69    C652    1.418   1_554 S
C69    C655    1.412   1_554 S
C70    C71     1.392   .     A
C70    C654    1.412   .     S
C70    C674    1.398   .     S
C71    C72     1.388   .     A
C71    H103    1.084   .     S
C72    H109    1.080   .     S
C73    C90     1.400   .     A
C73    H105    1.080   .     S
C74    C89     1.402   .     A
C74    C90     1.424   .     A
C74    C121    1.518   .     S
C75    C91     1.400   .     A
C75    C77     1.467   .     S
C76    H110    1.083   .     S
C76    C82     1.401   .     A
C76    C273    1.384   .     S
C77    O115    1.299   .     A
C77    O116    1.292   .     A
C78    C79     1.401   .     A
C78    H96     1.083   .     S
C78    C466    1.384   1_545 S
C79    C87     1.450   .     S
C79    C80     1.401   .     A
C80    H97     1.083   .     S
C80    C471    1.383   1_545 S
C81    H98     1.083   .     S
C81    C82     1.401   .     A
C81    C275    1.383   .     S
C83    N112    1.367   .     A
C83    H99     1.082   .     S
C83    C149    1.417   .     S
C84    N111    1.367   .     A
C84    H100    1.082   .     S
C85    H101    1.082   .     S
C85    N111    1.367   .     A
C86    H102    1.081   .     S
C86    N112    1.367   .     A
C86    C150    1.416   .     S
C87    O118    1.291   .     A
C87    O117    1.291   .     A
C88    O120    1.291   .     A
C88    C90     1.477   .     S
C88    O119    1.304   .     A
C89    C655    1.398   1_554 S
C89    H689    1.085   1_554 S
C91    C92     1.383   .     A
C91    H106    1.084   .     S
C92    H108    1.077   .     S
C92    C678    1.389   .     S
C93    H107    1.077   .     S
C93    C652    1.412   1_554 S
C93    C677    1.389   1_554 S
Cu94   N111    2.013   .     S
Cu94   Cu95    2.678   .     S
Cu94   O115    1.971   .     S
Cu94   O119    1.964   .     S
Cu94   O113    1.965   .     S
Cu94   O117    1.964   .     S
Cu95   O116    1.964   .     S
Cu95   O120    1.971   .     S
Cu95   O114    1.964   .     S
Cu95   O118    1.965   .     S
Cu95   N112    2.013   .     S
H104   C674    1.085   .     S
C121   H129    1.107   .     S
C121   C122    1.544   .     S
C121   H195    1.111   .     S
C122   H127    1.107   .     S
C122   H128    1.110   .     S
C122   C188    1.528   .     S
C123   H126    1.110   .     S
C123   H125    1.109   .     S
H124   C188    1.107   .     S
C131   C147    1.450   .     S
C131   O178    1.291   .     A
C131   O179    1.291   .     A
C132   C133    1.419   .     A
C132   C719    1.418   .     S
C132   C743    1.412   .     S
C133   C137    1.414   .     A
C133   C140    1.422   .     A
C134   C138    1.400   .     A
C134   C717    1.418   1_554 S
C134   C720    1.412   1_554 S
C135   C136    1.392   .     A
C135   C719    1.412   .     S
C135   C739    1.398   .     S
C136   C137    1.388   .     A
C136   H168    1.084   .     S
C137   H174    1.080   .     S
C138   C155    1.400   .     A
C138   H170    1.080   .     S
C139   C154    1.402   .     A
C139   C155    1.424   .     A
C139   C186    1.518   .     S
C140   C156    1.400   .     A
C140   C142    1.467   .     S
C141   H175    1.083   .     S
C141   C147    1.401   .     A
C141   C338    1.384   .     S
C142   O180    1.299   .     A
C142   O181    1.292   .     A
C143   C144    1.401   .     A
C143   H161    1.083   .     S
C143   C531    1.384   1_545 S
C144   C152    1.450   .     S
C144   C145    1.401   .     A
C145   H162    1.083   .     S
C145   C536    1.383   1_545 S
C146   H163    1.083   .     S
C146   C147    1.401   .     A
C146   C340    1.383   .     S
C148   N177    1.367   .     A
C148   H164    1.082   .     S
C148   C19     1.417   1_655 S
C149   N176    1.367   .     A
C149   H165    1.082   .     S
C150   H166    1.082   .     S
C150   N176    1.367   .     A
C151   H167    1.081   .     S
C151   N177    1.367   .     A
C151   C20     1.416   1_655 S
C152   O183    1.291   .     A
C152   O182    1.291   .     A
C153   O185    1.291   .     A
C153   C155    1.477   .     S
C153   O184    1.304   .     A
C154   C720    1.398   1_554 S
C154   H754    1.085   1_554 S
C156   C157    1.383   .     A
C156   H171    1.084   .     S
C157   H173    1.077   .     S
C157   C743    1.389   .     S
C158   H172    1.077   .     S
C158   C717    1.412   1_554 S
C158   C742    1.389   1_554 S
Cu159  N176    2.013   .     S
Cu159  Cu160   2.678   .     S
Cu159  O180    1.971   .     S
Cu159  O184    1.964   .     S
Cu159  O178    1.965   .     S
Cu159  O182    1.964   .     S
Cu160  O181    1.964   .     S
Cu160  O185    1.971   .     S
Cu160  O179    1.964   .     S
Cu160  O183    1.965   .     S
Cu160  N177    2.013   .     S
H169   C739    1.085   .     S
C186   H194    1.107   .     S
C186   C187    1.544   .     S
C186   H65     1.111   1_655 S
C187   H192    1.107   .     S
C187   H193    1.110   .     S
C187   C58     1.528   1_655 S
C188   H191    1.110   .     S
C188   H190    1.109   .     S
H189   C58     1.107   1_655 S
C196   C212    1.450   .     S
C196   O243    1.291   .     A
C196   O244    1.291   .     A
C197   C198    1.419   .     A
C197   C784    1.418   .     S
C197   C808    1.412   .     S
C198   C202    1.414   .     A
C198   C205    1.422   .     A
C199   C203    1.400   .     A
C199   C782    1.418   1_554 S
C199   C785    1.412   1_554 S
C200   C201    1.392   .     A
C200   C784    1.412   .     S
C200   C804    1.398   .     S
C201   C202    1.388   .     A
C201   H233    1.084   .     S
C202   H239    1.080   .     S
C203   C220    1.400   .     A
C203   H235    1.080   .     S
C204   C219    1.402   .     A
C204   C220    1.424   .     A
C204   C251    1.518   .     S
C205   C221    1.400   .     A
C205   C207    1.467   .     S
C206   H240    1.083   .     S
C206   C212    1.401   .     A
C206   C403    1.384   .     S
C207   O245    1.299   .     A
C207   O246    1.292   .     A
C208   C209    1.401   .     A
C208   H226    1.083   .     S
C209   C217    1.450   .     S
C209   C210    1.401   .     A
C210   H227    1.083   .     S
C211   H228    1.083   .     S
C211   C212    1.401   .     A
C211   C405    1.383   .     S
C213   N242    1.367   .     A
C213   H229    1.082   .     S
C213   C279    1.417   .     S
C214   N241    1.367   .     A
C214   H230    1.082   .     S
C214   C343    1.417   1_455 S
C215   H231    1.082   .     S
C215   N241    1.367   .     A
C215   C346    1.416   1_455 S
C216   H232    1.081   .     S
C216   N242    1.367   .     A
C216   C280    1.416   .     S
C217   O248    1.291   .     A
C217   O247    1.291   .     A
C218   O250    1.291   .     A
C218   C220    1.477   .     S
C218   O249    1.304   .     A
C219   C785    1.398   1_554 S
C219   H819    1.085   1_554 S
C221   C222    1.383   .     A
C221   H236    1.084   .     S
C222   H238    1.077   .     S
C222   C808    1.389   .     S
C223   H237    1.077   .     S
C223   C782    1.412   1_554 S
C223   C807    1.389   1_554 S
Cu224  N241    2.013   .     S
Cu224  Cu225   2.678   .     S
Cu224  O245    1.971   .     S
Cu224  O249    1.964   .     S
Cu224  O243    1.965   .     S
Cu224  O247    1.964   .     S
Cu225  O246    1.964   .     S
Cu225  O250    1.971   .     S
Cu225  O244    1.964   .     S
Cu225  O248    1.965   .     S
Cu225  N242    2.013   .     S
H234   C804    1.085   .     S
C251   H259    1.107   .     S
C251   C252    1.544   .     S
C251   H325    1.111   .     S
C252   H257    1.107   .     S
C252   H258    1.110   .     S
C252   C318    1.528   .     S
C253   H256    1.110   .     S
C253   H255    1.109   .     S
C253   C382    1.528   1_455 S
C253   H384    1.107   1_455 S
H254   C318    1.107   .     S
H260   C381    1.111   1_455 S
C261   C277    1.450   .     S
C261   O308    1.291   .     A
C261   O309    1.291   .     A
C262   C263    1.419   .     A
C262   C849    1.418   .     S
C262   C873    1.412   .     S
C263   C267    1.414   .     A
C263   C270    1.422   .     A
C264   C268    1.400   .     A
C264   C847    1.418   1_554 S
C264   C850    1.412   1_554 S
C265   C266    1.392   .     A
C265   C849    1.412   .     S
C265   C869    1.398   .     S
C266   C267    1.388   .     A
C266   H298    1.084   .     S
C267   H304    1.080   .     S
C268   C285    1.400   .     A
C268   H300    1.080   .     S
C269   C284    1.402   .     A
C269   C285    1.424   .     A
C269   C316    1.518   .     S
C270   C286    1.400   .     A
C270   C272    1.467   .     S
C271   H305    1.083   .     S
C271   C277    1.401   .     A
C271   C468    1.384   .     S
C272   O310    1.299   .     A
C272   O311    1.292   .     A
C273   C274    1.401   .     A
C273   H291    1.083   .     S
C274   C282    1.450   .     S
C274   C275    1.401   .     A
C275   H292    1.083   .     S
C276   H293    1.083   .     S
C276   C277    1.401   .     A
C276   C470    1.383   .     S
C278   N307    1.367   .     A
C278   H294    1.082   .     S
C278   C344    1.417   .     S
C279   N306    1.367   .     A
C279   H295    1.082   .     S
C280   H296    1.082   .     S
C280   N306    1.367   .     A
C281   H297    1.081   .     S
C281   N307    1.367   .     A
C281   C345    1.416   .     S
C282   O313    1.291   .     A
C282   O312    1.291   .     A
C283   O315    1.291   .     A
C283   C285    1.477   .     S
C283   O314    1.304   .     A
C284   C850    1.398   1_554 S
C284   H884    1.085   1_554 S
C286   C287    1.383   .     A
C286   H301    1.084   .     S
C287   H303    1.077   .     S
C287   C873    1.389   .     S
C288   H302    1.077   .     S
C288   C847    1.412   1_554 S
C288   C872    1.389   1_554 S
Cu289  N306    2.013   .     S
Cu289  Cu290   2.678   .     S
Cu289  O310    1.971   .     S
Cu289  O314    1.964   .     S
Cu289  O308    1.965   .     S
Cu289  O312    1.964   .     S
Cu290  O311    1.964   .     S
Cu290  O315    1.971   .     S
Cu290  O309    1.964   .     S
Cu290  O313    1.965   .     S
Cu290  N307    2.013   .     S
H299   C869    1.085   .     S
C316   H324    1.107   .     S
C316   C317    1.544   .     S
C316   H390    1.111   .     S
C317   H322    1.107   .     S
C317   H323    1.110   .     S
C317   C383    1.528   .     S
C318   H321    1.110   .     S
C318   H320    1.109   .     S
H319   C383    1.107   .     S
C326   C342    1.450   .     S
C326   O373    1.291   .     A
C326   O374    1.291   .     A
C327   C328    1.419   .     A
C327   C914    1.418   .     S
C327   C938    1.412   .     S
C328   C332    1.414   .     A
C328   C335    1.422   .     A
C329   C333    1.400   .     A
C329   C912    1.418   1_554 S
C329   C915    1.412   1_554 S
C330   C331    1.392   .     A
C330   C914    1.412   .     S
C330   C934    1.398   .     S
C331   C332    1.388   .     A
C331   H363    1.084   .     S
C332   H369    1.080   .     S
C333   C350    1.400   .     A
C333   H365    1.080   .     S
C334   C349    1.402   .     A
C334   C350    1.424   .     A
C334   C381    1.518   .     S
C335   C351    1.400   .     A
C335   C337    1.467   .     S
C336   H370    1.083   .     S
C336   C342    1.401   .     A
C336   C533    1.384   .     S
C337   O375    1.299   .     A
C337   O376    1.292   .     A
C338   C339    1.401   .     A
C338   H356    1.083   .     S
C339   C347    1.450   .     S
C339   C340    1.401   .     A
C340   H357    1.083   .     S
C341   H358    1.083   .     S
C341   C342    1.401   .     A
C341   C535    1.383   .     S
C343   N372    1.367   .     A
C343   H359    1.082   .     S
C343   C214    1.417   1_655 S
C344   N371    1.367   .     A
C344   H360    1.082   .     S
C345   H361    1.082   .     S
C345   N371    1.367   .     A
C346   H362    1.081   .     S
C346   N372    1.367   .     A
C346   C215    1.416   1_655 S
C347   O378    1.291   .     A
C347   O377    1.291   .     A
C348   O380    1.291   .     A
C348   C350    1.477   .     S
C348   O379    1.304   .     A
C349   C915    1.398   1_554 S
C349   H949    1.085   1_554 S
C351   C352    1.383   .     A
C351   H366    1.084   .     S
C352   H368    1.077   .     S
C352   C938    1.389   .     S
C353   H367    1.077   .     S
C353   C912    1.412   1_554 S
C353   C937    1.389   1_554 S
Cu354  N371    2.013   .     S
Cu354  Cu355   2.678   .     S
Cu354  O375    1.971   .     S
Cu354  O379    1.964   .     S
Cu354  O373    1.965   .     S
Cu354  O377    1.964   .     S
Cu355  O376    1.964   .     S
Cu355  O380    1.971   .     S
Cu355  O374    1.964   .     S
Cu355  O378    1.965   .     S
Cu355  N372    2.013   .     S
H364   C934    1.085   .     S
C381   H389    1.107   .     S
C381   C382    1.544   .     S
C381   H260    1.111   1_655 S
C382   H387    1.107   .     S
C382   H388    1.110   .     S
C382   C253    1.528   1_655 S
C383   H386    1.110   .     S
C383   H385    1.109   .     S
H384   C253    1.107   1_655 S
C391   C407    1.450   .     S
C391   O438    1.291   .     A
C391   O439    1.291   .     A
C392   C393    1.419   .     A
C392   C979    1.418   .     S
C392   C1003   1.412   .     S
C393   C397    1.414   .     A
C393   C400    1.422   .     A
C394   C398    1.400   .     A
C394   C977    1.418   1_554 S
C394   C980    1.412   1_554 S
C395   C396    1.392   .     A
C395   C979    1.412   .     S
C395   C999    1.398   .     S
C396   C397    1.388   .     A
C396   H428    1.084   .     S
C397   H434    1.080   .     S
C398   C415    1.400   .     A
C398   H430    1.080   .     S
C399   C414    1.402   .     A
C399   C415    1.424   .     A
C399   C446    1.518   .     S
C400   C416    1.400   .     A
C400   C402    1.467   .     S
C401   H435    1.083   .     S
C401   C407    1.401   .     A
C401   C13     1.384   1_565 S
C402   O440    1.299   .     A
C402   O441    1.292   .     A
C403   C404    1.401   .     A
C403   H421    1.083   .     S
C404   C412    1.450   .     S
C404   C405    1.401   .     A
C405   H422    1.083   .     S
C406   H423    1.083   .     S
C406   C407    1.401   .     A
C406   C15     1.383   1_565 S
C408   N437    1.367   .     A
C408   H424    1.082   .     S
C408   C474    1.417   .     S
C409   N436    1.367   .     A
C409   H425    1.082   .     S
C409   C538    1.417   1_455 S
C410   H426    1.082   .     S
C410   N436    1.367   .     A
C410   C541    1.416   1_455 S
C411   H427    1.081   .     S
C411   N437    1.367   .     A
C411   C475    1.416   .     S
C412   O443    1.291   .     A
C412   O442    1.291   .     A
C413   O445    1.291   .     A
C413   C415    1.477   .     S
C413   O444    1.304   .     A
C414   C980    1.398   1_554 S
C414   H1014   1.085   1_554 S
C416   C417    1.383   .     A
C416   H431    1.084   .     S
C417   H433    1.077   .     S
C417   C1003   1.389   .     S
C418   H432    1.077   .     S
C418   C977    1.412   1_554 S
C418   C1002   1.389   1_554 S
Cu419  N436    2.013   .     S
Cu419  Cu420   2.678   .     S
Cu419  O440    1.971   .     S
Cu419  O444    1.964   .     S
Cu419  O438    1.965   .     S
Cu419  O442    1.964   .     S
Cu420  O441    1.964   .     S
Cu420  O445    1.971   .     S
Cu420  O439    1.964   .     S
Cu420  O443    1.965   .     S
Cu420  N437    2.013   .     S
H429   C999    1.085   .     S
C446   H454    1.107   .     S
C446   C447    1.544   .     S
C446   H520    1.111   .     S
C447   H452    1.107   .     S
C447   H453    1.110   .     S
C447   C513    1.528   .     S
C448   H451    1.110   .     S
C448   H450    1.109   .     S
C448   C577    1.528   1_455 S
C448   H579    1.107   1_455 S
H449   C513    1.107   .     S
H455   C576    1.111   1_455 S
C456   C472    1.450   .     S
C456   O503    1.291   .     A
C456   O504    1.291   .     A
C457   C458    1.419   .     A
C457   C1044   1.418   .     S
C457   C1068   1.412   .     S
C458   C462    1.414   .     A
C458   C465    1.422   .     A
C459   C463    1.400   .     A
C459   C1042   1.418   1_554 S
C459   C1045   1.412   1_554 S
C460   C461    1.392   .     A
C460   C1044   1.412   .     S
C460   C1064   1.398   .     S
C461   C462    1.388   .     A
C461   H493    1.084   .     S
C462   H499    1.080   .     S
C463   C480    1.400   .     A
C463   H495    1.080   .     S
C464   C479    1.402   .     A
C464   C480    1.424   .     A
C464   C511    1.518   .     S
C465   C481    1.400   .     A
C465   C467    1.467   .     S
C466   H500    1.083   .     S
C466   C472    1.401   .     A
C466   C78     1.384   1_565 S
C467   O505    1.299   .     A
C467   O506    1.292   .     A
C468   C469    1.401   .     A
C468   H486    1.083   .     S
C469   C477    1.450   .     S
C469   C470    1.401   .     A
C470   H487    1.083   .     S
C471   H488    1.083   .     S
C471   C472    1.401   .     A
C471   C80     1.383   1_565 S
C473   N502    1.367   .     A
C473   H489    1.082   .     S
C473   C539    1.417   .     S
C474   N501    1.367   .     A
C474   H490    1.082   .     S
C475   H491    1.082   .     S
C475   N501    1.367   .     A
C476   H492    1.081   .     S
C476   N502    1.367   .     A
C476   C540    1.416   .     S
C477   O508    1.291   .     A
C477   O507    1.291   .     A
C478   O510    1.291   .     A
C478   C480    1.477   .     S
C478   O509    1.304   .     A
C479   C1045   1.398   1_554 S
C479   H1079   1.085   1_554 S
C481   C482    1.383   .     A
C481   H496    1.084   .     S
C482   H498    1.077   .     S
C482   C1068   1.389   .     S
C483   H497    1.077   .     S
C483   C1042   1.412   1_554 S
C483   C1067   1.389   1_554 S
Cu484  N501    2.013   .     S
Cu484  Cu485   2.678   .     S
Cu484  O505    1.971   .     S
Cu484  O509    1.964   .     S
Cu484  O503    1.965   .     S
Cu484  O507    1.964   .     S
Cu485  O506    1.964   .     S
Cu485  O510    1.971   .     S
Cu485  O504    1.964   .     S
Cu485  O508    1.965   .     S
Cu485  N502    2.013   .     S
H494   C1064   1.085   .     S
C511   H519    1.107   .     S
C511   C512    1.544   .     S
C511   H585    1.111   .     S
C512   H517    1.107   .     S
C512   H518    1.110   .     S
C512   C578    1.528   .     S
C513   H516    1.110   .     S
C513   H515    1.109   .     S
H514   C578    1.107   .     S
C521   C537    1.450   .     S
C521   O568    1.291   .     A
C521   O569    1.291   .     A
C522   C523    1.419   .     A
C522   C1109   1.418   .     S
C522   C1133   1.412   .     S
C523   C527    1.414   .     A
C523   C530    1.422   .     A
C524   C528    1.400   .     A
C524   C1107   1.418   1_554 S
C524   C1110   1.412   1_554 S
C525   C526    1.392   .     A
C525   C1109   1.412   .     S
C525   C1129   1.398   .     S
C526   C527    1.388   .     A
C526   H558    1.084   .     S
C527   H564    1.080   .     S
C528   C545    1.400   .     A
C528   H560    1.080   .     S
C529   C544    1.402   .     A
C529   C545    1.424   .     A
C529   C576    1.518   .     S
C530   C546    1.400   .     A
C530   C532    1.467   .     S
C531   H565    1.083   .     S
C531   C537    1.401   .     A
C531   C143    1.384   1_565 S
C532   O570    1.299   .     A
C532   O571    1.292   .     A
C533   C534    1.401   .     A
C533   H551    1.083   .     S
C534   C542    1.450   .     S
C534   C535    1.401   .     A
C535   H552    1.083   .     S
C536   H553    1.083   .     S
C536   C537    1.401   .     A
C536   C145    1.383   1_565 S
C538   N567    1.367   .     A
C538   H554    1.082   .     S
C538   C409    1.417   1_655 S
C539   N566    1.367   .     A
C539   H555    1.082   .     S
C540   H556    1.082   .     S
C540   N566    1.367   .     A
C541   H557    1.081   .     S
C541   N567    1.367   .     A
C541   C410    1.416   1_655 S
C542   O573    1.291   .     A
C542   O572    1.291   .     A
C543   O575    1.291   .     A
C543   C545    1.477   .     S
C543   O574    1.304   .     A
C544   C1110   1.398   1_554 S
C544   H1144   1.085   1_554 S
C546   C547    1.383   .     A
C546   H561    1.084   .     S
C547   H563    1.077   .     S
C547   C1133   1.389   .     S
C548   H562    1.077   .     S
C548   C1107   1.412   1_554 S
C548   C1132   1.389   1_554 S
Cu549  N566    2.013   .     S
Cu549  Cu550   2.678   .     S
Cu549  O570    1.971   .     S
Cu549  O574    1.964   .     S
Cu549  O568    1.965   .     S
Cu549  O572    1.964   .     S
Cu550  O571    1.964   .     S
Cu550  O575    1.971   .     S
Cu550  O569    1.964   .     S
Cu550  O573    1.965   .     S
Cu550  N567    2.013   .     S
H559   C1129   1.085   .     S
C576   H584    1.107   .     S
C576   C577    1.544   .     S
C576   H455    1.111   1_655 S
C577   H582    1.107   .     S
C577   H583    1.110   .     S
C577   C448    1.528   1_655 S
C578   H581    1.110   .     S
C578   H580    1.109   .     S
H579   C448    1.107   1_655 S
C586   C602    1.450   .     S
C586   O633    1.291   .     A
C586   O634    1.291   .     A
C587   C588    1.419   .     A
C587   C4      1.418   1_556 S
C587   C28     1.412   1_556 S
C588   C592    1.414   .     A
C588   C595    1.422   .     A
C589   C593    1.400   .     A
C590   C591    1.392   .     A
C590   C4      1.412   1_556 S
C590   C24     1.398   1_556 S
C591   C592    1.388   .     A
C591   H623    1.084   .     S
C592   H629    1.080   .     S
C593   C610    1.400   .     A
C593   H625    1.080   .     S
C594   C609    1.402   .     A
C594   C610    1.424   .     A
C594   C641    1.518   .     S
C595   C611    1.400   .     A
C595   C597    1.467   .     S
C596   H630    1.083   .     S
C596   C602    1.401   .     A
C596   C793    1.384   .     S
C597   O635    1.299   .     A
C597   O636    1.292   .     A
C598   C599    1.401   .     A
C598   H616    1.083   .     S
C598   C986    1.384   1_545 S
C599   C607    1.450   .     S
C599   C600    1.401   .     A
C600   H617    1.083   .     S
C600   C991    1.383   1_545 S
C601   H618    1.083   .     S
C601   C602    1.401   .     A
C601   C795    1.383   .     S
C603   N632    1.367   .     A
C603   H619    1.082   .     S
C603   C669    1.417   .     S
C604   N631    1.367   .     A
C604   H620    1.082   .     S
C604   C733    1.417   1_455 S
C605   H621    1.082   .     S
C605   N631    1.367   .     A
C605   C736    1.416   1_455 S
C606   H622    1.081   .     S
C606   N632    1.367   .     A
C606   C670    1.416   .     S
C607   O638    1.291   .     A
C607   O637    1.291   .     A
C608   O640    1.291   .     A
C608   C610    1.477   .     S
C608   O639    1.304   .     A
C611   C612    1.383   .     A
C611   H626    1.084   .     S
C612   H628    1.077   .     S
C612   C28     1.389   1_556 S
C613   H627    1.077   .     S
Cu614  N631    2.013   .     S
Cu614  Cu615   2.678   .     S
Cu614  O635    1.971   .     S
Cu614  O639    1.964   .     S
Cu614  O633    1.965   .     S
Cu614  O637    1.964   .     S
Cu615  O636    1.964   .     S
Cu615  O640    1.971   .     S
Cu615  O634    1.964   .     S
Cu615  O638    1.965   .     S
Cu615  N632    2.013   .     S
H624   C24     1.085   1_556 S
C641   H649    1.107   .     S
C641   C642    1.544   .     S
C641   H715    1.111   .     S
C642   H647    1.107   .     S
C642   H648    1.110   .     S
C642   C708    1.528   .     S
C643   H646    1.110   .     S
C643   H645    1.109   .     S
C643   C772    1.528   1_455 S
C643   H774    1.107   1_455 S
H644   C708    1.107   .     S
H650   C771    1.111   1_455 S
C651   C667    1.450   .     S
C651   O698    1.291   .     A
C651   O699    1.291   .     A
C652   C653    1.419   .     A
C652   C69     1.418   1_556 S
C652   C93     1.412   1_556 S
C653   C657    1.414   .     A
C653   C660    1.422   .     A
C654   C658    1.400   .     A
C655   C656    1.392   .     A
C655   C69     1.412   1_556 S
C655   C89     1.398   1_556 S
C656   C657    1.388   .     A
C656   H688    1.084   .     S
C657   H694    1.080   .     S
C658   C675    1.400   .     A
C658   H690    1.080   .     S
C659   C674    1.402   .     A
C659   C675    1.424   .     A
C659   C706    1.518   .     S
C660   C676    1.400   .     A
C660   C662    1.467   .     S
C661   H695    1.083   .     S
C661   C667    1.401   .     A
C661   C858    1.384   .     S
C662   O700    1.299   .     A
C662   O701    1.292   .     A
C663   C664    1.401   .     A
C663   H681    1.083   .     S
C663   C1051   1.384   1_545 S
C664   C672    1.450   .     S
C664   C665    1.401   .     A
C665   H682    1.083   .     S
C665   C1056   1.383   1_545 S
C666   H683    1.083   .     S
C666   C667    1.401   .     A
C666   C860    1.383   .     S
C668   N697    1.367   .     A
C668   H684    1.082   .     S
C668   C734    1.417   .     S
C669   N696    1.367   .     A
C669   H685    1.082   .     S
C670   H686    1.082   .     S
C670   N696    1.367   .     A
C671   H687    1.081   .     S
C671   N697    1.367   .     A
C671   C735    1.416   .     S
C672   O703    1.291   .     A
C672   O702    1.291   .     A
C673   O705    1.291   .     A
C673   C675    1.477   .     S
C673   O704    1.304   .     A
C676   C677    1.383   .     A
C676   H691    1.084   .     S
C677   H693    1.077   .     S
C677   C93     1.389   1_556 S
C678   H692    1.077   .     S
Cu679  N696    2.013   .     S
Cu679  Cu680   2.678   .     S
Cu679  O700    1.971   .     S
Cu679  O704    1.964   .     S
Cu679  O698    1.965   .     S
Cu679  O702    1.964   .     S
Cu680  O701    1.964   .     S
Cu680  O705    1.971   .     S
Cu680  O699    1.964   .     S
Cu680  O703    1.965   .     S
Cu680  N697    2.013   .     S
H689   C89     1.085   1_556 S
C706   H714    1.107   .     S
C706   C707    1.544   .     S
C706   H780    1.111   .     S
C707   H712    1.107   .     S
C707   H713    1.110   .     S
C707   C773    1.528   .     S
C708   H711    1.110   .     S
C708   H710    1.109   .     S
H709   C773    1.107   .     S
C716   C732    1.450   .     S
C716   O763    1.291   .     A
C716   O764    1.291   .     A
C717   C718    1.419   .     A
C717   C134    1.418   1_556 S
C717   C158    1.412   1_556 S
C718   C722    1.414   .     A
C718   C725    1.422   .     A
C719   C723    1.400   .     A
C720   C721    1.392   .     A
C720   C134    1.412   1_556 S
C720   C154    1.398   1_556 S
C721   C722    1.388   .     A
C721   H753    1.084   .     S
C722   H759    1.080   .     S
C723   C740    1.400   .     A
C723   H755    1.080   .     S
C724   C739    1.402   .     A
C724   C740    1.424   .     A
C724   C771    1.518   .     S
C725   C741    1.400   .     A
C725   C727    1.467   .     S
C726   H760    1.083   .     S
C726   C732    1.401   .     A
C726   C923    1.384   .     S
C727   O765    1.299   .     A
C727   O766    1.292   .     A
C728   C729    1.401   .     A
C728   H746    1.083   .     S
C728   C1116   1.384   1_545 S
C729   C737    1.450   .     S
C729   C730    1.401   .     A
C730   H747    1.083   .     S
C730   C1121   1.383   1_545 S
C731   H748    1.083   .     S
C731   C732    1.401   .     A
C731   C925    1.383   .     S
C733   N762    1.367   .     A
C733   H749    1.082   .     S
C733   C604    1.417   1_655 S
C734   N761    1.367   .     A
C734   H750    1.082   .     S
C735   H751    1.082   .     S
C735   N761    1.367   .     A
C736   H752    1.081   .     S
C736   N762    1.367   .     A
C736   C605    1.416   1_655 S
C737   O768    1.291   .     A
C737   O767    1.291   .     A
C738   O770    1.291   .     A
C738   C740    1.477   .     S
C738   O769    1.304   .     A
C741   C742    1.383   .     A
C741   H756    1.084   .     S
C742   H758    1.077   .     S
C742   C158    1.389   1_556 S
C743   H757    1.077   .     S
Cu744  N761    2.013   .     S
Cu744  Cu745   2.678   .     S
Cu744  O765    1.971   .     S
Cu744  O769    1.964   .     S
Cu744  O763    1.965   .     S
Cu744  O767    1.964   .     S
Cu745  O766    1.964   .     S
Cu745  O770    1.971   .     S
Cu745  O764    1.964   .     S
Cu745  O768    1.965   .     S
Cu745  N762    2.013   .     S
H754   C154    1.085   1_556 S
C771   H779    1.107   .     S
C771   C772    1.544   .     S
C771   H650    1.111   1_655 S
C772   H777    1.107   .     S
C772   H778    1.110   .     S
C772   C643    1.528   1_655 S
C773   H776    1.110   .     S
C773   H775    1.109   .     S
H774   C643    1.107   1_655 S
C781   C797    1.450   .     S
C781   O828    1.291   .     A
C781   O829    1.291   .     A
C782   C783    1.419   .     A
C782   C199    1.418   1_556 S
C782   C223    1.412   1_556 S
C783   C787    1.414   .     A
C783   C790    1.422   .     A
C784   C788    1.400   .     A
C785   C786    1.392   .     A
C785   C199    1.412   1_556 S
C785   C219    1.398   1_556 S
C786   C787    1.388   .     A
C786   H818    1.084   .     S
C787   H824    1.080   .     S
C788   C805    1.400   .     A
C788   H820    1.080   .     S
C789   C804    1.402   .     A
C789   C805    1.424   .     A
C789   C836    1.518   .     S
C790   C806    1.400   .     A
C790   C792    1.467   .     S
C791   H825    1.083   .     S
C791   C797    1.401   .     A
C791   C988    1.384   .     S
C792   O830    1.299   .     A
C792   O831    1.292   .     A
C793   C794    1.401   .     A
C793   H811    1.083   .     S
C794   C802    1.450   .     S
C794   C795    1.401   .     A
C795   H812    1.083   .     S
C796   H813    1.083   .     S
C796   C797    1.401   .     A
C796   C990    1.383   .     S
C798   N827    1.367   .     A
C798   H814    1.082   .     S
C798   C864    1.417   .     S
C799   N826    1.367   .     A
C799   H815    1.082   .     S
C799   C928    1.417   1_455 S
C800   H816    1.082   .     S
C800   N826    1.367   .     A
C800   C931    1.416   1_455 S
C801   H817    1.081   .     S
C801   N827    1.367   .     A
C801   C865    1.416   .     S
C802   O833    1.291   .     A
C802   O832    1.291   .     A
C803   O835    1.291   .     A
C803   C805    1.477   .     S
C803   O834    1.304   .     A
C806   C807    1.383   .     A
C806   H821    1.084   .     S
C807   H823    1.077   .     S
C807   C223    1.389   1_556 S
C808   H822    1.077   .     S
Cu809  N826    2.013   .     S
Cu809  Cu810   2.678   .     S
Cu809  O830    1.971   .     S
Cu809  O834    1.964   .     S
Cu809  O828    1.965   .     S
Cu809  O832    1.964   .     S
Cu810  O831    1.964   .     S
Cu810  O835    1.971   .     S
Cu810  O829    1.964   .     S
Cu810  O833    1.965   .     S
Cu810  N827    2.013   .     S
H819   C219    1.085   1_556 S
C836   H844    1.107   .     S
C836   C837    1.544   .     S
C836   H910    1.111   .     S
C837   H842    1.107   .     S
C837   H843    1.110   .     S
C837   C903    1.528   .     S
C838   H841    1.110   .     S
C838   H840    1.109   .     S
C838   C967    1.528   1_455 S
C838   H969    1.107   1_455 S
H839   C903    1.107   .     S
H845   C966    1.111   1_455 S
C846   C862    1.450   .     S
C846   O893    1.291   .     A
C846   O894    1.291   .     A
C847   C848    1.419   .     A
C847   C264    1.418   1_556 S
C847   C288    1.412   1_556 S
C848   C852    1.414   .     A
C848   C855    1.422   .     A
C849   C853    1.400   .     A
C850   C851    1.392   .     A
C850   C264    1.412   1_556 S
C850   C284    1.398   1_556 S
C851   C852    1.388   .     A
C851   H883    1.084   .     S
C852   H889    1.080   .     S
C853   C870    1.400   .     A
C853   H885    1.080   .     S
C854   C869    1.402   .     A
C854   C870    1.424   .     A
C854   C901    1.518   .     S
C855   C871    1.400   .     A
C855   C857    1.467   .     S
C856   H890    1.083   .     S
C856   C862    1.401   .     A
C856   C1053   1.384   .     S
C857   O895    1.299   .     A
C857   O896    1.292   .     A
C858   C859    1.401   .     A
C858   H876    1.083   .     S
C859   C867    1.450   .     S
C859   C860    1.401   .     A
C860   H877    1.083   .     S
C861   H878    1.083   .     S
C861   C862    1.401   .     A
C861   C1055   1.383   .     S
C863   N892    1.367   .     A
C863   H879    1.082   .     S
C863   C929    1.417   .     S
C864   N891    1.367   .     A
C864   H880    1.082   .     S
C865   H881    1.082   .     S
C865   N891    1.367   .     A
C866   H882    1.081   .     S
C866   N892    1.367   .     A
C866   C930    1.416   .     S
C867   O898    1.291   .     A
C867   O897    1.291   .     A
C868   O900    1.291   .     A
C868   C870    1.477   .     S
C868   O899    1.304   .     A
C871   C872    1.383   .     A
C871   H886    1.084   .     S
C872   H888    1.077   .     S
C872   C288    1.389   1_556 S
C873   H887    1.077   .     S
Cu874  N891    2.013   .     S
Cu874  Cu875   2.678   .     S
Cu874  O895    1.971   .     S
Cu874  O899    1.964   .     S
Cu874  O893    1.965   .     S
Cu874  O897    1.964   .     S
Cu875  O896    1.964   .     S
Cu875  O900    1.971   .     S
Cu875  O894    1.964   .     S
Cu875  O898    1.965   .     S
Cu875  N892    2.013   .     S
H884   C284    1.085   1_556 S
C901   H909    1.107   .     S
C901   C902    1.544   .     S
C901   H975    1.111   .     S
C902   H907    1.107   .     S
C902   H908    1.110   .     S
C902   C968    1.528   .     S
C903   H906    1.110   .     S
C903   H905    1.109   .     S
H904   C968    1.107   .     S
C911   C927    1.450   .     S
C911   O958    1.291   .     A
C911   O959    1.291   .     A
C912   C913    1.419   .     A
C912   C329    1.418   1_556 S
C912   C353    1.412   1_556 S
C913   C917    1.414   .     A
C913   C920    1.422   .     A
C914   C918    1.400   .     A
C915   C916    1.392   .     A
C915   C329    1.412   1_556 S
C915   C349    1.398   1_556 S
C916   C917    1.388   .     A
C916   H948    1.084   .     S
C917   H954    1.080   .     S
C918   C935    1.400   .     A
C918   H950    1.080   .     S
C919   C934    1.402   .     A
C919   C935    1.424   .     A
C919   C966    1.518   .     S
C920   C936    1.400   .     A
C920   C922    1.467   .     S
C921   H955    1.083   .     S
C921   C927    1.401   .     A
C921   C1118   1.384   .     S
C922   O960    1.299   .     A
C922   O961    1.292   .     A
C923   C924    1.401   .     A
C923   H941    1.083   .     S
C924   C932    1.450   .     S
C924   C925    1.401   .     A
C925   H942    1.083   .     S
C926   H943    1.083   .     S
C926   C927    1.401   .     A
C926   C1120   1.383   .     S
C928   N957    1.367   .     A
C928   H944    1.082   .     S
C928   C799    1.417   1_655 S
C929   N956    1.367   .     A
C929   H945    1.082   .     S
C930   H946    1.082   .     S
C930   N956    1.367   .     A
C931   H947    1.081   .     S
C931   N957    1.367   .     A
C931   C800    1.416   1_655 S
C932   O963    1.291   .     A
C932   O962    1.291   .     A
C933   O965    1.291   .     A
C933   C935    1.477   .     S
C933   O964    1.304   .     A
C936   C937    1.383   .     A
C936   H951    1.084   .     S
C937   H953    1.077   .     S
C937   C353    1.389   1_556 S
C938   H952    1.077   .     S
Cu939  N956    2.013   .     S
Cu939  Cu940   2.678   .     S
Cu939  O960    1.971   .     S
Cu939  O964    1.964   .     S
Cu939  O958    1.965   .     S
Cu939  O962    1.964   .     S
Cu940  O961    1.964   .     S
Cu940  O965    1.971   .     S
Cu940  O959    1.964   .     S
Cu940  O963    1.965   .     S
Cu940  N957    2.013   .     S
H949   C349    1.085   1_556 S
C966   H974    1.107   .     S
C966   C967    1.544   .     S
C966   H845    1.111   1_655 S
C967   H972    1.107   .     S
C967   H973    1.110   .     S
C967   C838    1.528   1_655 S
C968   H971    1.110   .     S
C968   H970    1.109   .     S
H969   C838    1.107   1_655 S
C976   C992    1.450   .     S
C976   O1023   1.291   .     A
C976   O1024   1.291   .     A
C977   C978    1.419   .     A
C977   C394    1.418   1_556 S
C977   C418    1.412   1_556 S
C978   C982    1.414   .     A
C978   C985    1.422   .     A
C979   C983    1.400   .     A
C980   C981    1.392   .     A
C980   C394    1.412   1_556 S
C980   C414    1.398   1_556 S
C981   C982    1.388   .     A
C981   H1013   1.084   .     S
C982   H1019   1.080   .     S
C983   C1000   1.400   .     A
C983   H1015   1.080   .     S
C984   C999    1.402   .     A
C984   C1000   1.424   .     A
C984   C1031   1.518   .     S
C985   C1001   1.400   .     A
C985   C987    1.467   .     S
C986   H1020   1.083   .     S
C986   C992    1.401   .     A
C986   C598    1.384   1_565 S
C987   O1025   1.299   .     A
C987   O1026   1.292   .     A
C988   C989    1.401   .     A
C988   H1006   1.083   .     S
C989   C997    1.450   .     S
C989   C990    1.401   .     A
C990   H1007   1.083   .     S
C991   H1008   1.083   .     S
C991   C992    1.401   .     A
C991   C600    1.383   1_565 S
C993   N1022   1.367   .     A
C993   H1009   1.082   .     S
C993   C1059   1.417   .     S
C994   N1021   1.367   .     A
C994   H1010   1.082   .     S
C994   C1123   1.417   1_455 S
C995   H1011   1.082   .     S
C995   N1021   1.367   .     A
C995   C1126   1.416   1_455 S
C996   H1012   1.081   .     S
C996   N1022   1.367   .     A
C996   C1060   1.416   .     S
C997   O1028   1.291   .     A
C997   O1027   1.291   .     A
C998   O1030   1.291   .     A
C998   C1000   1.477   .     S
C998   O1029   1.304   .     A
C1001  C1002   1.383   .     A
C1001  H1016   1.084   .     S
C1002  H1018   1.077   .     S
C1002  C418    1.389   1_556 S
C1003  H1017   1.077   .     S
Cu1004 N1021   2.013   .     S
Cu1004 Cu1005  2.678   .     S
Cu1004 O1025   1.971   .     S
Cu1004 O1029   1.964   .     S
Cu1004 O1023   1.965   .     S
Cu1004 O1027   1.964   .     S
Cu1005 O1026   1.964   .     S
Cu1005 O1030   1.971   .     S
Cu1005 O1024   1.964   .     S
Cu1005 O1028   1.965   .     S
Cu1005 N1022   2.013   .     S
H1014  C414    1.085   1_556 S
C1031  H1039   1.107   .     S
C1031  C1032   1.544   .     S
C1031  H1105   1.111   .     S
C1032  H1037   1.107   .     S
C1032  H1038   1.110   .     S
C1032  C1098   1.528   .     S
C1033  H1036   1.110   .     S
C1033  H1035   1.109   .     S
C1033  C1162   1.528   1_455 S
C1033  H1164   1.107   1_455 S
H1034  C1098   1.107   .     S
H1040  C1161   1.111   1_455 S
C1041  C1057   1.450   .     S
C1041  O1088   1.291   .     A
C1041  O1089   1.291   .     A
C1042  C1043   1.419   .     A
C1042  C459    1.418   1_556 S
C1042  C483    1.412   1_556 S
C1043  C1047   1.414   .     A
C1043  C1050   1.422   .     A
C1044  C1048   1.400   .     A
C1045  C1046   1.392   .     A
C1045  C459    1.412   1_556 S
C1045  C479    1.398   1_556 S
C1046  C1047   1.388   .     A
C1046  H1078   1.084   .     S
C1047  H1084   1.080   .     S
C1048  C1065   1.400   .     A
C1048  H1080   1.080   .     S
C1049  C1064   1.402   .     A
C1049  C1065   1.424   .     A
C1049  C1096   1.518   .     S
C1050  C1066   1.400   .     A
C1050  C1052   1.467   .     S
C1051  H1085   1.083   .     S
C1051  C1057   1.401   .     A
C1051  C663    1.384   1_565 S
C1052  O1090   1.299   .     A
C1052  O1091   1.292   .     A
C1053  C1054   1.401   .     A
C1053  H1071   1.083   .     S
C1054  C1062   1.450   .     S
C1054  C1055   1.401   .     A
C1055  H1072   1.083   .     S
C1056  H1073   1.083   .     S
C1056  C1057   1.401   .     A
C1056  C665    1.383   1_565 S
C1058  N1087   1.367   .     A
C1058  H1074   1.082   .     S
C1058  C1124   1.417   .     S
C1059  N1086   1.367   .     A
C1059  H1075   1.082   .     S
C1060  H1076   1.082   .     S
C1060  N1086   1.367   .     A
C1061  H1077   1.081   .     S
C1061  N1087   1.367   .     A
C1061  C1125   1.416   .     S
C1062  O1093   1.291   .     A
C1062  O1092   1.291   .     A
C1063  O1095   1.291   .     A
C1063  C1065   1.477   .     S
C1063  O1094   1.304   .     A
C1066  C1067   1.383   .     A
C1066  H1081   1.084   .     S
C1067  H1083   1.077   .     S
C1067  C483    1.389   1_556 S
C1068  H1082   1.077   .     S
Cu1069 N1086   2.013   .     S
Cu1069 Cu1070  2.678   .     S
Cu1069 O1090   1.971   .     S
Cu1069 O1094   1.964   .     S
Cu1069 O1088   1.965   .     S
Cu1069 O1092   1.964   .     S
Cu1070 O1091   1.964   .     S
Cu1070 O1095   1.971   .     S
Cu1070 O1089   1.964   .     S
Cu1070 O1093   1.965   .     S
Cu1070 N1087   2.013   .     S
H1079  C479    1.085   1_556 S
C1096  H1104   1.107   .     S
C1096  C1097   1.544   .     S
C1096  H1170   1.111   .     S
C1097  H1102   1.107   .     S
C1097  H1103   1.110   .     S
C1097  C1163   1.528   .     S
C1098  H1101   1.110   .     S
C1098  H1100   1.109   .     S
H1099  C1163   1.107   .     S
C1106  C1122   1.450   .     S
C1106  O1153   1.291   .     A
C1106  O1154   1.291   .     A
C1107  C1108   1.419   .     A
C1107  C524    1.418   1_556 S
C1107  C548    1.412   1_556 S
C1108  C1112   1.414   .     A
C1108  C1115   1.422   .     A
C1109  C1113   1.400   .     A
C1110  C1111   1.392   .     A
C1110  C524    1.412   1_556 S
C1110  C544    1.398   1_556 S
C1111  C1112   1.388   .     A
C1111  H1143   1.084   .     S
C1112  H1149   1.080   .     S
C1113  C1130   1.400   .     A
C1113  H1145   1.080   .     S
C1114  C1129   1.402   .     A
C1114  C1130   1.424   .     A
C1114  C1161   1.518   .     S
C1115  C1131   1.400   .     A
C1115  C1117   1.467   .     S
C1116  H1150   1.083   .     S
C1116  C1122   1.401   .     A
C1116  C728    1.384   1_565 S
C1117  O1155   1.299   .     A
C1117  O1156   1.292   .     A
C1118  C1119   1.401   .     A
C1118  H1136   1.083   .     S
C1119  C1127   1.450   .     S
C1119  C1120   1.401   .     A
C1120  H1137   1.083   .     S
C1121  H1138   1.083   .     S
C1121  C1122   1.401   .     A
C1121  C730    1.383   1_565 S
C1123  N1152   1.367   .     A
C1123  H1139   1.082   .     S
C1123  C994    1.417   1_655 S
C1124  N1151   1.367   .     A
C1124  H1140   1.082   .     S
C1125  H1141   1.082   .     S
C1125  N1151   1.367   .     A
C1126  H1142   1.081   .     S
C1126  N1152   1.367   .     A
C1126  C995    1.416   1_655 S
C1127  O1158   1.291   .     A
C1127  O1157   1.291   .     A
C1128  O1160   1.291   .     A
C1128  C1130   1.477   .     S
C1128  O1159   1.304   .     A
C1131  C1132   1.383   .     A
C1131  H1146   1.084   .     S
C1132  H1148   1.077   .     S
C1132  C548    1.389   1_556 S
C1133  H1147   1.077   .     S
Cu1134 N1151   2.013   .     S
Cu1134 Cu1135  2.678   .     S
Cu1134 O1155   1.971   .     S
Cu1134 O1159   1.964   .     S
Cu1134 O1153   1.965   .     S
Cu1134 O1157   1.964   .     S
Cu1135 O1156   1.964   .     S
Cu1135 O1160   1.971   .     S
Cu1135 O1154   1.964   .     S
Cu1135 O1158   1.965   .     S
Cu1135 N1152   2.013   .     S
H1144  C544    1.085   1_556 S
C1161  H1169   1.107   .     S
C1161  C1162   1.544   .     S
C1161  H1040   1.111   1_655 S
C1162  H1167   1.107   .     S
C1162  H1168   1.110   .     S
C1162  C1033   1.528   1_655 S
C1163  H1166   1.110   .     S
C1163  H1165   1.109   .     S
H1164  C1033   1.107   1_655 S
