data_str_m3_o5_o17_pcu_sym.14
_audit_creation_date              2020-01-03
_audit_creation_method            'Materials Studio'
_symmetry_space_group_name_H-M    'P1'
_symmetry_Int_Tables_number       1
_symmetry_cell_setting            triclinic
loop_
_symmetry_equiv_pos_as_xyz
  x,y,z
_cell_length_a                    30.0998
_cell_length_b                    26.7565
_cell_length_c                    24.3386
_cell_angle_alpha                 90.0358
_cell_angle_beta                  89.8443
_cell_angle_gamma                 90.2742
loop_
_atom_site_label
_atom_site_type_symbol
_atom_site_fract_x
_atom_site_fract_y
_atom_site_fract_z
_atom_site_U_iso_or_equiv
_atom_site_adp_type
_atom_site_occupancy
O1     O     0.25000   0.09512   0.21228   0.00000  Uiso   1.00
O2     O     0.25000   0.23822   0.12105   0.00000  Uiso   1.00
O3     O     0.25000   0.23822   0.21228   0.00000  Uiso   1.00
O4     O     0.25000   0.09512   0.12105   0.00000  Uiso   1.00
H5     H     0.46000   0.05471   0.23262   0.00000  Uiso   1.00
H6     H     0.04000   0.27866   0.10076   0.00000  Uiso   1.00
H7     H     0.46137   0.27834   0.10005   0.00000  Uiso   1.00
H8     H     0.03863   0.05500   0.23331   0.00000  Uiso   1.00
C9     C     0.25015   0.07269   0.16665   0.00000  Uiso   1.00
C10    C     0.24985   0.26065   0.16669   0.00000  Uiso   1.00
O11    O     0.18392   0.16667   0.21230   0.00000  Uiso   1.00
O12    O     0.31607   0.16667   0.12104   0.00000  Uiso   1.00
O13    O     0.31607   0.16667   0.21230   0.00000  Uiso   1.00
O14    O     0.18392   0.16667   0.12104   0.00000  Uiso   1.00
C15    C     0.16339   0.16649   0.16676   0.00000  Uiso   1.00
C16    C     0.33661   0.16685   0.16657   0.00000  Uiso   1.00
Zn17   Zn    0.25000   0.16667   0.22759   0.00000  Uiso   1.00
Zn18   Zn    0.25000   0.16667   0.10574   0.00000  Uiso   1.00
N19    N     0.25000   0.16667   0.02455   0.00000  Uiso   1.00
N20    N     0.25000   0.16667   0.30879   0.00000  Uiso   1.00
C21    C     0.40713   0.20575   0.13990   0.00000  Uiso   1.00
C22    C     0.09287   0.12759   0.19343   0.00000  Uiso   1.00
C23    C     0.40657   0.12713   0.19237   0.00000  Uiso   1.00
C24    C     0.09343   0.20622   0.14099   0.00000  Uiso   1.00
C25    C     0.38430   0.16658   0.16629   0.00000  Uiso   1.00
C26    C     0.11570   0.16675   0.16705   0.00000  Uiso   1.00
C27    C     0.45307   0.12676   0.19183   0.00000  Uiso   1.00
C28    C     0.04693   0.20659   0.14153   0.00000  Uiso   1.00
C29    C     0.45361   0.20631   0.14093   0.00000  Uiso   1.00
C30    C     0.04639   0.12703   0.19242   0.00000  Uiso   1.00
C31    C     0.47662   0.16661   0.16654   0.00000  Uiso   1.00
C32    C     0.02338   0.16674   0.16681   0.00000  Uiso   1.00
C33    C     0.47659   0.08684   0.21491   0.00000  Uiso   1.00
C34    C     0.02341   0.24651   0.11845   0.00000  Uiso   1.00
C35    C     0.47760   0.24635   0.11809   0.00000  Uiso   1.00
C36    C     0.02239   0.08700   0.21527   0.00000  Uiso   1.00
C37    C     0.25009   0.02174   0.16663   0.00000  Uiso   1.00
C38    C     0.24992   0.31159   0.16670   0.00000  Uiso   1.00
C39    C     0.38206   0.24659   0.11272   0.00000  Uiso   1.00
O40    O     0.38538   0.25279   0.06309   0.00000  Uiso   1.00
O41    O     0.35477   0.27765   0.14407   0.00000  Uiso   1.00
H42    H     0.34006   0.30443   0.12106   0.00000  Uiso   1.00
C43    C     0.11794   0.08673   0.22059   0.00000  Uiso   1.00
O44    O     0.11464   0.08053   0.27022   0.00000  Uiso   1.00
O45    O     0.14522   0.05567   0.18922   0.00000  Uiso   1.00
H46    H     0.15993   0.02889   0.21222   0.00000  Uiso   1.00
C47    C     0.38093   0.08602   0.21906   0.00000  Uiso   1.00
O48    O     0.35553   0.06032   0.19180   0.00000  Uiso   1.00
O49    O     0.38576   0.07720   0.27533   0.00000  Uiso   1.00
H50    H     0.36656   0.04842   0.28870   0.00000  Uiso   1.00
C51    C     0.11907   0.24735   0.11433   0.00000  Uiso   1.00
O52    O     0.14449   0.27301   0.14160   0.00000  Uiso   1.00
O53    O     0.11422   0.25622   0.05807   0.00000  Uiso   1.00
H54    H     0.13341   0.28502   0.04473   0.00000  Uiso   1.00
O55    O     0.75000   0.09512   0.21228   0.00000  Uiso   1.00
O56    O     0.75000   0.23822   0.12105   0.00000  Uiso   1.00
O57    O     0.75000   0.23822   0.21228   0.00000  Uiso   1.00
O58    O     0.75000   0.09512   0.12105   0.00000  Uiso   1.00
H59    H     0.96000   0.05471   0.23262   0.00000  Uiso   1.00
H60    H     0.54000   0.27866   0.10076   0.00000  Uiso   1.00
H61    H     0.96137   0.27834   0.10005   0.00000  Uiso   1.00
H62    H     0.53863   0.05500   0.23331   0.00000  Uiso   1.00
C63    C     0.75015   0.07269   0.16665   0.00000  Uiso   1.00
C64    C     0.74985   0.26065   0.16669   0.00000  Uiso   1.00
O65    O     0.68392   0.16667   0.21230   0.00000  Uiso   1.00
O66    O     0.81607   0.16667   0.12104   0.00000  Uiso   1.00
O67    O     0.81607   0.16667   0.21230   0.00000  Uiso   1.00
O68    O     0.68392   0.16667   0.12104   0.00000  Uiso   1.00
C69    C     0.66339   0.16649   0.16676   0.00000  Uiso   1.00
C70    C     0.83661   0.16685   0.16657   0.00000  Uiso   1.00
Zn71   Zn    0.75000   0.16667   0.22759   0.00000  Uiso   1.00
Zn72   Zn    0.75000   0.16667   0.10574   0.00000  Uiso   1.00
N73    N     0.75000   0.16667   0.02455   0.00000  Uiso   1.00
N74    N     0.75000   0.16667   0.30879   0.00000  Uiso   1.00
C75    C     0.90713   0.20575   0.13990   0.00000  Uiso   1.00
C76    C     0.59287   0.12759   0.19343   0.00000  Uiso   1.00
C77    C     0.90657   0.12713   0.19237   0.00000  Uiso   1.00
C78    C     0.59343   0.20622   0.14099   0.00000  Uiso   1.00
C79    C     0.88430   0.16658   0.16629   0.00000  Uiso   1.00
C80    C     0.61570   0.16675   0.16705   0.00000  Uiso   1.00
C81    C     0.95307   0.12676   0.19183   0.00000  Uiso   1.00
C82    C     0.54693   0.20659   0.14153   0.00000  Uiso   1.00
C83    C     0.95361   0.20631   0.14093   0.00000  Uiso   1.00
C84    C     0.54639   0.12703   0.19242   0.00000  Uiso   1.00
C85    C     0.97662   0.16661   0.16654   0.00000  Uiso   1.00
C86    C     0.52338   0.16674   0.16681   0.00000  Uiso   1.00
C87    C     0.97659   0.08684   0.21491   0.00000  Uiso   1.00
C88    C     0.52341   0.24651   0.11845   0.00000  Uiso   1.00
C89    C     0.97760   0.24635   0.11809   0.00000  Uiso   1.00
C90    C     0.52239   0.08700   0.21527   0.00000  Uiso   1.00
C91    C     0.75009   0.02174   0.16663   0.00000  Uiso   1.00
C92    C     0.74992   0.31159   0.16670   0.00000  Uiso   1.00
C93    C     0.88206   0.24659   0.11272   0.00000  Uiso   1.00
O94    O     0.88538   0.25279   0.06309   0.00000  Uiso   1.00
O95    O     0.85477   0.27765   0.14407   0.00000  Uiso   1.00
H96    H     0.84006   0.30443   0.12106   0.00000  Uiso   1.00
C97    C     0.61794   0.08673   0.22059   0.00000  Uiso   1.00
O98    O     0.61464   0.08053   0.27022   0.00000  Uiso   1.00
O99    O     0.64522   0.05567   0.18922   0.00000  Uiso   1.00
H100   H     0.65993   0.02889   0.21222   0.00000  Uiso   1.00
C101   C     0.88093   0.08602   0.21906   0.00000  Uiso   1.00
O102   O     0.85553   0.06032   0.19180   0.00000  Uiso   1.00
O103   O     0.88576   0.07720   0.27533   0.00000  Uiso   1.00
H104   H     0.86656   0.04842   0.28870   0.00000  Uiso   1.00
C105   C     0.61907   0.24735   0.11433   0.00000  Uiso   1.00
O106   O     0.64449   0.27301   0.14160   0.00000  Uiso   1.00
O107   O     0.61422   0.25622   0.05807   0.00000  Uiso   1.00
H108   H     0.63341   0.28502   0.04473   0.00000  Uiso   1.00
O109   O     0.25000   0.42845   0.21228   0.00000  Uiso   1.00
O110   O     0.25000   0.57155   0.12105   0.00000  Uiso   1.00
O111   O     0.25000   0.57155   0.21228   0.00000  Uiso   1.00
O112   O     0.25000   0.42845   0.12105   0.00000  Uiso   1.00
H113   H     0.46000   0.38804   0.23262   0.00000  Uiso   1.00
H114   H     0.04000   0.61199   0.10076   0.00000  Uiso   1.00
H115   H     0.46137   0.61168   0.10005   0.00000  Uiso   1.00
H116   H     0.03863   0.38834   0.23331   0.00000  Uiso   1.00
C117   C     0.25015   0.40602   0.16665   0.00000  Uiso   1.00
C118   C     0.24985   0.59398   0.16669   0.00000  Uiso   1.00
O119   O     0.18392   0.50000   0.21230   0.00000  Uiso   1.00
O120   O     0.31607   0.50000   0.12104   0.00000  Uiso   1.00
O121   O     0.31607   0.50000   0.21230   0.00000  Uiso   1.00
O122   O     0.18392   0.50000   0.12104   0.00000  Uiso   1.00
C123   C     0.16339   0.49982   0.16676   0.00000  Uiso   1.00
C124   C     0.33661   0.50018   0.16657   0.00000  Uiso   1.00
Zn125  Zn    0.25000   0.50000   0.22759   0.00000  Uiso   1.00
Zn126  Zn    0.25000   0.50000   0.10574   0.00000  Uiso   1.00
N127   N     0.25000   0.50000   0.02455   0.00000  Uiso   1.00
N128   N     0.25000   0.50000   0.30879   0.00000  Uiso   1.00
C129   C     0.40713   0.53908   0.13990   0.00000  Uiso   1.00
C130   C     0.09287   0.46092   0.19343   0.00000  Uiso   1.00
C131   C     0.40657   0.46047   0.19237   0.00000  Uiso   1.00
C132   C     0.09343   0.53955   0.14099   0.00000  Uiso   1.00
C133   C     0.38430   0.49992   0.16629   0.00000  Uiso   1.00
C134   C     0.11570   0.50009   0.16705   0.00000  Uiso   1.00
C135   C     0.45307   0.46010   0.19183   0.00000  Uiso   1.00
C136   C     0.04693   0.53992   0.14153   0.00000  Uiso   1.00
C137   C     0.45361   0.53964   0.14093   0.00000  Uiso   1.00
C138   C     0.04639   0.46037   0.19242   0.00000  Uiso   1.00
C139   C     0.47662   0.49994   0.16654   0.00000  Uiso   1.00
C140   C     0.02338   0.50007   0.16681   0.00000  Uiso   1.00
C141   C     0.47659   0.42017   0.21491   0.00000  Uiso   1.00
C142   C     0.02341   0.57985   0.11845   0.00000  Uiso   1.00
C143   C     0.47760   0.57968   0.11809   0.00000  Uiso   1.00
C144   C     0.02239   0.42033   0.21527   0.00000  Uiso   1.00
C145   C     0.25009   0.35507   0.16663   0.00000  Uiso   1.00
C146   C     0.24992   0.64493   0.16670   0.00000  Uiso   1.00
C147   C     0.38206   0.57992   0.11272   0.00000  Uiso   1.00
O148   O     0.38538   0.58612   0.06309   0.00000  Uiso   1.00
O149   O     0.35477   0.61099   0.14407   0.00000  Uiso   1.00
H150   H     0.34006   0.63776   0.12106   0.00000  Uiso   1.00
C151   C     0.11794   0.42007   0.22059   0.00000  Uiso   1.00
O152   O     0.11464   0.41387   0.27022   0.00000  Uiso   1.00
O153   O     0.14522   0.38900   0.18922   0.00000  Uiso   1.00
H154   H     0.15993   0.36222   0.21222   0.00000  Uiso   1.00
C155   C     0.38093   0.41935   0.21906   0.00000  Uiso   1.00
O156   O     0.35553   0.39366   0.19180   0.00000  Uiso   1.00
O157   O     0.38576   0.41053   0.27533   0.00000  Uiso   1.00
H158   H     0.36656   0.38175   0.28870   0.00000  Uiso   1.00
C159   C     0.11907   0.58068   0.11433   0.00000  Uiso   1.00
O160   O     0.14449   0.60634   0.14160   0.00000  Uiso   1.00
O161   O     0.11422   0.58955   0.05807   0.00000  Uiso   1.00
H162   H     0.13341   0.61835   0.04473   0.00000  Uiso   1.00
O163   O     0.75000   0.42845   0.21228   0.00000  Uiso   1.00
O164   O     0.75000   0.57155   0.12105   0.00000  Uiso   1.00
O165   O     0.75000   0.57155   0.21228   0.00000  Uiso   1.00
O166   O     0.75000   0.42845   0.12105   0.00000  Uiso   1.00
H167   H     0.96000   0.38804   0.23262   0.00000  Uiso   1.00
H168   H     0.54000   0.61199   0.10076   0.00000  Uiso   1.00
H169   H     0.96137   0.61168   0.10005   0.00000  Uiso   1.00
H170   H     0.53863   0.38834   0.23331   0.00000  Uiso   1.00
C171   C     0.75015   0.40602   0.16665   0.00000  Uiso   1.00
C172   C     0.74985   0.59398   0.16669   0.00000  Uiso   1.00
O173   O     0.68392   0.50000   0.21230   0.00000  Uiso   1.00
O174   O     0.81607   0.50000   0.12104   0.00000  Uiso   1.00
O175   O     0.81607   0.50000   0.21230   0.00000  Uiso   1.00
O176   O     0.68392   0.50000   0.12104   0.00000  Uiso   1.00
C177   C     0.66339   0.49982   0.16676   0.00000  Uiso   1.00
C178   C     0.83661   0.50018   0.16657   0.00000  Uiso   1.00
Zn179  Zn    0.75000   0.50000   0.22759   0.00000  Uiso   1.00
Zn180  Zn    0.75000   0.50000   0.10574   0.00000  Uiso   1.00
N181   N     0.75000   0.50000   0.02455   0.00000  Uiso   1.00
N182   N     0.75000   0.50000   0.30879   0.00000  Uiso   1.00
C183   C     0.90713   0.53908   0.13990   0.00000  Uiso   1.00
C184   C     0.59287   0.46092   0.19343   0.00000  Uiso   1.00
C185   C     0.90657   0.46047   0.19237   0.00000  Uiso   1.00
C186   C     0.59343   0.53955   0.14099   0.00000  Uiso   1.00
C187   C     0.88430   0.49992   0.16629   0.00000  Uiso   1.00
C188   C     0.61570   0.50009   0.16705   0.00000  Uiso   1.00
C189   C     0.95307   0.46010   0.19183   0.00000  Uiso   1.00
C190   C     0.54693   0.53992   0.14153   0.00000  Uiso   1.00
C191   C     0.95361   0.53964   0.14093   0.00000  Uiso   1.00
C192   C     0.54639   0.46037   0.19242   0.00000  Uiso   1.00
C193   C     0.97662   0.49994   0.16654   0.00000  Uiso   1.00
C194   C     0.52338   0.50007   0.16681   0.00000  Uiso   1.00
C195   C     0.97659   0.42017   0.21491   0.00000  Uiso   1.00
C196   C     0.52341   0.57985   0.11845   0.00000  Uiso   1.00
C197   C     0.97760   0.57968   0.11809   0.00000  Uiso   1.00
C198   C     0.52239   0.42033   0.21527   0.00000  Uiso   1.00
C199   C     0.75009   0.35507   0.16663   0.00000  Uiso   1.00
C200   C     0.74992   0.64493   0.16670   0.00000  Uiso   1.00
C201   C     0.88206   0.57992   0.11272   0.00000  Uiso   1.00
O202   O     0.88538   0.58612   0.06309   0.00000  Uiso   1.00
O203   O     0.85477   0.61099   0.14407   0.00000  Uiso   1.00
H204   H     0.84006   0.63776   0.12106   0.00000  Uiso   1.00
C205   C     0.61794   0.42007   0.22059   0.00000  Uiso   1.00
O206   O     0.61464   0.41387   0.27022   0.00000  Uiso   1.00
O207   O     0.64522   0.38900   0.18922   0.00000  Uiso   1.00
H208   H     0.65993   0.36222   0.21222   0.00000  Uiso   1.00
C209   C     0.88093   0.41935   0.21906   0.00000  Uiso   1.00
O210   O     0.85553   0.39366   0.19180   0.00000  Uiso   1.00
O211   O     0.88576   0.41053   0.27533   0.00000  Uiso   1.00
H212   H     0.86656   0.38175   0.28870   0.00000  Uiso   1.00
C213   C     0.61907   0.58068   0.11433   0.00000  Uiso   1.00
O214   O     0.64449   0.60634   0.14160   0.00000  Uiso   1.00
O215   O     0.61422   0.58955   0.05807   0.00000  Uiso   1.00
H216   H     0.63341   0.61835   0.04473   0.00000  Uiso   1.00
O217   O     0.25000   0.76178   0.21228   0.00000  Uiso   1.00
O218   O     0.25000   0.90488   0.12105   0.00000  Uiso   1.00
O219   O     0.25000   0.90488   0.21228   0.00000  Uiso   1.00
O220   O     0.25000   0.76178   0.12105   0.00000  Uiso   1.00
H221   H     0.46000   0.72137   0.23262   0.00000  Uiso   1.00
H222   H     0.04000   0.94532   0.10076   0.00000  Uiso   1.00
H223   H     0.46137   0.94501   0.10005   0.00000  Uiso   1.00
H224   H     0.03863   0.72167   0.23331   0.00000  Uiso   1.00
C225   C     0.25015   0.73935   0.16665   0.00000  Uiso   1.00
C226   C     0.24985   0.92731   0.16669   0.00000  Uiso   1.00
O227   O     0.18392   0.83333   0.21230   0.00000  Uiso   1.00
O228   O     0.31607   0.83333   0.12104   0.00000  Uiso   1.00
O229   O     0.31607   0.83333   0.21230   0.00000  Uiso   1.00
O230   O     0.18392   0.83333   0.12104   0.00000  Uiso   1.00
C231   C     0.16339   0.83315   0.16676   0.00000  Uiso   1.00
C232   C     0.33661   0.83351   0.16657   0.00000  Uiso   1.00
Zn233  Zn    0.25000   0.83333   0.22759   0.00000  Uiso   1.00
Zn234  Zn    0.25000   0.83333   0.10574   0.00000  Uiso   1.00
N235   N     0.25000   0.83333   0.02455   0.00000  Uiso   1.00
N236   N     0.25000   0.83333   0.30879   0.00000  Uiso   1.00
C237   C     0.40713   0.87242   0.13990   0.00000  Uiso   1.00
C238   C     0.09287   0.79425   0.19343   0.00000  Uiso   1.00
C239   C     0.40657   0.79380   0.19237   0.00000  Uiso   1.00
C240   C     0.09343   0.87288   0.14099   0.00000  Uiso   1.00
C241   C     0.38430   0.83325   0.16629   0.00000  Uiso   1.00
C242   C     0.11570   0.83342   0.16705   0.00000  Uiso   1.00
C243   C     0.45307   0.79343   0.19183   0.00000  Uiso   1.00
C244   C     0.04693   0.87325   0.14153   0.00000  Uiso   1.00
C245   C     0.45361   0.87297   0.14093   0.00000  Uiso   1.00
C246   C     0.04639   0.79370   0.19242   0.00000  Uiso   1.00
C247   C     0.47662   0.83327   0.16654   0.00000  Uiso   1.00
C248   C     0.02338   0.83340   0.16681   0.00000  Uiso   1.00
C249   C     0.47659   0.75351   0.21491   0.00000  Uiso   1.00
C250   C     0.02341   0.91318   0.11845   0.00000  Uiso   1.00
C251   C     0.47760   0.91301   0.11809   0.00000  Uiso   1.00
C252   C     0.02239   0.75367   0.21527   0.00000  Uiso   1.00
C253   C     0.25009   0.68841   0.16663   0.00000  Uiso   1.00
C254   C     0.24992   0.97826   0.16670   0.00000  Uiso   1.00
C255   C     0.38206   0.91326   0.11272   0.00000  Uiso   1.00
O256   O     0.38538   0.91946   0.06309   0.00000  Uiso   1.00
O257   O     0.35477   0.94432   0.14407   0.00000  Uiso   1.00
H258   H     0.34006   0.97109   0.12106   0.00000  Uiso   1.00
C259   C     0.11794   0.75340   0.22059   0.00000  Uiso   1.00
O260   O     0.11464   0.74720   0.27022   0.00000  Uiso   1.00
O261   O     0.14522   0.72233   0.18922   0.00000  Uiso   1.00
H262   H     0.15993   0.69556   0.21222   0.00000  Uiso   1.00
C263   C     0.38093   0.75268   0.21906   0.00000  Uiso   1.00
O264   O     0.35553   0.72699   0.19180   0.00000  Uiso   1.00
O265   O     0.38576   0.74387   0.27533   0.00000  Uiso   1.00
H266   H     0.36656   0.71508   0.28870   0.00000  Uiso   1.00
C267   C     0.11907   0.91401   0.11433   0.00000  Uiso   1.00
O268   O     0.14449   0.93967   0.14160   0.00000  Uiso   1.00
O269   O     0.11422   0.92288   0.05807   0.00000  Uiso   1.00
H270   H     0.13341   0.95169   0.04473   0.00000  Uiso   1.00
O271   O     0.75000   0.76178   0.21228   0.00000  Uiso   1.00
O272   O     0.75000   0.90488   0.12105   0.00000  Uiso   1.00
O273   O     0.75000   0.90488   0.21228   0.00000  Uiso   1.00
O274   O     0.75000   0.76178   0.12105   0.00000  Uiso   1.00
H275   H     0.96000   0.72137   0.23262   0.00000  Uiso   1.00
H276   H     0.54000   0.94532   0.10076   0.00000  Uiso   1.00
H277   H     0.96137   0.94501   0.10005   0.00000  Uiso   1.00
H278   H     0.53863   0.72167   0.23331   0.00000  Uiso   1.00
C279   C     0.75015   0.73935   0.16665   0.00000  Uiso   1.00
C280   C     0.74985   0.92731   0.16669   0.00000  Uiso   1.00
O281   O     0.68392   0.83333   0.21230   0.00000  Uiso   1.00
O282   O     0.81607   0.83333   0.12104   0.00000  Uiso   1.00
O283   O     0.81607   0.83333   0.21230   0.00000  Uiso   1.00
O284   O     0.68392   0.83333   0.12104   0.00000  Uiso   1.00
C285   C     0.66339   0.83315   0.16676   0.00000  Uiso   1.00
C286   C     0.83661   0.83351   0.16657   0.00000  Uiso   1.00
Zn287  Zn    0.75000   0.83333   0.22759   0.00000  Uiso   1.00
Zn288  Zn    0.75000   0.83333   0.10574   0.00000  Uiso   1.00
N289   N     0.75000   0.83333   0.02455   0.00000  Uiso   1.00
N290   N     0.75000   0.83333   0.30879   0.00000  Uiso   1.00
C291   C     0.90713   0.87242   0.13990   0.00000  Uiso   1.00
C292   C     0.59287   0.79425   0.19343   0.00000  Uiso   1.00
C293   C     0.90657   0.79380   0.19237   0.00000  Uiso   1.00
C294   C     0.59343   0.87288   0.14099   0.00000  Uiso   1.00
C295   C     0.88430   0.83325   0.16629   0.00000  Uiso   1.00
C296   C     0.61570   0.83342   0.16705   0.00000  Uiso   1.00
C297   C     0.95307   0.79343   0.19183   0.00000  Uiso   1.00
C298   C     0.54693   0.87325   0.14153   0.00000  Uiso   1.00
C299   C     0.95361   0.87297   0.14093   0.00000  Uiso   1.00
C300   C     0.54639   0.79370   0.19242   0.00000  Uiso   1.00
C301   C     0.97662   0.83327   0.16654   0.00000  Uiso   1.00
C302   C     0.52338   0.83340   0.16681   0.00000  Uiso   1.00
C303   C     0.97659   0.75351   0.21491   0.00000  Uiso   1.00
C304   C     0.52341   0.91318   0.11845   0.00000  Uiso   1.00
C305   C     0.97760   0.91301   0.11809   0.00000  Uiso   1.00
C306   C     0.52239   0.75367   0.21527   0.00000  Uiso   1.00
C307   C     0.75009   0.68841   0.16663   0.00000  Uiso   1.00
C308   C     0.74992   0.97826   0.16670   0.00000  Uiso   1.00
C309   C     0.88206   0.91326   0.11272   0.00000  Uiso   1.00
O310   O     0.88538   0.91946   0.06309   0.00000  Uiso   1.00
O311   O     0.85477   0.94432   0.14407   0.00000  Uiso   1.00
H312   H     0.84006   0.97109   0.12106   0.00000  Uiso   1.00
C313   C     0.61794   0.75340   0.22059   0.00000  Uiso   1.00
O314   O     0.61464   0.74720   0.27022   0.00000  Uiso   1.00
O315   O     0.64522   0.72233   0.18922   0.00000  Uiso   1.00
H316   H     0.65993   0.69556   0.21222   0.00000  Uiso   1.00
C317   C     0.88093   0.75268   0.21906   0.00000  Uiso   1.00
O318   O     0.85553   0.72699   0.19180   0.00000  Uiso   1.00
O319   O     0.88576   0.74387   0.27533   0.00000  Uiso   1.00
H320   H     0.86656   0.71508   0.28870   0.00000  Uiso   1.00
C321   C     0.61907   0.91401   0.11433   0.00000  Uiso   1.00
O322   O     0.64449   0.93967   0.14160   0.00000  Uiso   1.00
O323   O     0.61422   0.92288   0.05807   0.00000  Uiso   1.00
H324   H     0.63341   0.95169   0.04473   0.00000  Uiso   1.00
O325   O     0.25000   0.09512   0.54562   0.00000  Uiso   1.00
O326   O     0.25000   0.23822   0.45438   0.00000  Uiso   1.00
O327   O     0.25000   0.23822   0.54562   0.00000  Uiso   1.00
O328   O     0.25000   0.09512   0.45438   0.00000  Uiso   1.00
H329   H     0.46000   0.05471   0.56596   0.00000  Uiso   1.00
H330   H     0.04000   0.27866   0.43409   0.00000  Uiso   1.00
H331   H     0.46137   0.27834   0.43339   0.00000  Uiso   1.00
H332   H     0.03863   0.05500   0.56664   0.00000  Uiso   1.00
C333   C     0.25015   0.07269   0.49998   0.00000  Uiso   1.00
C334   C     0.24985   0.26065   0.50002   0.00000  Uiso   1.00
O335   O     0.18392   0.16667   0.54563   0.00000  Uiso   1.00
O336   O     0.31607   0.16667   0.45437   0.00000  Uiso   1.00
O337   O     0.31607   0.16667   0.54563   0.00000  Uiso   1.00
O338   O     0.18392   0.16667   0.45437   0.00000  Uiso   1.00
C339   C     0.16339   0.16649   0.50009   0.00000  Uiso   1.00
C340   C     0.33661   0.16685   0.49991   0.00000  Uiso   1.00
Zn341  Zn    0.25000   0.16667   0.56093   0.00000  Uiso   1.00
Zn342  Zn    0.25000   0.16667   0.43907   0.00000  Uiso   1.00
N343   N     0.25000   0.16667   0.35788   0.00000  Uiso   1.00
N344   N     0.25000   0.16667   0.64212   0.00000  Uiso   1.00
C345   C     0.40713   0.20575   0.47323   0.00000  Uiso   1.00
C346   C     0.09287   0.12759   0.52677   0.00000  Uiso   1.00
C347   C     0.40657   0.12713   0.52570   0.00000  Uiso   1.00
C348   C     0.09343   0.20622   0.47432   0.00000  Uiso   1.00
C349   C     0.38430   0.16658   0.49962   0.00000  Uiso   1.00
C350   C     0.11570   0.16675   0.50038   0.00000  Uiso   1.00
C351   C     0.45307   0.12676   0.52516   0.00000  Uiso   1.00
C352   C     0.04693   0.20659   0.47486   0.00000  Uiso   1.00
C353   C     0.45361   0.20631   0.47426   0.00000  Uiso   1.00
C354   C     0.04639   0.12703   0.52575   0.00000  Uiso   1.00
C355   C     0.47662   0.16661   0.49987   0.00000  Uiso   1.00
C356   C     0.02338   0.16674   0.50014   0.00000  Uiso   1.00
C357   C     0.47659   0.08684   0.54825   0.00000  Uiso   1.00
C358   C     0.02341   0.24651   0.45179   0.00000  Uiso   1.00
C359   C     0.47760   0.24635   0.45142   0.00000  Uiso   1.00
C360   C     0.02239   0.08700   0.54860   0.00000  Uiso   1.00
C361   C     0.25009   0.02174   0.49996   0.00000  Uiso   1.00
C362   C     0.24992   0.31159   0.50004   0.00000  Uiso   1.00
C363   C     0.38206   0.24659   0.44605   0.00000  Uiso   1.00
O364   O     0.38538   0.25279   0.39643   0.00000  Uiso   1.00
O365   O     0.35477   0.27765   0.47740   0.00000  Uiso   1.00
H366   H     0.34006   0.30443   0.45440   0.00000  Uiso   1.00
C367   C     0.11794   0.08673   0.55393   0.00000  Uiso   1.00
O368   O     0.11464   0.08053   0.60355   0.00000  Uiso   1.00
O369   O     0.14522   0.05567   0.52256   0.00000  Uiso   1.00
H370   H     0.15993   0.02889   0.54555   0.00000  Uiso   1.00
C371   C     0.38093   0.08602   0.55239   0.00000  Uiso   1.00
O372   O     0.35553   0.06032   0.52513   0.00000  Uiso   1.00
O373   O     0.38576   0.07720   0.60866   0.00000  Uiso   1.00
H374   H     0.36656   0.04842   0.62203   0.00000  Uiso   1.00
C375   C     0.11907   0.24735   0.44766   0.00000  Uiso   1.00
O376   O     0.14449   0.27301   0.47494   0.00000  Uiso   1.00
O377   O     0.11422   0.25622   0.39140   0.00000  Uiso   1.00
H378   H     0.13341   0.28502   0.37806   0.00000  Uiso   1.00
O379   O     0.75000   0.09512   0.54562   0.00000  Uiso   1.00
O380   O     0.75000   0.23822   0.45438   0.00000  Uiso   1.00
O381   O     0.75000   0.23822   0.54562   0.00000  Uiso   1.00
O382   O     0.75000   0.09512   0.45438   0.00000  Uiso   1.00
H383   H     0.96000   0.05471   0.56596   0.00000  Uiso   1.00
H384   H     0.54000   0.27866   0.43409   0.00000  Uiso   1.00
H385   H     0.96137   0.27834   0.43339   0.00000  Uiso   1.00
H386   H     0.53863   0.05500   0.56664   0.00000  Uiso   1.00
C387   C     0.75015   0.07269   0.49998   0.00000  Uiso   1.00
C388   C     0.74985   0.26065   0.50002   0.00000  Uiso   1.00
O389   O     0.68392   0.16667   0.54563   0.00000  Uiso   1.00
O390   O     0.81607   0.16667   0.45437   0.00000  Uiso   1.00
O391   O     0.81607   0.16667   0.54563   0.00000  Uiso   1.00
O392   O     0.68392   0.16667   0.45437   0.00000  Uiso   1.00
C393   C     0.66339   0.16649   0.50009   0.00000  Uiso   1.00
C394   C     0.83661   0.16685   0.49991   0.00000  Uiso   1.00
Zn395  Zn    0.75000   0.16667   0.56093   0.00000  Uiso   1.00
Zn396  Zn    0.75000   0.16667   0.43907   0.00000  Uiso   1.00
N397   N     0.75000   0.16667   0.35788   0.00000  Uiso   1.00
N398   N     0.75000   0.16667   0.64212   0.00000  Uiso   1.00
C399   C     0.90713   0.20575   0.47323   0.00000  Uiso   1.00
C400   C     0.59287   0.12759   0.52677   0.00000  Uiso   1.00
C401   C     0.90657   0.12713   0.52570   0.00000  Uiso   1.00
C402   C     0.59343   0.20622   0.47432   0.00000  Uiso   1.00
C403   C     0.88430   0.16658   0.49962   0.00000  Uiso   1.00
C404   C     0.61570   0.16675   0.50038   0.00000  Uiso   1.00
C405   C     0.95307   0.12676   0.52516   0.00000  Uiso   1.00
C406   C     0.54693   0.20659   0.47486   0.00000  Uiso   1.00
C407   C     0.95361   0.20631   0.47426   0.00000  Uiso   1.00
C408   C     0.54639   0.12703   0.52575   0.00000  Uiso   1.00
C409   C     0.97662   0.16661   0.49987   0.00000  Uiso   1.00
C410   C     0.52338   0.16674   0.50014   0.00000  Uiso   1.00
C411   C     0.97659   0.08684   0.54825   0.00000  Uiso   1.00
C412   C     0.52341   0.24651   0.45179   0.00000  Uiso   1.00
C413   C     0.97760   0.24635   0.45142   0.00000  Uiso   1.00
C414   C     0.52239   0.08700   0.54860   0.00000  Uiso   1.00
C415   C     0.75009   0.02174   0.49996   0.00000  Uiso   1.00
C416   C     0.74992   0.31159   0.50004   0.00000  Uiso   1.00
C417   C     0.88206   0.24659   0.44605   0.00000  Uiso   1.00
O418   O     0.88538   0.25279   0.39643   0.00000  Uiso   1.00
O419   O     0.85477   0.27765   0.47740   0.00000  Uiso   1.00
H420   H     0.84006   0.30443   0.45440   0.00000  Uiso   1.00
C421   C     0.61794   0.08673   0.55393   0.00000  Uiso   1.00
O422   O     0.61464   0.08053   0.60355   0.00000  Uiso   1.00
O423   O     0.64522   0.05567   0.52256   0.00000  Uiso   1.00
H424   H     0.65993   0.02889   0.54555   0.00000  Uiso   1.00
C425   C     0.88093   0.08602   0.55239   0.00000  Uiso   1.00
O426   O     0.85553   0.06032   0.52513   0.00000  Uiso   1.00
O427   O     0.88576   0.07720   0.60866   0.00000  Uiso   1.00
H428   H     0.86656   0.04842   0.62203   0.00000  Uiso   1.00
C429   C     0.61907   0.24735   0.44766   0.00000  Uiso   1.00
O430   O     0.64449   0.27301   0.47494   0.00000  Uiso   1.00
O431   O     0.61422   0.25622   0.39140   0.00000  Uiso   1.00
H432   H     0.63341   0.28502   0.37806   0.00000  Uiso   1.00
O433   O     0.25000   0.42845   0.54562   0.00000  Uiso   1.00
O434   O     0.25000   0.57155   0.45438   0.00000  Uiso   1.00
O435   O     0.25000   0.57155   0.54562   0.00000  Uiso   1.00
O436   O     0.25000   0.42845   0.45438   0.00000  Uiso   1.00
H437   H     0.46000   0.38804   0.56596   0.00000  Uiso   1.00
H438   H     0.04000   0.61199   0.43409   0.00000  Uiso   1.00
H439   H     0.46137   0.61168   0.43339   0.00000  Uiso   1.00
H440   H     0.03863   0.38834   0.56664   0.00000  Uiso   1.00
C441   C     0.25015   0.40602   0.49998   0.00000  Uiso   1.00
C442   C     0.24985   0.59398   0.50002   0.00000  Uiso   1.00
O443   O     0.18392   0.50000   0.54563   0.00000  Uiso   1.00
O444   O     0.31607   0.50000   0.45437   0.00000  Uiso   1.00
O445   O     0.31607   0.50000   0.54563   0.00000  Uiso   1.00
O446   O     0.18392   0.50000   0.45437   0.00000  Uiso   1.00
C447   C     0.16339   0.49982   0.50009   0.00000  Uiso   1.00
C448   C     0.33661   0.50018   0.49991   0.00000  Uiso   1.00
Zn449  Zn    0.25000   0.50000   0.56093   0.00000  Uiso   1.00
Zn450  Zn    0.25000   0.50000   0.43907   0.00000  Uiso   1.00
N451   N     0.25000   0.50000   0.35788   0.00000  Uiso   1.00
N452   N     0.25000   0.50000   0.64212   0.00000  Uiso   1.00
C453   C     0.40713   0.53908   0.47323   0.00000  Uiso   1.00
C454   C     0.09287   0.46092   0.52677   0.00000  Uiso   1.00
C455   C     0.40657   0.46047   0.52570   0.00000  Uiso   1.00
C456   C     0.09343   0.53955   0.47432   0.00000  Uiso   1.00
C457   C     0.38430   0.49992   0.49962   0.00000  Uiso   1.00
C458   C     0.11570   0.50009   0.50038   0.00000  Uiso   1.00
C459   C     0.45307   0.46010   0.52516   0.00000  Uiso   1.00
C460   C     0.04693   0.53992   0.47486   0.00000  Uiso   1.00
C461   C     0.45361   0.53964   0.47426   0.00000  Uiso   1.00
C462   C     0.04639   0.46037   0.52575   0.00000  Uiso   1.00
C463   C     0.47662   0.49994   0.49987   0.00000  Uiso   1.00
C464   C     0.02338   0.50007   0.50014   0.00000  Uiso   1.00
C465   C     0.47659   0.42017   0.54825   0.00000  Uiso   1.00
C466   C     0.02341   0.57985   0.45179   0.00000  Uiso   1.00
C467   C     0.47760   0.57968   0.45142   0.00000  Uiso   1.00
C468   C     0.02239   0.42033   0.54860   0.00000  Uiso   1.00
C469   C     0.25009   0.35507   0.49996   0.00000  Uiso   1.00
C470   C     0.24992   0.64493   0.50004   0.00000  Uiso   1.00
C471   C     0.38206   0.57992   0.44605   0.00000  Uiso   1.00
O472   O     0.38538   0.58612   0.39643   0.00000  Uiso   1.00
O473   O     0.35477   0.61099   0.47740   0.00000  Uiso   1.00
H474   H     0.34006   0.63776   0.45440   0.00000  Uiso   1.00
C475   C     0.11794   0.42007   0.55393   0.00000  Uiso   1.00
O476   O     0.11464   0.41387   0.60355   0.00000  Uiso   1.00
O477   O     0.14522   0.38900   0.52256   0.00000  Uiso   1.00
H478   H     0.15993   0.36222   0.54555   0.00000  Uiso   1.00
C479   C     0.38093   0.41935   0.55239   0.00000  Uiso   1.00
O480   O     0.35553   0.39366   0.52513   0.00000  Uiso   1.00
O481   O     0.38576   0.41053   0.60866   0.00000  Uiso   1.00
H482   H     0.36656   0.38175   0.62203   0.00000  Uiso   1.00
C483   C     0.11907   0.58068   0.44766   0.00000  Uiso   1.00
O484   O     0.14449   0.60634   0.47494   0.00000  Uiso   1.00
O485   O     0.11422   0.58955   0.39140   0.00000  Uiso   1.00
H486   H     0.13341   0.61835   0.37806   0.00000  Uiso   1.00
O487   O     0.75000   0.42845   0.54562   0.00000  Uiso   1.00
O488   O     0.75000   0.57155   0.45438   0.00000  Uiso   1.00
O489   O     0.75000   0.57155   0.54562   0.00000  Uiso   1.00
O490   O     0.75000   0.42845   0.45438   0.00000  Uiso   1.00
H491   H     0.96000   0.38804   0.56596   0.00000  Uiso   1.00
H492   H     0.54000   0.61199   0.43409   0.00000  Uiso   1.00
H493   H     0.96137   0.61168   0.43339   0.00000  Uiso   1.00
H494   H     0.53863   0.38834   0.56664   0.00000  Uiso   1.00
C495   C     0.75015   0.40602   0.49998   0.00000  Uiso   1.00
C496   C     0.74985   0.59398   0.50002   0.00000  Uiso   1.00
O497   O     0.68392   0.50000   0.54563   0.00000  Uiso   1.00
O498   O     0.81607   0.50000   0.45437   0.00000  Uiso   1.00
O499   O     0.81607   0.50000   0.54563   0.00000  Uiso   1.00
O500   O     0.68392   0.50000   0.45437   0.00000  Uiso   1.00
C501   C     0.66339   0.49982   0.50009   0.00000  Uiso   1.00
C502   C     0.83661   0.50018   0.49991   0.00000  Uiso   1.00
Zn503  Zn    0.75000   0.50000   0.56093   0.00000  Uiso   1.00
Zn504  Zn    0.75000   0.50000   0.43907   0.00000  Uiso   1.00
N505   N     0.75000   0.50000   0.35788   0.00000  Uiso   1.00
N506   N     0.75000   0.50000   0.64212   0.00000  Uiso   1.00
C507   C     0.90713   0.53908   0.47323   0.00000  Uiso   1.00
C508   C     0.59287   0.46092   0.52677   0.00000  Uiso   1.00
C509   C     0.90657   0.46047   0.52570   0.00000  Uiso   1.00
C510   C     0.59343   0.53955   0.47432   0.00000  Uiso   1.00
C511   C     0.88430   0.49992   0.49962   0.00000  Uiso   1.00
C512   C     0.61570   0.50009   0.50038   0.00000  Uiso   1.00
C513   C     0.95307   0.46010   0.52516   0.00000  Uiso   1.00
C514   C     0.54693   0.53992   0.47486   0.00000  Uiso   1.00
C515   C     0.95361   0.53964   0.47426   0.00000  Uiso   1.00
C516   C     0.54639   0.46037   0.52575   0.00000  Uiso   1.00
C517   C     0.97662   0.49994   0.49987   0.00000  Uiso   1.00
C518   C     0.52338   0.50007   0.50014   0.00000  Uiso   1.00
C519   C     0.97659   0.42017   0.54825   0.00000  Uiso   1.00
C520   C     0.52341   0.57985   0.45179   0.00000  Uiso   1.00
C521   C     0.97760   0.57968   0.45142   0.00000  Uiso   1.00
C522   C     0.52239   0.42033   0.54860   0.00000  Uiso   1.00
C523   C     0.75009   0.35507   0.49996   0.00000  Uiso   1.00
C524   C     0.74992   0.64493   0.50004   0.00000  Uiso   1.00
C525   C     0.88206   0.57992   0.44605   0.00000  Uiso   1.00
O526   O     0.88538   0.58612   0.39643   0.00000  Uiso   1.00
O527   O     0.85477   0.61099   0.47740   0.00000  Uiso   1.00
H528   H     0.84006   0.63776   0.45440   0.00000  Uiso   1.00
C529   C     0.61794   0.42007   0.55393   0.00000  Uiso   1.00
O530   O     0.61464   0.41387   0.60355   0.00000  Uiso   1.00
O531   O     0.64522   0.38900   0.52256   0.00000  Uiso   1.00
H532   H     0.65993   0.36222   0.54555   0.00000  Uiso   1.00
C533   C     0.88093   0.41935   0.55239   0.00000  Uiso   1.00
O534   O     0.85553   0.39366   0.52513   0.00000  Uiso   1.00
O535   O     0.88576   0.41053   0.60866   0.00000  Uiso   1.00
H536   H     0.86656   0.38175   0.62203   0.00000  Uiso   1.00
C537   C     0.61907   0.58068   0.44766   0.00000  Uiso   1.00
O538   O     0.64449   0.60634   0.47494   0.00000  Uiso   1.00
O539   O     0.61422   0.58955   0.39140   0.00000  Uiso   1.00
H540   H     0.63341   0.61835   0.37806   0.00000  Uiso   1.00
O541   O     0.25000   0.76178   0.54562   0.00000  Uiso   1.00
O542   O     0.25000   0.90488   0.45438   0.00000  Uiso   1.00
O543   O     0.25000   0.90488   0.54562   0.00000  Uiso   1.00
O544   O     0.25000   0.76178   0.45438   0.00000  Uiso   1.00
H545   H     0.46000   0.72137   0.56596   0.00000  Uiso   1.00
H546   H     0.04000   0.94532   0.43409   0.00000  Uiso   1.00
H547   H     0.46137   0.94501   0.43339   0.00000  Uiso   1.00
H548   H     0.03863   0.72167   0.56664   0.00000  Uiso   1.00
C549   C     0.25015   0.73935   0.49998   0.00000  Uiso   1.00
C550   C     0.24985   0.92731   0.50002   0.00000  Uiso   1.00
O551   O     0.18392   0.83333   0.54563   0.00000  Uiso   1.00
O552   O     0.31607   0.83333   0.45437   0.00000  Uiso   1.00
O553   O     0.31607   0.83333   0.54563   0.00000  Uiso   1.00
O554   O     0.18392   0.83333   0.45437   0.00000  Uiso   1.00
C555   C     0.16339   0.83315   0.50009   0.00000  Uiso   1.00
C556   C     0.33661   0.83351   0.49991   0.00000  Uiso   1.00
Zn557  Zn    0.25000   0.83333   0.56093   0.00000  Uiso   1.00
Zn558  Zn    0.25000   0.83333   0.43907   0.00000  Uiso   1.00
N559   N     0.25000   0.83333   0.35788   0.00000  Uiso   1.00
N560   N     0.25000   0.83333   0.64212   0.00000  Uiso   1.00
C561   C     0.40713   0.87242   0.47323   0.00000  Uiso   1.00
C562   C     0.09287   0.79425   0.52677   0.00000  Uiso   1.00
C563   C     0.40657   0.79380   0.52570   0.00000  Uiso   1.00
C564   C     0.09343   0.87288   0.47432   0.00000  Uiso   1.00
C565   C     0.38430   0.83325   0.49962   0.00000  Uiso   1.00
C566   C     0.11570   0.83342   0.50038   0.00000  Uiso   1.00
C567   C     0.45307   0.79343   0.52516   0.00000  Uiso   1.00
C568   C     0.04693   0.87325   0.47486   0.00000  Uiso   1.00
C569   C     0.45361   0.87297   0.47426   0.00000  Uiso   1.00
C570   C     0.04639   0.79370   0.52575   0.00000  Uiso   1.00
C571   C     0.47662   0.83327   0.49987   0.00000  Uiso   1.00
C572   C     0.02338   0.83340   0.50014   0.00000  Uiso   1.00
C573   C     0.47659   0.75351   0.54825   0.00000  Uiso   1.00
C574   C     0.02341   0.91318   0.45179   0.00000  Uiso   1.00
C575   C     0.47760   0.91301   0.45142   0.00000  Uiso   1.00
C576   C     0.02239   0.75367   0.54860   0.00000  Uiso   1.00
C577   C     0.25009   0.68841   0.49996   0.00000  Uiso   1.00
C578   C     0.24992   0.97826   0.50004   0.00000  Uiso   1.00
C579   C     0.38206   0.91326   0.44605   0.00000  Uiso   1.00
O580   O     0.38538   0.91946   0.39643   0.00000  Uiso   1.00
O581   O     0.35477   0.94432   0.47740   0.00000  Uiso   1.00
H582   H     0.34006   0.97109   0.45440   0.00000  Uiso   1.00
C583   C     0.11794   0.75340   0.55393   0.00000  Uiso   1.00
O584   O     0.11464   0.74720   0.60355   0.00000  Uiso   1.00
O585   O     0.14522   0.72233   0.52256   0.00000  Uiso   1.00
H586   H     0.15993   0.69556   0.54555   0.00000  Uiso   1.00
C587   C     0.38093   0.75268   0.55239   0.00000  Uiso   1.00
O588   O     0.35553   0.72699   0.52513   0.00000  Uiso   1.00
O589   O     0.38576   0.74387   0.60866   0.00000  Uiso   1.00
H590   H     0.36656   0.71508   0.62203   0.00000  Uiso   1.00
C591   C     0.11907   0.91401   0.44766   0.00000  Uiso   1.00
O592   O     0.14449   0.93967   0.47494   0.00000  Uiso   1.00
O593   O     0.11422   0.92288   0.39140   0.00000  Uiso   1.00
H594   H     0.13341   0.95169   0.37806   0.00000  Uiso   1.00
O595   O     0.75000   0.76178   0.54562   0.00000  Uiso   1.00
O596   O     0.75000   0.90488   0.45438   0.00000  Uiso   1.00
O597   O     0.75000   0.90488   0.54562   0.00000  Uiso   1.00
O598   O     0.75000   0.76178   0.45438   0.00000  Uiso   1.00
H599   H     0.96000   0.72137   0.56596   0.00000  Uiso   1.00
H600   H     0.54000   0.94532   0.43409   0.00000  Uiso   1.00
H601   H     0.96137   0.94501   0.43339   0.00000  Uiso   1.00
H602   H     0.53863   0.72167   0.56664   0.00000  Uiso   1.00
C603   C     0.75015   0.73935   0.49998   0.00000  Uiso   1.00
C604   C     0.74985   0.92731   0.50002   0.00000  Uiso   1.00
O605   O     0.68392   0.83333   0.54563   0.00000  Uiso   1.00
O606   O     0.81607   0.83333   0.45437   0.00000  Uiso   1.00
O607   O     0.81607   0.83333   0.54563   0.00000  Uiso   1.00
O608   O     0.68392   0.83333   0.45437   0.00000  Uiso   1.00
C609   C     0.66339   0.83315   0.50009   0.00000  Uiso   1.00
C610   C     0.83661   0.83351   0.49991   0.00000  Uiso   1.00
Zn611  Zn    0.75000   0.83333   0.56093   0.00000  Uiso   1.00
Zn612  Zn    0.75000   0.83333   0.43907   0.00000  Uiso   1.00
N613   N     0.75000   0.83333   0.35788   0.00000  Uiso   1.00
N614   N     0.75000   0.83333   0.64212   0.00000  Uiso   1.00
C615   C     0.90713   0.87242   0.47323   0.00000  Uiso   1.00
C616   C     0.59287   0.79425   0.52677   0.00000  Uiso   1.00
C617   C     0.90657   0.79380   0.52570   0.00000  Uiso   1.00
C618   C     0.59343   0.87288   0.47432   0.00000  Uiso   1.00
C619   C     0.88430   0.83325   0.49962   0.00000  Uiso   1.00
C620   C     0.61570   0.83342   0.50038   0.00000  Uiso   1.00
C621   C     0.95307   0.79343   0.52516   0.00000  Uiso   1.00
C622   C     0.54693   0.87325   0.47486   0.00000  Uiso   1.00
C623   C     0.95361   0.87297   0.47426   0.00000  Uiso   1.00
C624   C     0.54639   0.79370   0.52575   0.00000  Uiso   1.00
C625   C     0.97662   0.83327   0.49987   0.00000  Uiso   1.00
C626   C     0.52338   0.83340   0.50014   0.00000  Uiso   1.00
C627   C     0.97659   0.75351   0.54825   0.00000  Uiso   1.00
C628   C     0.52341   0.91318   0.45179   0.00000  Uiso   1.00
C629   C     0.97760   0.91301   0.45142   0.00000  Uiso   1.00
C630   C     0.52239   0.75367   0.54860   0.00000  Uiso   1.00
C631   C     0.75009   0.68841   0.49996   0.00000  Uiso   1.00
C632   C     0.74992   0.97826   0.50004   0.00000  Uiso   1.00
C633   C     0.88206   0.91326   0.44605   0.00000  Uiso   1.00
O634   O     0.88538   0.91946   0.39643   0.00000  Uiso   1.00
O635   O     0.85477   0.94432   0.47740   0.00000  Uiso   1.00
H636   H     0.84006   0.97109   0.45440   0.00000  Uiso   1.00
C637   C     0.61794   0.75340   0.55393   0.00000  Uiso   1.00
O638   O     0.61464   0.74720   0.60355   0.00000  Uiso   1.00
O639   O     0.64522   0.72233   0.52256   0.00000  Uiso   1.00
H640   H     0.65993   0.69556   0.54555   0.00000  Uiso   1.00
C641   C     0.88093   0.75268   0.55239   0.00000  Uiso   1.00
O642   O     0.85553   0.72699   0.52513   0.00000  Uiso   1.00
O643   O     0.88576   0.74387   0.60866   0.00000  Uiso   1.00
H644   H     0.86656   0.71508   0.62203   0.00000  Uiso   1.00
C645   C     0.61907   0.91401   0.44766   0.00000  Uiso   1.00
O646   O     0.64449   0.93967   0.47494   0.00000  Uiso   1.00
O647   O     0.61422   0.92288   0.39140   0.00000  Uiso   1.00
H648   H     0.63341   0.95169   0.37806   0.00000  Uiso   1.00
O649   O     0.25000   0.09512   0.87895   0.00000  Uiso   1.00
O650   O     0.25000   0.23822   0.78772   0.00000  Uiso   1.00
O651   O     0.25000   0.23822   0.87895   0.00000  Uiso   1.00
O652   O     0.25000   0.09512   0.78772   0.00000  Uiso   1.00
H653   H     0.46000   0.05471   0.89929   0.00000  Uiso   1.00
H654   H     0.04000   0.27866   0.76742   0.00000  Uiso   1.00
H655   H     0.46137   0.27834   0.76672   0.00000  Uiso   1.00
H656   H     0.03863   0.05500   0.89997   0.00000  Uiso   1.00
C657   C     0.25015   0.07269   0.83331   0.00000  Uiso   1.00
C658   C     0.24985   0.26065   0.83335   0.00000  Uiso   1.00
O659   O     0.18392   0.16667   0.87896   0.00000  Uiso   1.00
O660   O     0.31607   0.16667   0.78770   0.00000  Uiso   1.00
O661   O     0.31607   0.16667   0.87896   0.00000  Uiso   1.00
O662   O     0.18392   0.16667   0.78770   0.00000  Uiso   1.00
C663   C     0.16339   0.16649   0.83343   0.00000  Uiso   1.00
C664   C     0.33661   0.16685   0.83324   0.00000  Uiso   1.00
Zn665  Zn    0.25000   0.16667   0.89426   0.00000  Uiso   1.00
Zn666  Zn    0.25000   0.16667   0.77241   0.00000  Uiso   1.00
N667   N     0.25000   0.16667   0.69121   0.00000  Uiso   1.00
N668   N     0.25000   0.16667   0.97545   0.00000  Uiso   1.00
C669   C     0.40713   0.20575   0.80656   0.00000  Uiso   1.00
C670   C     0.09287   0.12759   0.86010   0.00000  Uiso   1.00
C671   C     0.40657   0.12713   0.85903   0.00000  Uiso   1.00
C672   C     0.09343   0.20622   0.80765   0.00000  Uiso   1.00
C673   C     0.38430   0.16658   0.83296   0.00000  Uiso   1.00
C674   C     0.11570   0.16675   0.83371   0.00000  Uiso   1.00
C675   C     0.45307   0.12676   0.85849   0.00000  Uiso   1.00
C676   C     0.04693   0.20659   0.80819   0.00000  Uiso   1.00
C677   C     0.45361   0.20631   0.80759   0.00000  Uiso   1.00
C678   C     0.04639   0.12703   0.85908   0.00000  Uiso   1.00
C679   C     0.47662   0.16661   0.83320   0.00000  Uiso   1.00
C680   C     0.02338   0.16674   0.83348   0.00000  Uiso   1.00
C681   C     0.47659   0.08684   0.88158   0.00000  Uiso   1.00
C682   C     0.02341   0.24651   0.78512   0.00000  Uiso   1.00
C683   C     0.47760   0.24635   0.78475   0.00000  Uiso   1.00
C684   C     0.02239   0.08700   0.88194   0.00000  Uiso   1.00
C685   C     0.25009   0.02174   0.83330   0.00000  Uiso   1.00
C686   C     0.24992   0.31159   0.83337   0.00000  Uiso   1.00
C687   C     0.38206   0.24659   0.77938   0.00000  Uiso   1.00
O688   O     0.38538   0.25279   0.72976   0.00000  Uiso   1.00
O689   O     0.35477   0.27765   0.81073   0.00000  Uiso   1.00
H690   H     0.34006   0.30443   0.78773   0.00000  Uiso   1.00
C691   C     0.11794   0.08673   0.88726   0.00000  Uiso   1.00
O692   O     0.11464   0.08053   0.93689   0.00000  Uiso   1.00
O693   O     0.14522   0.05567   0.85589   0.00000  Uiso   1.00
H694   H     0.15993   0.02889   0.87888   0.00000  Uiso   1.00
C695   C     0.38093   0.08602   0.88572   0.00000  Uiso   1.00
O696   O     0.35553   0.06032   0.85846   0.00000  Uiso   1.00
O697   O     0.38576   0.07720   0.94200   0.00000  Uiso   1.00
H698   H     0.36656   0.04842   0.95536   0.00000  Uiso   1.00
C699   C     0.11907   0.24735   0.78099   0.00000  Uiso   1.00
O700   O     0.14449   0.27301   0.80827   0.00000  Uiso   1.00
O701   O     0.11422   0.25622   0.72473   0.00000  Uiso   1.00
H702   H     0.13341   0.28502   0.71139   0.00000  Uiso   1.00
O703   O     0.75000   0.09512   0.87895   0.00000  Uiso   1.00
O704   O     0.75000   0.23822   0.78772   0.00000  Uiso   1.00
O705   O     0.75000   0.23822   0.87895   0.00000  Uiso   1.00
O706   O     0.75000   0.09512   0.78772   0.00000  Uiso   1.00
H707   H     0.96000   0.05471   0.89929   0.00000  Uiso   1.00
H708   H     0.54000   0.27866   0.76742   0.00000  Uiso   1.00
H709   H     0.96137   0.27834   0.76672   0.00000  Uiso   1.00
H710   H     0.53863   0.05500   0.89997   0.00000  Uiso   1.00
C711   C     0.75015   0.07269   0.83331   0.00000  Uiso   1.00
C712   C     0.74985   0.26065   0.83335   0.00000  Uiso   1.00
O713   O     0.68392   0.16667   0.87896   0.00000  Uiso   1.00
O714   O     0.81607   0.16667   0.78770   0.00000  Uiso   1.00
O715   O     0.81607   0.16667   0.87896   0.00000  Uiso   1.00
O716   O     0.68392   0.16667   0.78770   0.00000  Uiso   1.00
C717   C     0.66339   0.16649   0.83343   0.00000  Uiso   1.00
C718   C     0.83661   0.16685   0.83324   0.00000  Uiso   1.00
Zn719  Zn    0.75000   0.16667   0.89426   0.00000  Uiso   1.00
Zn720  Zn    0.75000   0.16667   0.77241   0.00000  Uiso   1.00
N721   N     0.75000   0.16667   0.69121   0.00000  Uiso   1.00
N722   N     0.75000   0.16667   0.97545   0.00000  Uiso   1.00
C723   C     0.90713   0.20575   0.80656   0.00000  Uiso   1.00
C724   C     0.59287   0.12759   0.86010   0.00000  Uiso   1.00
C725   C     0.90657   0.12713   0.85903   0.00000  Uiso   1.00
C726   C     0.59343   0.20622   0.80765   0.00000  Uiso   1.00
C727   C     0.88430   0.16658   0.83296   0.00000  Uiso   1.00
C728   C     0.61570   0.16675   0.83371   0.00000  Uiso   1.00
C729   C     0.95307   0.12676   0.85849   0.00000  Uiso   1.00
C730   C     0.54693   0.20659   0.80819   0.00000  Uiso   1.00
C731   C     0.95361   0.20631   0.80759   0.00000  Uiso   1.00
C732   C     0.54639   0.12703   0.85908   0.00000  Uiso   1.00
C733   C     0.97662   0.16661   0.83320   0.00000  Uiso   1.00
C734   C     0.52338   0.16674   0.83348   0.00000  Uiso   1.00
C735   C     0.97659   0.08684   0.88158   0.00000  Uiso   1.00
C736   C     0.52341   0.24651   0.78512   0.00000  Uiso   1.00
C737   C     0.97760   0.24635   0.78475   0.00000  Uiso   1.00
C738   C     0.52239   0.08700   0.88194   0.00000  Uiso   1.00
C739   C     0.75009   0.02174   0.83330   0.00000  Uiso   1.00
C740   C     0.74992   0.31159   0.83337   0.00000  Uiso   1.00
C741   C     0.88206   0.24659   0.77938   0.00000  Uiso   1.00
O742   O     0.88538   0.25279   0.72976   0.00000  Uiso   1.00
O743   O     0.85477   0.27765   0.81073   0.00000  Uiso   1.00
H744   H     0.84006   0.30443   0.78773   0.00000  Uiso   1.00
C745   C     0.61794   0.08673   0.88726   0.00000  Uiso   1.00
O746   O     0.61464   0.08053   0.93689   0.00000  Uiso   1.00
O747   O     0.64522   0.05567   0.85589   0.00000  Uiso   1.00
H748   H     0.65993   0.02889   0.87888   0.00000  Uiso   1.00
C749   C     0.88093   0.08602   0.88572   0.00000  Uiso   1.00
O750   O     0.85553   0.06032   0.85846   0.00000  Uiso   1.00
O751   O     0.88576   0.07720   0.94200   0.00000  Uiso   1.00
H752   H     0.86656   0.04842   0.95536   0.00000  Uiso   1.00
C753   C     0.61907   0.24735   0.78099   0.00000  Uiso   1.00
O754   O     0.64449   0.27301   0.80827   0.00000  Uiso   1.00
O755   O     0.61422   0.25622   0.72473   0.00000  Uiso   1.00
H756   H     0.63341   0.28502   0.71139   0.00000  Uiso   1.00
O757   O     0.25000   0.42845   0.87895   0.00000  Uiso   1.00
O758   O     0.25000   0.57155   0.78772   0.00000  Uiso   1.00
O759   O     0.25000   0.57155   0.87895   0.00000  Uiso   1.00
O760   O     0.25000   0.42845   0.78772   0.00000  Uiso   1.00
H761   H     0.46000   0.38804   0.89929   0.00000  Uiso   1.00
H762   H     0.04000   0.61199   0.76742   0.00000  Uiso   1.00
H763   H     0.46137   0.61168   0.76672   0.00000  Uiso   1.00
H764   H     0.03863   0.38834   0.89997   0.00000  Uiso   1.00
C765   C     0.25015   0.40602   0.83331   0.00000  Uiso   1.00
C766   C     0.24985   0.59398   0.83335   0.00000  Uiso   1.00
O767   O     0.18392   0.50000   0.87896   0.00000  Uiso   1.00
O768   O     0.31607   0.50000   0.78770   0.00000  Uiso   1.00
O769   O     0.31607   0.50000   0.87896   0.00000  Uiso   1.00
O770   O     0.18392   0.50000   0.78770   0.00000  Uiso   1.00
C771   C     0.16339   0.49982   0.83343   0.00000  Uiso   1.00
C772   C     0.33661   0.50018   0.83324   0.00000  Uiso   1.00
Zn773  Zn    0.25000   0.50000   0.89426   0.00000  Uiso   1.00
Zn774  Zn    0.25000   0.50000   0.77241   0.00000  Uiso   1.00
N775   N     0.25000   0.50000   0.69121   0.00000  Uiso   1.00
N776   N     0.25000   0.50000   0.97545   0.00000  Uiso   1.00
C777   C     0.40713   0.53908   0.80656   0.00000  Uiso   1.00
C778   C     0.09287   0.46092   0.86010   0.00000  Uiso   1.00
C779   C     0.40657   0.46047   0.85903   0.00000  Uiso   1.00
C780   C     0.09343   0.53955   0.80765   0.00000  Uiso   1.00
C781   C     0.38430   0.49992   0.83296   0.00000  Uiso   1.00
C782   C     0.11570   0.50009   0.83371   0.00000  Uiso   1.00
C783   C     0.45307   0.46010   0.85849   0.00000  Uiso   1.00
C784   C     0.04693   0.53992   0.80819   0.00000  Uiso   1.00
C785   C     0.45361   0.53964   0.80759   0.00000  Uiso   1.00
C786   C     0.04639   0.46037   0.85908   0.00000  Uiso   1.00
C787   C     0.47662   0.49994   0.83320   0.00000  Uiso   1.00
C788   C     0.02338   0.50007   0.83348   0.00000  Uiso   1.00
C789   C     0.47659   0.42017   0.88158   0.00000  Uiso   1.00
C790   C     0.02341   0.57985   0.78512   0.00000  Uiso   1.00
C791   C     0.47760   0.57968   0.78475   0.00000  Uiso   1.00
C792   C     0.02239   0.42033   0.88194   0.00000  Uiso   1.00
C793   C     0.25009   0.35507   0.83330   0.00000  Uiso   1.00
C794   C     0.24992   0.64493   0.83337   0.00000  Uiso   1.00
C795   C     0.38206   0.57992   0.77938   0.00000  Uiso   1.00
O796   O     0.38538   0.58612   0.72976   0.00000  Uiso   1.00
O797   O     0.35477   0.61099   0.81073   0.00000  Uiso   1.00
H798   H     0.34006   0.63776   0.78773   0.00000  Uiso   1.00
C799   C     0.11794   0.42007   0.88726   0.00000  Uiso   1.00
O800   O     0.11464   0.41387   0.93689   0.00000  Uiso   1.00
O801   O     0.14522   0.38900   0.85589   0.00000  Uiso   1.00
H802   H     0.15993   0.36222   0.87888   0.00000  Uiso   1.00
C803   C     0.38093   0.41935   0.88572   0.00000  Uiso   1.00
O804   O     0.35553   0.39366   0.85846   0.00000  Uiso   1.00
O805   O     0.38576   0.41053   0.94200   0.00000  Uiso   1.00
H806   H     0.36656   0.38175   0.95536   0.00000  Uiso   1.00
C807   C     0.11907   0.58068   0.78099   0.00000  Uiso   1.00
O808   O     0.14449   0.60634   0.80827   0.00000  Uiso   1.00
O809   O     0.11422   0.58955   0.72473   0.00000  Uiso   1.00
H810   H     0.13341   0.61835   0.71139   0.00000  Uiso   1.00
O811   O     0.75000   0.42845   0.87895   0.00000  Uiso   1.00
O812   O     0.75000   0.57155   0.78772   0.00000  Uiso   1.00
O813   O     0.75000   0.57155   0.87895   0.00000  Uiso   1.00
O814   O     0.75000   0.42845   0.78772   0.00000  Uiso   1.00
H815   H     0.96000   0.38804   0.89929   0.00000  Uiso   1.00
H816   H     0.54000   0.61199   0.76742   0.00000  Uiso   1.00
H817   H     0.96137   0.61168   0.76672   0.00000  Uiso   1.00
H818   H     0.53863   0.38834   0.89997   0.00000  Uiso   1.00
C819   C     0.75015   0.40602   0.83331   0.00000  Uiso   1.00
C820   C     0.74985   0.59398   0.83335   0.00000  Uiso   1.00
O821   O     0.68392   0.50000   0.87896   0.00000  Uiso   1.00
O822   O     0.81607   0.50000   0.78770   0.00000  Uiso   1.00
O823   O     0.81607   0.50000   0.87896   0.00000  Uiso   1.00
O824   O     0.68392   0.50000   0.78770   0.00000  Uiso   1.00
C825   C     0.66339   0.49982   0.83343   0.00000  Uiso   1.00
C826   C     0.83661   0.50018   0.83324   0.00000  Uiso   1.00
Zn827  Zn    0.75000   0.50000   0.89426   0.00000  Uiso   1.00
Zn828  Zn    0.75000   0.50000   0.77241   0.00000  Uiso   1.00
N829   N     0.75000   0.50000   0.69121   0.00000  Uiso   1.00
N830   N     0.75000   0.50000   0.97545   0.00000  Uiso   1.00
C831   C     0.90713   0.53908   0.80656   0.00000  Uiso   1.00
C832   C     0.59287   0.46092   0.86010   0.00000  Uiso   1.00
C833   C     0.90657   0.46047   0.85903   0.00000  Uiso   1.00
C834   C     0.59343   0.53955   0.80765   0.00000  Uiso   1.00
C835   C     0.88430   0.49992   0.83296   0.00000  Uiso   1.00
C836   C     0.61570   0.50009   0.83371   0.00000  Uiso   1.00
C837   C     0.95307   0.46010   0.85849   0.00000  Uiso   1.00
C838   C     0.54693   0.53992   0.80819   0.00000  Uiso   1.00
C839   C     0.95361   0.53964   0.80759   0.00000  Uiso   1.00
C840   C     0.54639   0.46037   0.85908   0.00000  Uiso   1.00
C841   C     0.97662   0.49994   0.83320   0.00000  Uiso   1.00
C842   C     0.52338   0.50007   0.83348   0.00000  Uiso   1.00
C843   C     0.97659   0.42017   0.88158   0.00000  Uiso   1.00
C844   C     0.52341   0.57985   0.78512   0.00000  Uiso   1.00
C845   C     0.97760   0.57968   0.78475   0.00000  Uiso   1.00
C846   C     0.52239   0.42033   0.88194   0.00000  Uiso   1.00
C847   C     0.75009   0.35507   0.83330   0.00000  Uiso   1.00
C848   C     0.74992   0.64493   0.83337   0.00000  Uiso   1.00
C849   C     0.88206   0.57992   0.77938   0.00000  Uiso   1.00
O850   O     0.88538   0.58612   0.72976   0.00000  Uiso   1.00
O851   O     0.85477   0.61099   0.81073   0.00000  Uiso   1.00
H852   H     0.84006   0.63776   0.78773   0.00000  Uiso   1.00
C853   C     0.61794   0.42007   0.88726   0.00000  Uiso   1.00
O854   O     0.61464   0.41387   0.93689   0.00000  Uiso   1.00
O855   O     0.64522   0.38900   0.85589   0.00000  Uiso   1.00
H856   H     0.65993   0.36222   0.87888   0.00000  Uiso   1.00
C857   C     0.88093   0.41935   0.88572   0.00000  Uiso   1.00
O858   O     0.85553   0.39366   0.85846   0.00000  Uiso   1.00
O859   O     0.88576   0.41053   0.94200   0.00000  Uiso   1.00
H860   H     0.86656   0.38175   0.95536   0.00000  Uiso   1.00
C861   C     0.61907   0.58068   0.78099   0.00000  Uiso   1.00
O862   O     0.64449   0.60634   0.80827   0.00000  Uiso   1.00
O863   O     0.61422   0.58955   0.72473   0.00000  Uiso   1.00
H864   H     0.63341   0.61835   0.71139   0.00000  Uiso   1.00
O865   O     0.25000   0.76178   0.87895   0.00000  Uiso   1.00
O866   O     0.25000   0.90488   0.78772   0.00000  Uiso   1.00
O867   O     0.25000   0.90488   0.87895   0.00000  Uiso   1.00
O868   O     0.25000   0.76178   0.78772   0.00000  Uiso   1.00
H869   H     0.46000   0.72137   0.89929   0.00000  Uiso   1.00
H870   H     0.04000   0.94532   0.76742   0.00000  Uiso   1.00
H871   H     0.46137   0.94501   0.76672   0.00000  Uiso   1.00
H872   H     0.03863   0.72167   0.89997   0.00000  Uiso   1.00
C873   C     0.25015   0.73935   0.83331   0.00000  Uiso   1.00
C874   C     0.24985   0.92731   0.83335   0.00000  Uiso   1.00
O875   O     0.18392   0.83333   0.87896   0.00000  Uiso   1.00
O876   O     0.31607   0.83333   0.78770   0.00000  Uiso   1.00
O877   O     0.31607   0.83333   0.87896   0.00000  Uiso   1.00
O878   O     0.18392   0.83333   0.78770   0.00000  Uiso   1.00
C879   C     0.16339   0.83315   0.83343   0.00000  Uiso   1.00
C880   C     0.33661   0.83351   0.83324   0.00000  Uiso   1.00
Zn881  Zn    0.25000   0.83333   0.89426   0.00000  Uiso   1.00
Zn882  Zn    0.25000   0.83333   0.77241   0.00000  Uiso   1.00
N883   N     0.25000   0.83333   0.69121   0.00000  Uiso   1.00
N884   N     0.25000   0.83333   0.97545   0.00000  Uiso   1.00
C885   C     0.40713   0.87242   0.80656   0.00000  Uiso   1.00
C886   C     0.09287   0.79425   0.86010   0.00000  Uiso   1.00
C887   C     0.40657   0.79380   0.85903   0.00000  Uiso   1.00
C888   C     0.09343   0.87288   0.80765   0.00000  Uiso   1.00
C889   C     0.38430   0.83325   0.83296   0.00000  Uiso   1.00
C890   C     0.11570   0.83342   0.83371   0.00000  Uiso   1.00
C891   C     0.45307   0.79343   0.85849   0.00000  Uiso   1.00
C892   C     0.04693   0.87325   0.80819   0.00000  Uiso   1.00
C893   C     0.45361   0.87297   0.80759   0.00000  Uiso   1.00
C894   C     0.04639   0.79370   0.85908   0.00000  Uiso   1.00
C895   C     0.47662   0.83327   0.83320   0.00000  Uiso   1.00
C896   C     0.02338   0.83340   0.83348   0.00000  Uiso   1.00
C897   C     0.47659   0.75351   0.88158   0.00000  Uiso   1.00
C898   C     0.02341   0.91318   0.78512   0.00000  Uiso   1.00
C899   C     0.47760   0.91301   0.78475   0.00000  Uiso   1.00
C900   C     0.02239   0.75367   0.88194   0.00000  Uiso   1.00
C901   C     0.25009   0.68841   0.83330   0.00000  Uiso   1.00
C902   C     0.24992   0.97826   0.83337   0.00000  Uiso   1.00
C903   C     0.38206   0.91326   0.77938   0.00000  Uiso   1.00
O904   O     0.38538   0.91946   0.72976   0.00000  Uiso   1.00
O905   O     0.35477   0.94432   0.81073   0.00000  Uiso   1.00
H906   H     0.34006   0.97109   0.78773   0.00000  Uiso   1.00
C907   C     0.11794   0.75340   0.88726   0.00000  Uiso   1.00
O908   O     0.11464   0.74720   0.93689   0.00000  Uiso   1.00
O909   O     0.14522   0.72233   0.85589   0.00000  Uiso   1.00
H910   H     0.15993   0.69556   0.87888   0.00000  Uiso   1.00
C911   C     0.38093   0.75268   0.88572   0.00000  Uiso   1.00
O912   O     0.35553   0.72699   0.85846   0.00000  Uiso   1.00
O913   O     0.38576   0.74387   0.94200   0.00000  Uiso   1.00
H914   H     0.36656   0.71508   0.95536   0.00000  Uiso   1.00
C915   C     0.11907   0.91401   0.78099   0.00000  Uiso   1.00
O916   O     0.14449   0.93967   0.80827   0.00000  Uiso   1.00
O917   O     0.11422   0.92288   0.72473   0.00000  Uiso   1.00
H918   H     0.13341   0.95169   0.71139   0.00000  Uiso   1.00
O919   O     0.75000   0.76178   0.87895   0.00000  Uiso   1.00
O920   O     0.75000   0.90488   0.78772   0.00000  Uiso   1.00
O921   O     0.75000   0.90488   0.87895   0.00000  Uiso   1.00
O922   O     0.75000   0.76178   0.78772   0.00000  Uiso   1.00
H923   H     0.96000   0.72137   0.89929   0.00000  Uiso   1.00
H924   H     0.54000   0.94532   0.76742   0.00000  Uiso   1.00
H925   H     0.96137   0.94501   0.76672   0.00000  Uiso   1.00
H926   H     0.53863   0.72167   0.89997   0.00000  Uiso   1.00
C927   C     0.75015   0.73935   0.83331   0.00000  Uiso   1.00
C928   C     0.74985   0.92731   0.83335   0.00000  Uiso   1.00
O929   O     0.68392   0.83333   0.87896   0.00000  Uiso   1.00
O930   O     0.81607   0.83333   0.78770   0.00000  Uiso   1.00
O931   O     0.81607   0.83333   0.87896   0.00000  Uiso   1.00
O932   O     0.68392   0.83333   0.78770   0.00000  Uiso   1.00
C933   C     0.66339   0.83315   0.83343   0.00000  Uiso   1.00
C934   C     0.83661   0.83351   0.83324   0.00000  Uiso   1.00
Zn935  Zn    0.75000   0.83333   0.89426   0.00000  Uiso   1.00
Zn936  Zn    0.75000   0.83333   0.77241   0.00000  Uiso   1.00
N937   N     0.75000   0.83333   0.69121   0.00000  Uiso   1.00
N938   N     0.75000   0.83333   0.97545   0.00000  Uiso   1.00
C939   C     0.90713   0.87242   0.80656   0.00000  Uiso   1.00
C940   C     0.59287   0.79425   0.86010   0.00000  Uiso   1.00
C941   C     0.90657   0.79380   0.85903   0.00000  Uiso   1.00
C942   C     0.59343   0.87288   0.80765   0.00000  Uiso   1.00
C943   C     0.88430   0.83325   0.83296   0.00000  Uiso   1.00
C944   C     0.61570   0.83342   0.83371   0.00000  Uiso   1.00
C945   C     0.95307   0.79343   0.85849   0.00000  Uiso   1.00
C946   C     0.54693   0.87325   0.80819   0.00000  Uiso   1.00
C947   C     0.95361   0.87297   0.80759   0.00000  Uiso   1.00
C948   C     0.54639   0.79370   0.85908   0.00000  Uiso   1.00
C949   C     0.97662   0.83327   0.83320   0.00000  Uiso   1.00
C950   C     0.52338   0.83340   0.83348   0.00000  Uiso   1.00
C951   C     0.97659   0.75351   0.88158   0.00000  Uiso   1.00
C952   C     0.52341   0.91318   0.78512   0.00000  Uiso   1.00
C953   C     0.97760   0.91301   0.78475   0.00000  Uiso   1.00
C954   C     0.52239   0.75367   0.88194   0.00000  Uiso   1.00
C955   C     0.75009   0.68841   0.83330   0.00000  Uiso   1.00
C956   C     0.74992   0.97826   0.83337   0.00000  Uiso   1.00
C957   C     0.88206   0.91326   0.77938   0.00000  Uiso   1.00
O958   O     0.88538   0.91946   0.72976   0.00000  Uiso   1.00
O959   O     0.85477   0.94432   0.81073   0.00000  Uiso   1.00
H960   H     0.84006   0.97109   0.78773   0.00000  Uiso   1.00
C961   C     0.61794   0.75340   0.88726   0.00000  Uiso   1.00
O962   O     0.61464   0.74720   0.93689   0.00000  Uiso   1.00
O963   O     0.64522   0.72233   0.85589   0.00000  Uiso   1.00
H964   H     0.65993   0.69556   0.87888   0.00000  Uiso   1.00
C965   C     0.88093   0.75268   0.88572   0.00000  Uiso   1.00
O966   O     0.85553   0.72699   0.85846   0.00000  Uiso   1.00
O967   O     0.88576   0.74387   0.94200   0.00000  Uiso   1.00
H968   H     0.86656   0.71508   0.95536   0.00000  Uiso   1.00
C969   C     0.61907   0.91401   0.78099   0.00000  Uiso   1.00
O970   O     0.64449   0.93967   0.80827   0.00000  Uiso   1.00
O971   O     0.61422   0.92288   0.72473   0.00000  Uiso   1.00
H972   H     0.63341   0.95169   0.71139   0.00000  Uiso   1.00
loop_
_geom_bond_atom_site_label_1
_geom_bond_atom_site_label_2
_geom_bond_distance
_geom_bond_site_symmetry_2
_ccdc_geom_bond_type
O1     Zn17    1.950   .     S
O1     C9      1.262   .     A
O2     Zn18    1.950   .     S
O2     C10     1.262   .     A
O3     C10     1.262   .     A
O3     Zn17    1.951   .     S
O4     Zn18    1.951   .     S
O4     C9      1.262   .     A
H5     C33     1.081   .     S
H6     C34     1.081   .     S
H7     C35     1.082   .     S
H8     C36     1.082   .     S
C9     C37     1.363   .     S
C10    C38     1.363   .     S
O11    C15     1.270   .     A
O11    Zn17    2.024   .     S
O12    C16     1.271   .     A
O12    Zn18    2.024   .     S
O13    Zn17    2.022   .     S
O13    C16     1.272   .     A
O14    Zn18    2.022   .     S
O14    C15     1.272   .     A
C15    C26     1.435   .     S
C16    C25     1.435   .     S
Zn17   N20     1.976   .     S
Zn18   N19     1.976   .     S
N19    N668    1.195   1_554 S
N20    N343    1.195   .     S
C21    C39     1.488   .     S
C21    C25     1.405   .     A
C21    C29     1.399   .     A
C22    C26     1.405   .     A
C22    C30     1.399   .     A
C22    C43     1.488   .     S
C23    C27     1.400   .     A
C23    C25     1.406   .     A
C23    C47     1.489   .     S
C24    C51     1.489   .     S
C24    C26     1.406   .     A
C24    C28     1.400   .     A
C27    C33     1.403   .     A
C27    C31     1.418   .     A
C28    C34     1.403   .     A
C28    C32     1.418   .     A
C29    C31     1.417   .     A
C29    C35     1.403   .     A
C30    C36     1.403   .     A
C30    C32     1.417   .     A
C31    C86     1.408   .     S
C32    C85     1.408   1_455 S
C33    C90     1.379   .     S
C34    C89     1.379   1_455 S
C35    C88     1.379   .     S
C36    C87     1.379   1_455 S
C37    C254    1.163   1_545 S
C38    C145    1.163   .     S
C39    O40     1.223   .     D
C39    O41     1.396   .     S
O41    H42     1.014   .     S
C43    O44     1.223   .     D
C43    O45     1.396   .     S
O45    H46     1.014   .     S
C47    O49     1.398   .     S
C47    O48     1.222   .     D
O49    H50     1.014   .     S
C51    O52     1.223   .     D
C51    O53     1.398   .     S
O53    H54     1.014   .     S
O55    Zn71    1.950   .     S
O55    C63     1.262   .     A
O56    Zn72    1.950   .     S
O56    C64     1.262   .     A
O57    C64     1.262   .     A
O57    Zn71    1.951   .     S
O58    Zn72    1.951   .     S
O58    C63     1.262   .     A
H59    C87     1.081   .     S
H60    C88     1.081   .     S
H61    C89     1.082   .     S
H62    C90     1.082   .     S
C63    C91     1.363   .     S
C64    C92     1.363   .     S
O65    C69     1.270   .     A
O65    Zn71    2.024   .     S
O66    C70     1.271   .     A
O66    Zn72    2.024   .     S
O67    Zn71    2.022   .     S
O67    C70     1.272   .     A
O68    Zn72    2.022   .     S
O68    C69     1.272   .     A
C69    C80     1.435   .     S
C70    C79     1.435   .     S
Zn71   N74     1.976   .     S
Zn72   N73     1.976   .     S
N73    N722    1.195   1_554 S
N74    N397    1.195   .     S
C75    C93     1.488   .     S
C75    C79     1.405   .     A
C75    C83     1.399   .     A
C76    C80     1.405   .     A
C76    C84     1.399   .     A
C76    C97     1.488   .     S
C77    C81     1.400   .     A
C77    C79     1.406   .     A
C77    C101    1.489   .     S
C78    C105    1.489   .     S
C78    C80     1.406   .     A
C78    C82     1.400   .     A
C81    C87     1.403   .     A
C81    C85     1.418   .     A
C82    C88     1.403   .     A
C82    C86     1.418   .     A
C83    C85     1.417   .     A
C83    C89     1.403   .     A
C84    C90     1.403   .     A
C84    C86     1.417   .     A
C85    C32     1.408   1_655 S
C87    C36     1.379   1_655 S
C89    C34     1.379   1_655 S
C91    C308    1.163   1_545 S
C92    C199    1.163   .     S
C93    O94     1.223   .     D
C93    O95     1.396   .     S
O95    H96     1.014   .     S
C97    O98     1.223   .     D
C97    O99     1.396   .     S
O99    H100    1.014   .     S
C101   O103    1.398   .     S
C101   O102    1.222   .     D
O103   H104    1.014   .     S
C105   O106    1.223   .     D
C105   O107    1.398   .     S
O107   H108    1.014   .     S
O109   Zn125   1.950   .     S
O109   C117    1.262   .     A
O110   Zn126   1.950   .     S
O110   C118    1.262   .     A
O111   C118    1.262   .     A
O111   Zn125   1.951   .     S
O112   Zn126   1.951   .     S
O112   C117    1.262   .     A
H113   C141    1.081   .     S
H114   C142    1.081   .     S
H115   C143    1.082   .     S
H116   C144    1.082   .     S
C117   C145    1.363   .     S
C118   C146    1.363   .     S
O119   C123    1.270   .     A
O119   Zn125   2.024   .     S
O120   C124    1.271   .     A
O120   Zn126   2.024   .     S
O121   Zn125   2.022   .     S
O121   C124    1.272   .     A
O122   Zn126   2.022   .     S
O122   C123    1.272   .     A
C123   C134    1.435   .     S
C124   C133    1.435   .     S
Zn125  N128    1.976   .     S
Zn126  N127    1.976   .     S
N127   N776    1.195   1_554 S
N128   N451    1.195   .     S
C129   C147    1.488   .     S
C129   C133    1.405   .     A
C129   C137    1.399   .     A
C130   C134    1.405   .     A
C130   C138    1.399   .     A
C130   C151    1.488   .     S
C131   C135    1.400   .     A
C131   C133    1.406   .     A
C131   C155    1.489   .     S
C132   C159    1.489   .     S
C132   C134    1.406   .     A
C132   C136    1.400   .     A
C135   C141    1.403   .     A
C135   C139    1.418   .     A
C136   C142    1.403   .     A
C136   C140    1.418   .     A
C137   C139    1.417   .     A
C137   C143    1.403   .     A
C138   C144    1.403   .     A
C138   C140    1.417   .     A
C139   C194    1.408   .     S
C140   C193    1.408   1_455 S
C141   C198    1.379   .     S
C142   C197    1.379   1_455 S
C143   C196    1.379   .     S
C144   C195    1.379   1_455 S
C146   C253    1.163   .     S
C147   O148    1.223   .     D
C147   O149    1.396   .     S
O149   H150    1.014   .     S
C151   O152    1.223   .     D
C151   O153    1.396   .     S
O153   H154    1.014   .     S
C155   O157    1.398   .     S
C155   O156    1.222   .     D
O157   H158    1.014   .     S
C159   O160    1.223   .     D
C159   O161    1.398   .     S
O161   H162    1.014   .     S
O163   Zn179   1.950   .     S
O163   C171    1.262   .     A
O164   Zn180   1.950   .     S
O164   C172    1.262   .     A
O165   C172    1.262   .     A
O165   Zn179   1.951   .     S
O166   Zn180   1.951   .     S
O166   C171    1.262   .     A
H167   C195    1.081   .     S
H168   C196    1.081   .     S
H169   C197    1.082   .     S
H170   C198    1.082   .     S
C171   C199    1.363   .     S
C172   C200    1.363   .     S
O173   C177    1.270   .     A
O173   Zn179   2.024   .     S
O174   C178    1.271   .     A
O174   Zn180   2.024   .     S
O175   Zn179   2.022   .     S
O175   C178    1.272   .     A
O176   Zn180   2.022   .     S
O176   C177    1.272   .     A
C177   C188    1.435   .     S
C178   C187    1.435   .     S
Zn179  N182    1.976   .     S
Zn180  N181    1.976   .     S
N181   N830    1.195   1_554 S
N182   N505    1.195   .     S
C183   C201    1.488   .     S
C183   C187    1.405   .     A
C183   C191    1.399   .     A
C184   C188    1.405   .     A
C184   C192    1.399   .     A
C184   C205    1.488   .     S
C185   C189    1.400   .     A
C185   C187    1.406   .     A
C185   C209    1.489   .     S
C186   C213    1.489   .     S
C186   C188    1.406   .     A
C186   C190    1.400   .     A
C189   C195    1.403   .     A
C189   C193    1.418   .     A
C190   C196    1.403   .     A
C190   C194    1.418   .     A
C191   C193    1.417   .     A
C191   C197    1.403   .     A
C192   C198    1.403   .     A
C192   C194    1.417   .     A
C193   C140    1.408   1_655 S
C195   C144    1.379   1_655 S
C197   C142    1.379   1_655 S
C200   C307    1.163   .     S
C201   O202    1.223   .     D
C201   O203    1.396   .     S
O203   H204    1.014   .     S
C205   O206    1.223   .     D
C205   O207    1.396   .     S
O207   H208    1.014   .     S
C209   O211    1.398   .     S
C209   O210    1.222   .     D
O211   H212    1.014   .     S
C213   O214    1.223   .     D
C213   O215    1.398   .     S
O215   H216    1.014   .     S
O217   Zn233   1.950   .     S
O217   C225    1.262   .     A
O218   Zn234   1.950   .     S
O218   C226    1.262   .     A
O219   C226    1.262   .     A
O219   Zn233   1.951   .     S
O220   Zn234   1.951   .     S
O220   C225    1.262   .     A
H221   C249    1.081   .     S
H222   C250    1.081   .     S
H223   C251    1.082   .     S
H224   C252    1.082   .     S
C225   C253    1.363   .     S
C226   C254    1.363   .     S
O227   C231    1.270   .     A
O227   Zn233   2.024   .     S
O228   C232    1.271   .     A
O228   Zn234   2.024   .     S
O229   Zn233   2.022   .     S
O229   C232    1.272   .     A
O230   Zn234   2.022   .     S
O230   C231    1.272   .     A
C231   C242    1.435   .     S
C232   C241    1.435   .     S
Zn233  N236    1.976   .     S
Zn234  N235    1.976   .     S
N235   N884    1.195   1_554 S
N236   N559    1.195   .     S
C237   C255    1.488   .     S
C237   C241    1.405   .     A
C237   C245    1.399   .     A
C238   C242    1.405   .     A
C238   C246    1.399   .     A
C238   C259    1.488   .     S
C239   C243    1.400   .     A
C239   C241    1.406   .     A
C239   C263    1.489   .     S
C240   C267    1.489   .     S
C240   C242    1.406   .     A
C240   C244    1.400   .     A
C243   C249    1.403   .     A
C243   C247    1.418   .     A
C244   C250    1.403   .     A
C244   C248    1.418   .     A
C245   C247    1.417   .     A
C245   C251    1.403   .     A
C246   C252    1.403   .     A
C246   C248    1.417   .     A
C247   C302    1.408   .     S
C248   C301    1.408   1_455 S
C249   C306    1.379   .     S
C250   C305    1.379   1_455 S
C251   C304    1.379   .     S
C252   C303    1.379   1_455 S
C254   C37     1.163   1_565 S
C255   O256    1.223   .     D
C255   O257    1.396   .     S
O257   H258    1.014   .     S
C259   O260    1.223   .     D
C259   O261    1.396   .     S
O261   H262    1.014   .     S
C263   O265    1.398   .     S
C263   O264    1.222   .     D
O265   H266    1.014   .     S
C267   O268    1.223   .     D
C267   O269    1.398   .     S
O269   H270    1.014   .     S
O271   Zn287   1.950   .     S
O271   C279    1.262   .     A
O272   Zn288   1.950   .     S
O272   C280    1.262   .     A
O273   C280    1.262   .     A
O273   Zn287   1.951   .     S
O274   Zn288   1.951   .     S
O274   C279    1.262   .     A
H275   C303    1.081   .     S
H276   C304    1.081   .     S
H277   C305    1.082   .     S
H278   C306    1.082   .     S
C279   C307    1.363   .     S
C280   C308    1.363   .     S
O281   C285    1.270   .     A
O281   Zn287   2.024   .     S
O282   C286    1.271   .     A
O282   Zn288   2.024   .     S
O283   Zn287   2.022   .     S
O283   C286    1.272   .     A
O284   Zn288   2.022   .     S
O284   C285    1.272   .     A
C285   C296    1.435   .     S
C286   C295    1.435   .     S
Zn287  N290    1.976   .     S
Zn288  N289    1.976   .     S
N289   N938    1.195   1_554 S
N290   N613    1.195   .     S
C291   C309    1.488   .     S
C291   C295    1.405   .     A
C291   C299    1.399   .     A
C292   C296    1.405   .     A
C292   C300    1.399   .     A
C292   C313    1.488   .     S
C293   C297    1.400   .     A
C293   C295    1.406   .     A
C293   C317    1.489   .     S
C294   C321    1.489   .     S
C294   C296    1.406   .     A
C294   C298    1.400   .     A
C297   C303    1.403   .     A
C297   C301    1.418   .     A
C298   C304    1.403   .     A
C298   C302    1.418   .     A
C299   C301    1.417   .     A
C299   C305    1.403   .     A
C300   C306    1.403   .     A
C300   C302    1.417   .     A
C301   C248    1.408   1_655 S
C303   C252    1.379   1_655 S
C305   C250    1.379   1_655 S
C308   C91     1.163   1_565 S
C309   O310    1.223   .     D
C309   O311    1.396   .     S
O311   H312    1.014   .     S
C313   O314    1.223   .     D
C313   O315    1.396   .     S
O315   H316    1.014   .     S
C317   O319    1.398   .     S
C317   O318    1.222   .     D
O319   H320    1.014   .     S
C321   O322    1.223   .     D
C321   O323    1.398   .     S
O323   H324    1.014   .     S
O325   Zn341   1.950   .     S
O325   C333    1.262   .     A
O326   Zn342   1.950   .     S
O326   C334    1.262   .     A
O327   C334    1.262   .     A
O327   Zn341   1.951   .     S
O328   Zn342   1.951   .     S
O328   C333    1.262   .     A
H329   C357    1.081   .     S
H330   C358    1.081   .     S
H331   C359    1.082   .     S
H332   C360    1.082   .     S
C333   C361    1.363   .     S
C334   C362    1.363   .     S
O335   C339    1.270   .     A
O335   Zn341   2.024   .     S
O336   C340    1.271   .     A
O336   Zn342   2.024   .     S
O337   Zn341   2.022   .     S
O337   C340    1.272   .     A
O338   Zn342   2.022   .     S
O338   C339    1.272   .     A
C339   C350    1.435   .     S
C340   C349    1.435   .     S
Zn341  N344    1.976   .     S
Zn342  N343    1.976   .     S
N344   N667    1.195   .     S
C345   C363    1.488   .     S
C345   C349    1.405   .     A
C345   C353    1.399   .     A
C346   C350    1.405   .     A
C346   C354    1.399   .     A
C346   C367    1.488   .     S
C347   C351    1.400   .     A
C347   C349    1.406   .     A
C347   C371    1.489   .     S
C348   C375    1.489   .     S
C348   C350    1.406   .     A
C348   C352    1.400   .     A
C351   C357    1.403   .     A
C351   C355    1.418   .     A
C352   C358    1.403   .     A
C352   C356    1.418   .     A
C353   C355    1.417   .     A
C353   C359    1.403   .     A
C354   C360    1.403   .     A
C354   C356    1.417   .     A
C355   C410    1.408   .     S
C356   C409    1.408   1_455 S
C357   C414    1.379   .     S
C358   C413    1.379   1_455 S
C359   C412    1.379   .     S
C360   C411    1.379   1_455 S
C361   C578    1.163   1_545 S
C362   C469    1.163   .     S
C363   O364    1.223   .     D
C363   O365    1.396   .     S
O365   H366    1.014   .     S
C367   O368    1.223   .     D
C367   O369    1.396   .     S
O369   H370    1.014   .     S
C371   O373    1.398   .     S
C371   O372    1.222   .     D
O373   H374    1.014   .     S
C375   O376    1.223   .     D
C375   O377    1.398   .     S
O377   H378    1.014   .     S
O379   Zn395   1.950   .     S
O379   C387    1.262   .     A
O380   Zn396   1.950   .     S
O380   C388    1.262   .     A
O381   C388    1.262   .     A
O381   Zn395   1.951   .     S
O382   Zn396   1.951   .     S
O382   C387    1.262   .     A
H383   C411    1.081   .     S
H384   C412    1.081   .     S
H385   C413    1.082   .     S
H386   C414    1.082   .     S
C387   C415    1.363   .     S
C388   C416    1.363   .     S
O389   C393    1.270   .     A
O389   Zn395   2.024   .     S
O390   C394    1.271   .     A
O390   Zn396   2.024   .     S
O391   Zn395   2.022   .     S
O391   C394    1.272   .     A
O392   Zn396   2.022   .     S
O392   C393    1.272   .     A
C393   C404    1.435   .     S
C394   C403    1.435   .     S
Zn395  N398    1.976   .     S
Zn396  N397    1.976   .     S
N398   N721    1.195   .     S
C399   C417    1.488   .     S
C399   C403    1.405   .     A
C399   C407    1.399   .     A
C400   C404    1.405   .     A
C400   C408    1.399   .     A
C400   C421    1.488   .     S
C401   C405    1.400   .     A
C401   C403    1.406   .     A
C401   C425    1.489   .     S
C402   C429    1.489   .     S
C402   C404    1.406   .     A
C402   C406    1.400   .     A
C405   C411    1.403   .     A
C405   C409    1.418   .     A
C406   C412    1.403   .     A
C406   C410    1.418   .     A
C407   C409    1.417   .     A
C407   C413    1.403   .     A
C408   C414    1.403   .     A
C408   C410    1.417   .     A
C409   C356    1.408   1_655 S
C411   C360    1.379   1_655 S
C413   C358    1.379   1_655 S
C415   C632    1.163   1_545 S
C416   C523    1.163   .     S
C417   O418    1.223   .     D
C417   O419    1.396   .     S
O419   H420    1.014   .     S
C421   O422    1.223   .     D
C421   O423    1.396   .     S
O423   H424    1.014   .     S
C425   O427    1.398   .     S
C425   O426    1.222   .     D
O427   H428    1.014   .     S
C429   O430    1.223   .     D
C429   O431    1.398   .     S
O431   H432    1.014   .     S
O433   Zn449   1.950   .     S
O433   C441    1.262   .     A
O434   Zn450   1.950   .     S
O434   C442    1.262   .     A
O435   C442    1.262   .     A
O435   Zn449   1.951   .     S
O436   Zn450   1.951   .     S
O436   C441    1.262   .     A
H437   C465    1.081   .     S
H438   C466    1.081   .     S
H439   C467    1.082   .     S
H440   C468    1.082   .     S
C441   C469    1.363   .     S
C442   C470    1.363   .     S
O443   C447    1.270   .     A
O443   Zn449   2.024   .     S
O444   C448    1.271   .     A
O444   Zn450   2.024   .     S
O445   Zn449   2.022   .     S
O445   C448    1.272   .     A
O446   Zn450   2.022   .     S
O446   C447    1.272   .     A
C447   C458    1.435   .     S
C448   C457    1.435   .     S
Zn449  N452    1.976   .     S
Zn450  N451    1.976   .     S
N452   N775    1.195   .     S
C453   C471    1.488   .     S
C453   C457    1.405   .     A
C453   C461    1.399   .     A
C454   C458    1.405   .     A
C454   C462    1.399   .     A
C454   C475    1.488   .     S
C455   C459    1.400   .     A
C455   C457    1.406   .     A
C455   C479    1.489   .     S
C456   C483    1.489   .     S
C456   C458    1.406   .     A
C456   C460    1.400   .     A
C459   C465    1.403   .     A
C459   C463    1.418   .     A
C460   C466    1.403   .     A
C460   C464    1.418   .     A
C461   C463    1.417   .     A
C461   C467    1.403   .     A
C462   C468    1.403   .     A
C462   C464    1.417   .     A
C463   C518    1.408   .     S
C464   C517    1.408   1_455 S
C465   C522    1.379   .     S
C466   C521    1.379   1_455 S
C467   C520    1.379   .     S
C468   C519    1.379   1_455 S
C470   C577    1.163   .     S
C471   O472    1.223   .     D
C471   O473    1.396   .     S
O473   H474    1.014   .     S
C475   O476    1.223   .     D
C475   O477    1.396   .     S
O477   H478    1.014   .     S
C479   O481    1.398   .     S
C479   O480    1.222   .     D
O481   H482    1.014   .     S
C483   O484    1.223   .     D
C483   O485    1.398   .     S
O485   H486    1.014   .     S
O487   Zn503   1.950   .     S
O487   C495    1.262   .     A
O488   Zn504   1.950   .     S
O488   C496    1.262   .     A
O489   C496    1.262   .     A
O489   Zn503   1.951   .     S
O490   Zn504   1.951   .     S
O490   C495    1.262   .     A
H491   C519    1.081   .     S
H492   C520    1.081   .     S
H493   C521    1.082   .     S
H494   C522    1.082   .     S
C495   C523    1.363   .     S
C496   C524    1.363   .     S
O497   C501    1.270   .     A
O497   Zn503   2.024   .     S
O498   C502    1.271   .     A
O498   Zn504   2.024   .     S
O499   Zn503   2.022   .     S
O499   C502    1.272   .     A
O500   Zn504   2.022   .     S
O500   C501    1.272   .     A
C501   C512    1.435   .     S
C502   C511    1.435   .     S
Zn503  N506    1.976   .     S
Zn504  N505    1.976   .     S
N506   N829    1.195   .     S
C507   C525    1.488   .     S
C507   C511    1.405   .     A
C507   C515    1.399   .     A
C508   C512    1.405   .     A
C508   C516    1.399   .     A
C508   C529    1.488   .     S
C509   C513    1.400   .     A
C509   C511    1.406   .     A
C509   C533    1.489   .     S
C510   C537    1.489   .     S
C510   C512    1.406   .     A
C510   C514    1.400   .     A
C513   C519    1.403   .     A
C513   C517    1.418   .     A
C514   C520    1.403   .     A
C514   C518    1.418   .     A
C515   C517    1.417   .     A
C515   C521    1.403   .     A
C516   C522    1.403   .     A
C516   C518    1.417   .     A
C517   C464    1.408   1_655 S
C519   C468    1.379   1_655 S
C521   C466    1.379   1_655 S
C524   C631    1.163   .     S
C525   O526    1.223   .     D
C525   O527    1.396   .     S
O527   H528    1.014   .     S
C529   O530    1.223   .     D
C529   O531    1.396   .     S
O531   H532    1.014   .     S
C533   O535    1.398   .     S
C533   O534    1.222   .     D
O535   H536    1.014   .     S
C537   O538    1.223   .     D
C537   O539    1.398   .     S
O539   H540    1.014   .     S
O541   Zn557   1.950   .     S
O541   C549    1.262   .     A
O542   Zn558   1.950   .     S
O542   C550    1.262   .     A
O543   C550    1.262   .     A
O543   Zn557   1.951   .     S
O544   Zn558   1.951   .     S
O544   C549    1.262   .     A
H545   C573    1.081   .     S
H546   C574    1.081   .     S
H547   C575    1.082   .     S
H548   C576    1.082   .     S
C549   C577    1.363   .     S
C550   C578    1.363   .     S
O551   C555    1.270   .     A
O551   Zn557   2.024   .     S
O552   C556    1.271   .     A
O552   Zn558   2.024   .     S
O553   Zn557   2.022   .     S
O553   C556    1.272   .     A
O554   Zn558   2.022   .     S
O554   C555    1.272   .     A
C555   C566    1.435   .     S
C556   C565    1.435   .     S
Zn557  N560    1.976   .     S
Zn558  N559    1.976   .     S
N560   N883    1.195   .     S
C561   C579    1.488   .     S
C561   C565    1.405   .     A
C561   C569    1.399   .     A
C562   C566    1.405   .     A
C562   C570    1.399   .     A
C562   C583    1.488   .     S
C563   C567    1.400   .     A
C563   C565    1.406   .     A
C563   C587    1.489   .     S
C564   C591    1.489   .     S
C564   C566    1.406   .     A
C564   C568    1.400   .     A
C567   C573    1.403   .     A
C567   C571    1.418   .     A
C568   C574    1.403   .     A
C568   C572    1.418   .     A
C569   C571    1.417   .     A
C569   C575    1.403   .     A
C570   C576    1.403   .     A
C570   C572    1.417   .     A
C571   C626    1.408   .     S
C572   C625    1.408   1_455 S
C573   C630    1.379   .     S
C574   C629    1.379   1_455 S
C575   C628    1.379   .     S
C576   C627    1.379   1_455 S
C578   C361    1.163   1_565 S
C579   O580    1.223   .     D
C579   O581    1.396   .     S
O581   H582    1.014   .     S
C583   O584    1.223   .     D
C583   O585    1.396   .     S
O585   H586    1.014   .     S
C587   O589    1.398   .     S
C587   O588    1.222   .     D
O589   H590    1.014   .     S
C591   O592    1.223   .     D
C591   O593    1.398   .     S
O593   H594    1.014   .     S
O595   Zn611   1.950   .     S
O595   C603    1.262   .     A
O596   Zn612   1.950   .     S
O596   C604    1.262   .     A
O597   C604    1.262   .     A
O597   Zn611   1.951   .     S
O598   Zn612   1.951   .     S
O598   C603    1.262   .     A
H599   C627    1.081   .     S
H600   C628    1.081   .     S
H601   C629    1.082   .     S
H602   C630    1.082   .     S
C603   C631    1.363   .     S
C604   C632    1.363   .     S
O605   C609    1.270   .     A
O605   Zn611   2.024   .     S
O606   C610    1.271   .     A
O606   Zn612   2.024   .     S
O607   Zn611   2.022   .     S
O607   C610    1.272   .     A
O608   Zn612   2.022   .     S
O608   C609    1.272   .     A
C609   C620    1.435   .     S
C610   C619    1.435   .     S
Zn611  N614    1.976   .     S
Zn612  N613    1.976   .     S
N614   N937    1.195   .     S
C615   C633    1.488   .     S
C615   C619    1.405   .     A
C615   C623    1.399   .     A
C616   C620    1.405   .     A
C616   C624    1.399   .     A
C616   C637    1.488   .     S
C617   C621    1.400   .     A
C617   C619    1.406   .     A
C617   C641    1.489   .     S
C618   C645    1.489   .     S
C618   C620    1.406   .     A
C618   C622    1.400   .     A
C621   C627    1.403   .     A
C621   C625    1.418   .     A
C622   C628    1.403   .     A
C622   C626    1.418   .     A
C623   C625    1.417   .     A
C623   C629    1.403   .     A
C624   C630    1.403   .     A
C624   C626    1.417   .     A
C625   C572    1.408   1_655 S
C627   C576    1.379   1_655 S
C629   C574    1.379   1_655 S
C632   C415    1.163   1_565 S
C633   O634    1.223   .     D
C633   O635    1.396   .     S
O635   H636    1.014   .     S
C637   O638    1.223   .     D
C637   O639    1.396   .     S
O639   H640    1.014   .     S
C641   O643    1.398   .     S
C641   O642    1.222   .     D
O643   H644    1.014   .     S
C645   O646    1.223   .     D
C645   O647    1.398   .     S
O647   H648    1.014   .     S
O649   Zn665   1.950   .     S
O649   C657    1.262   .     A
O650   Zn666   1.950   .     S
O650   C658    1.262   .     A
O651   C658    1.262   .     A
O651   Zn665   1.951   .     S
O652   Zn666   1.951   .     S
O652   C657    1.262   .     A
H653   C681    1.081   .     S
H654   C682    1.081   .     S
H655   C683    1.082   .     S
H656   C684    1.082   .     S
C657   C685    1.363   .     S
C658   C686    1.363   .     S
O659   C663    1.270   .     A
O659   Zn665   2.024   .     S
O660   C664    1.271   .     A
O660   Zn666   2.024   .     S
O661   Zn665   2.022   .     S
O661   C664    1.272   .     A
O662   Zn666   2.022   .     S
O662   C663    1.272   .     A
C663   C674    1.435   .     S
C664   C673    1.435   .     S
Zn665  N668    1.976   .     S
Zn666  N667    1.976   .     S
N668   N19     1.195   1_556 S
C669   C687    1.488   .     S
C669   C673    1.405   .     A
C669   C677    1.399   .     A
C670   C674    1.405   .     A
C670   C678    1.399   .     A
C670   C691    1.488   .     S
C671   C675    1.400   .     A
C671   C673    1.406   .     A
C671   C695    1.489   .     S
C672   C699    1.489   .     S
C672   C674    1.406   .     A
C672   C676    1.400   .     A
C675   C681    1.403   .     A
C675   C679    1.418   .     A
C676   C682    1.403   .     A
C676   C680    1.418   .     A
C677   C679    1.417   .     A
C677   C683    1.403   .     A
C678   C684    1.403   .     A
C678   C680    1.417   .     A
C679   C734    1.408   .     S
C680   C733    1.408   1_455 S
C681   C738    1.379   .     S
C682   C737    1.379   1_455 S
C683   C736    1.379   .     S
C684   C735    1.379   1_455 S
C685   C902    1.163   1_545 S
C686   C793    1.163   .     S
C687   O688    1.223   .     D
C687   O689    1.396   .     S
O689   H690    1.014   .     S
C691   O692    1.223   .     D
C691   O693    1.396   .     S
O693   H694    1.014   .     S
C695   O697    1.398   .     S
C695   O696    1.222   .     D
O697   H698    1.014   .     S
C699   O700    1.223   .     D
C699   O701    1.398   .     S
O701   H702    1.014   .     S
O703   Zn719   1.950   .     S
O703   C711    1.262   .     A
O704   Zn720   1.950   .     S
O704   C712    1.262   .     A
O705   C712    1.262   .     A
O705   Zn719   1.951   .     S
O706   Zn720   1.951   .     S
O706   C711    1.262   .     A
H707   C735    1.081   .     S
H708   C736    1.081   .     S
H709   C737    1.082   .     S
H710   C738    1.082   .     S
C711   C739    1.363   .     S
C712   C740    1.363   .     S
O713   C717    1.270   .     A
O713   Zn719   2.024   .     S
O714   C718    1.271   .     A
O714   Zn720   2.024   .     S
O715   Zn719   2.022   .     S
O715   C718    1.272   .     A
O716   Zn720   2.022   .     S
O716   C717    1.272   .     A
C717   C728    1.435   .     S
C718   C727    1.435   .     S
Zn719  N722    1.976   .     S
Zn720  N721    1.976   .     S
N722   N73     1.195   1_556 S
C723   C741    1.488   .     S
C723   C727    1.405   .     A
C723   C731    1.399   .     A
C724   C728    1.405   .     A
C724   C732    1.399   .     A
C724   C745    1.488   .     S
C725   C729    1.400   .     A
C725   C727    1.406   .     A
C725   C749    1.489   .     S
C726   C753    1.489   .     S
C726   C728    1.406   .     A
C726   C730    1.400   .     A
C729   C735    1.403   .     A
C729   C733    1.418   .     A
C730   C736    1.403   .     A
C730   C734    1.418   .     A
C731   C733    1.417   .     A
C731   C737    1.403   .     A
C732   C738    1.403   .     A
C732   C734    1.417   .     A
C733   C680    1.408   1_655 S
C735   C684    1.379   1_655 S
C737   C682    1.379   1_655 S
C739   C956    1.163   1_545 S
C740   C847    1.163   .     S
C741   O742    1.223   .     D
C741   O743    1.396   .     S
O743   H744    1.014   .     S
C745   O746    1.223   .     D
C745   O747    1.396   .     S
O747   H748    1.014   .     S
C749   O751    1.398   .     S
C749   O750    1.222   .     D
O751   H752    1.014   .     S
C753   O754    1.223   .     D
C753   O755    1.398   .     S
O755   H756    1.014   .     S
O757   Zn773   1.950   .     S
O757   C765    1.262   .     A
O758   Zn774   1.950   .     S
O758   C766    1.262   .     A
O759   C766    1.262   .     A
O759   Zn773   1.951   .     S
O760   Zn774   1.951   .     S
O760   C765    1.262   .     A
H761   C789    1.081   .     S
H762   C790    1.081   .     S
H763   C791    1.082   .     S
H764   C792    1.082   .     S
C765   C793    1.363   .     S
C766   C794    1.363   .     S
O767   C771    1.270   .     A
O767   Zn773   2.024   .     S
O768   C772    1.271   .     A
O768   Zn774   2.024   .     S
O769   Zn773   2.022   .     S
O769   C772    1.272   .     A
O770   Zn774   2.022   .     S
O770   C771    1.272   .     A
C771   C782    1.435   .     S
C772   C781    1.435   .     S
Zn773  N776    1.976   .     S
Zn774  N775    1.976   .     S
N776   N127    1.195   1_556 S
C777   C795    1.488   .     S
C777   C781    1.405   .     A
C777   C785    1.399   .     A
C778   C782    1.405   .     A
C778   C786    1.399   .     A
C778   C799    1.488   .     S
C779   C783    1.400   .     A
C779   C781    1.406   .     A
C779   C803    1.489   .     S
C780   C807    1.489   .     S
C780   C782    1.406   .     A
C780   C784    1.400   .     A
C783   C789    1.403   .     A
C783   C787    1.418   .     A
C784   C790    1.403   .     A
C784   C788    1.418   .     A
C785   C787    1.417   .     A
C785   C791    1.403   .     A
C786   C792    1.403   .     A
C786   C788    1.417   .     A
C787   C842    1.408   .     S
C788   C841    1.408   1_455 S
C789   C846    1.379   .     S
C790   C845    1.379   1_455 S
C791   C844    1.379   .     S
C792   C843    1.379   1_455 S
C794   C901    1.163   .     S
C795   O796    1.223   .     D
C795   O797    1.396   .     S
O797   H798    1.014   .     S
C799   O800    1.223   .     D
C799   O801    1.396   .     S
O801   H802    1.014   .     S
C803   O805    1.398   .     S
C803   O804    1.222   .     D
O805   H806    1.014   .     S
C807   O808    1.223   .     D
C807   O809    1.398   .     S
O809   H810    1.014   .     S
O811   Zn827   1.950   .     S
O811   C819    1.262   .     A
O812   Zn828   1.950   .     S
O812   C820    1.262   .     A
O813   C820    1.262   .     A
O813   Zn827   1.951   .     S
O814   Zn828   1.951   .     S
O814   C819    1.262   .     A
H815   C843    1.081   .     S
H816   C844    1.081   .     S
H817   C845    1.082   .     S
H818   C846    1.082   .     S
C819   C847    1.363   .     S
C820   C848    1.363   .     S
O821   C825    1.270   .     A
O821   Zn827   2.024   .     S
O822   C826    1.271   .     A
O822   Zn828   2.024   .     S
O823   Zn827   2.022   .     S
O823   C826    1.272   .     A
O824   Zn828   2.022   .     S
O824   C825    1.272   .     A
C825   C836    1.435   .     S
C826   C835    1.435   .     S
Zn827  N830    1.976   .     S
Zn828  N829    1.976   .     S
N830   N181    1.195   1_556 S
C831   C849    1.488   .     S
C831   C835    1.405   .     A
C831   C839    1.399   .     A
C832   C836    1.405   .     A
C832   C840    1.399   .     A
C832   C853    1.488   .     S
C833   C837    1.400   .     A
C833   C835    1.406   .     A
C833   C857    1.489   .     S
C834   C861    1.489   .     S
C834   C836    1.406   .     A
C834   C838    1.400   .     A
C837   C843    1.403   .     A
C837   C841    1.418   .     A
C838   C844    1.403   .     A
C838   C842    1.418   .     A
C839   C841    1.417   .     A
C839   C845    1.403   .     A
C840   C846    1.403   .     A
C840   C842    1.417   .     A
C841   C788    1.408   1_655 S
C843   C792    1.379   1_655 S
C845   C790    1.379   1_655 S
C848   C955    1.163   .     S
C849   O850    1.223   .     D
C849   O851    1.396   .     S
O851   H852    1.014   .     S
C853   O854    1.223   .     D
C853   O855    1.396   .     S
O855   H856    1.014   .     S
C857   O859    1.398   .     S
C857   O858    1.222   .     D
O859   H860    1.014   .     S
C861   O862    1.223   .     D
C861   O863    1.398   .     S
O863   H864    1.014   .     S
O865   Zn881   1.950   .     S
O865   C873    1.262   .     A
O866   Zn882   1.950   .     S
O866   C874    1.262   .     A
O867   C874    1.262   .     A
O867   Zn881   1.951   .     S
O868   Zn882   1.951   .     S
O868   C873    1.262   .     A
H869   C897    1.081   .     S
H870   C898    1.081   .     S
H871   C899    1.082   .     S
H872   C900    1.082   .     S
C873   C901    1.363   .     S
C874   C902    1.363   .     S
O875   C879    1.270   .     A
O875   Zn881   2.024   .     S
O876   C880    1.271   .     A
O876   Zn882   2.024   .     S
O877   Zn881   2.022   .     S
O877   C880    1.272   .     A
O878   Zn882   2.022   .     S
O878   C879    1.272   .     A
C879   C890    1.435   .     S
C880   C889    1.435   .     S
Zn881  N884    1.976   .     S
Zn882  N883    1.976   .     S
N884   N235    1.195   1_556 S
C885   C903    1.488   .     S
C885   C889    1.405   .     A
C885   C893    1.399   .     A
C886   C890    1.405   .     A
C886   C894    1.399   .     A
C886   C907    1.488   .     S
C887   C891    1.400   .     A
C887   C889    1.406   .     A
C887   C911    1.489   .     S
C888   C915    1.489   .     S
C888   C890    1.406   .     A
C888   C892    1.400   .     A
C891   C897    1.403   .     A
C891   C895    1.418   .     A
C892   C898    1.403   .     A
C892   C896    1.418   .     A
C893   C895    1.417   .     A
C893   C899    1.403   .     A
C894   C900    1.403   .     A
C894   C896    1.417   .     A
C895   C950    1.408   .     S
C896   C949    1.408   1_455 S
C897   C954    1.379   .     S
C898   C953    1.379   1_455 S
C899   C952    1.379   .     S
C900   C951    1.379   1_455 S
C902   C685    1.163   1_565 S
C903   O904    1.223   .     D
C903   O905    1.396   .     S
O905   H906    1.014   .     S
C907   O908    1.223   .     D
C907   O909    1.396   .     S
O909   H910    1.014   .     S
C911   O913    1.398   .     S
C911   O912    1.222   .     D
O913   H914    1.014   .     S
C915   O916    1.223   .     D
C915   O917    1.398   .     S
O917   H918    1.014   .     S
O919   Zn935   1.950   .     S
O919   C927    1.262   .     A
O920   Zn936   1.950   .     S
O920   C928    1.262   .     A
O921   C928    1.262   .     A
O921   Zn935   1.951   .     S
O922   Zn936   1.951   .     S
O922   C927    1.262   .     A
H923   C951    1.081   .     S
H924   C952    1.081   .     S
H925   C953    1.082   .     S
H926   C954    1.082   .     S
C927   C955    1.363   .     S
C928   C956    1.363   .     S
O929   C933    1.270   .     A
O929   Zn935   2.024   .     S
O930   C934    1.271   .     A
O930   Zn936   2.024   .     S
O931   Zn935   2.022   .     S
O931   C934    1.272   .     A
O932   Zn936   2.022   .     S
O932   C933    1.272   .     A
C933   C944    1.435   .     S
C934   C943    1.435   .     S
Zn935  N938    1.976   .     S
Zn936  N937    1.976   .     S
N938   N289    1.195   1_556 S
C939   C957    1.488   .     S
C939   C943    1.405   .     A
C939   C947    1.399   .     A
C940   C944    1.405   .     A
C940   C948    1.399   .     A
C940   C961    1.488   .     S
C941   C945    1.400   .     A
C941   C943    1.406   .     A
C941   C965    1.489   .     S
C942   C969    1.489   .     S
C942   C944    1.406   .     A
C942   C946    1.400   .     A
C945   C951    1.403   .     A
C945   C949    1.418   .     A
C946   C952    1.403   .     A
C946   C950    1.418   .     A
C947   C949    1.417   .     A
C947   C953    1.403   .     A
C948   C954    1.403   .     A
C948   C950    1.417   .     A
C949   C896    1.408   1_655 S
C951   C900    1.379   1_655 S
C953   C898    1.379   1_655 S
C956   C739    1.163   1_565 S
C957   O958    1.223   .     D
C957   O959    1.396   .     S
O959   H960    1.014   .     S
C961   O962    1.223   .     D
C961   O963    1.396   .     S
O963   H964    1.014   .     S
C965   O967    1.398   .     S
C965   O966    1.222   .     D
O967   H968    1.014   .     S
C969   O970    1.223   .     D
C969   O971    1.398   .     S
O971   H972    1.014   .     S
