data_str_m1_o1_o17_pcu_sym.122
_audit_creation_date              2020-01-03
_audit_creation_method            'Materials Studio'
_symmetry_space_group_name_H-M    'P1'
_symmetry_Int_Tables_number       1
_symmetry_cell_setting            triclinic
loop_
_symmetry_equiv_pos_as_xyz
  x,y,z
_cell_length_a                    36.6206
_cell_length_b                    36.6197
_cell_length_c                    34.4025
_cell_angle_alpha                 89.9960
_cell_angle_beta                  89.9986
_cell_angle_gamma                 90.0109
loop_
_atom_site_label
_atom_site_type_symbol
_atom_site_fract_x
_atom_site_fract_y
_atom_site_fract_z
_atom_site_U_iso_or_equiv
_atom_site_adp_type
_atom_site_occupancy
C1     C     0.46891   0.23861   0.41865   0.00000  Uiso   1.00
C2     C     0.28154   0.01016   0.08147   0.00000  Uiso   1.00
C3     C     0.26120   0.03162   0.54075   0.00000  Uiso   1.00
C4     C     0.46863   0.23823   0.45926   0.00000  Uiso   1.00
C5     C     0.03148   0.26179   0.54090   0.00000  Uiso   1.00
C6     C     0.26018   0.03183   0.45912   0.00000  Uiso   1.00
C7     C     0.24054   0.46778   0.54080   0.00000  Uiso   1.00
C8     C     0.28214   0.00959   0.95923   0.00000  Uiso   1.00
C9     C     0.21815   0.48961   0.04090   0.00000  Uiso   1.00
C10    C     0.48949   0.21815   0.95913   0.00000  Uiso   1.00
C11    C     0.01155   0.28156   0.04075   0.00000  Uiso   1.00
C12    C     0.21837   0.48867   0.95925   0.00000  Uiso   1.00
C13    C     0.01027   0.28145   0.91851   0.00000  Uiso   1.00
C14    C     0.28188   0.01043   0.04087   0.00000  Uiso   1.00
C15    C     0.01056   0.28180   0.95910   0.00000  Uiso   1.00
C16    C     0.49033   0.21789   0.04077   0.00000  Uiso   1.00
C17    C     0.09808   0.34828   0.25002   0.00000  Uiso   1.00
C18    C     0.40191   0.15206   0.75003   0.00000  Uiso   1.00
C19    C     0.15191   0.09809   0.25000   0.00000  Uiso   1.00
C20    C     0.34805   0.40195   0.75000   0.00000  Uiso   1.00
C21    C     0.40170   0.15194   0.24992   0.00000  Uiso   1.00
C22    C     0.09792   0.34811   0.74997   0.00000  Uiso   1.00
C23    C     0.34818   0.40182   0.25000   0.00000  Uiso   1.00
C24    C     0.49035   0.21835   0.08137   0.00000  Uiso   1.00
C25    C     0.15199   0.09801   0.75000   0.00000  Uiso   1.00
C26    C     0.09818   0.15182   0.75000   0.00000  Uiso   1.00
C27    C     0.40199   0.34801   0.25000   0.00000  Uiso   1.00
C28    C     0.15171   0.40194   0.74992   0.00000  Uiso   1.00
C29    C     0.34792   0.09811   0.24997   0.00000  Uiso   1.00
C30    C     0.40191   0.34809   0.75000   0.00000  Uiso   1.00
C31    C     0.09805   0.15195   0.25000   0.00000  Uiso   1.00
C32    C     0.34809   0.09827   0.75006   0.00000  Uiso   1.00
C33    C     0.15189   0.40209   0.25000   0.00000  Uiso   1.00
C34    C     0.00008   0.24999   0.47967   0.00000  Uiso   1.00
C35    C     0.28168   0.00956   0.91862   0.00000  Uiso   1.00
C36    C    -0.00000   0.25026   0.52046   0.00000  Uiso   1.00
C37    C     0.25005   0.49988   0.47957   0.00000  Uiso   1.00
C38    C     0.25046   0.49980   0.52035   0.00000  Uiso   1.00
C39    C     0.25017   0.49944   0.97966   0.00000  Uiso   1.00
C40    C     0.25009   0.49976   0.02044   0.00000  Uiso   1.00
C41    C     0.00030   0.24990   0.97955   0.00000  Uiso   1.00
C42    C     0.00063   0.24981   0.02034   0.00000  Uiso   1.00
C43    C     0.11889   0.25486   0.45734   0.00000  Uiso   1.00
C44    C     0.15560   0.26939   0.44359   0.00000  Uiso   1.00
C45    C     0.38257   0.24797   0.54431   0.00000  Uiso   1.00
C46    C     0.21851   0.48986   0.08149   0.00000  Uiso   1.00
C47    C     0.34936   0.23718   0.56822   0.00000  Uiso   1.00
C48    C     0.18163   0.40645   0.44913   0.00000  Uiso   1.00
C49    C     0.15787   0.38592   0.47822   0.00000  Uiso   1.00
C50    C     0.32241   0.09357   0.54207   0.00000  Uiso   1.00
C51    C     0.33581   0.13115   0.55433   0.00000  Uiso   1.00
C52    C     0.40770   0.17565   0.45835   0.00000  Uiso   1.00
C53    C     0.37125   0.16173   0.44321   0.00000  Uiso   1.00
C54    C     0.09287   0.32323   0.54418   0.00000  Uiso   1.00
C55    C     0.12605   0.33544   0.56742   0.00000  Uiso   1.00
C56    C     0.25057   0.11788   0.45587   0.00000  Uiso   1.00
C57    C     0.48975   0.21849   0.91853   0.00000  Uiso   1.00
C58    C     0.26146   0.15145   0.43257   0.00000  Uiso   1.00
C59    C     0.25226   0.38157   0.54277   0.00000  Uiso   1.00
C60    C     0.24077   0.34457   0.55870   0.00000  Uiso   1.00
C61    C     0.36829   0.49851   0.95695   0.00000  Uiso   1.00
C62    C     0.40553   0.01038   0.94202   0.00000  Uiso   1.00
C63    C     0.13228   0.49976   0.04416   0.00000  Uiso   1.00
C64    C     0.09862   0.48918   0.06747   0.00000  Uiso   1.00
C65    C     0.42990   0.15479   0.95648   0.00000  Uiso   1.00
C66    C     0.41852   0.12145   0.93305   0.00000  Uiso   1.00
C67    C     0.07290   0.34366   0.04177   0.00000  Uiso   1.00
C68    C     0.01102   0.28131   0.08136   0.00000  Uiso   1.00
C69    C     0.08613   0.38063   0.05615   0.00000  Uiso   1.00
C70    C     0.15578   0.42775   0.95813   0.00000  Uiso   1.00
C71    C     0.11804   0.41479   0.94592   0.00000  Uiso   1.00
C72    C     0.34548   0.06980   0.04347   0.00000  Uiso   1.00
C73    C     0.37897   0.08107   0.06671   0.00000  Uiso   1.00
C74    C     0.00069   0.36770   0.95593   0.00000  Uiso   1.00
C75    C     0.01127   0.40123   0.93240   0.00000  Uiso   1.00
C76    C     0.00120   0.13176   0.04314   0.00000  Uiso   1.00
C77    C     0.48923   0.09445   0.05777   0.00000  Uiso   1.00
C78    C     0.16993   0.38809   0.16134   0.00000  Uiso   1.00
C79    C     0.00005   0.24991   0.39840   0.00000  Uiso   1.00
C80    C     0.38384   0.06458   0.83007   0.00000  Uiso   1.00
C81    C     0.14337   0.21597   0.21994   0.00000  Uiso   1.00
C82    C     0.35242   0.28414   0.77746   0.00000  Uiso   1.00
C83    C     0.32838   0.11245   0.16232   0.00000  Uiso   1.00
C84    C     0.11571   0.43598   0.82924   0.00000  Uiso   1.00
C85    C     0.38574   0.32682   0.16326   0.00000  Uiso   1.00
C86    C     0.06451   0.11564   0.82967   0.00000  Uiso   1.00
C87    C     0.17317   0.11425   0.83675   0.00000  Uiso   1.00
C88    C     0.38434   0.43548   0.17032   0.00000  Uiso   1.00
C89    C     0.11351   0.32818   0.83774   0.00000  Uiso   1.00
C90    C     0.00001   0.25015   0.60170   0.00000  Uiso   1.00
C91    C     0.43642   0.11505   0.17102   0.00000  Uiso   1.00
C92    C     0.28409   0.35670   0.78026   0.00000  Uiso   1.00
C93    C     0.21590   0.14762   0.22273   0.00000  Uiso   1.00
C94    C     0.38663   0.17258   0.83727   0.00000  Uiso   1.00
C95    C     0.06229   0.38616   0.17266   0.00000  Uiso   1.00
C96    C     0.42110   0.13716   0.66191   0.00000  Uiso   1.00
C97    C     0.13492   0.31343   0.32864   0.00000  Uiso   1.00
C98    C     0.39330   0.46594   0.71977   0.00000  Uiso   1.00
C99    C     0.10238   0.03410   0.27726   0.00000  Uiso   1.00
C100   C     0.07641   0.36424   0.66326   0.00000  Uiso   1.00
C101   C     0.25001   0.49992   0.39833   0.00000  Uiso   1.00
C102   C     0.36363   0.18788   0.32710   0.00000  Uiso   1.00
C103   C     0.13575   0.07683   0.66325   0.00000  Uiso   1.00
C104   C     0.31454   0.36567   0.32970   0.00000  Uiso   1.00
C105   C     0.42321   0.36427   0.33673   0.00000  Uiso   1.00
C106   C     0.13436   0.18549   0.67034   0.00000  Uiso   1.00
C107   C     0.36178   0.08033   0.33874   0.00000  Uiso   1.00
C108   C     0.18452   0.36709   0.66901   0.00000  Uiso   1.00
C109   C     0.03403   0.10662   0.28005   0.00000  Uiso   1.00
C110   C     0.46585   0.39759   0.72253   0.00000  Uiso   1.00
C111   C     0.13723   0.42219   0.33721   0.00000  Uiso   1.00
C112   C     0.03121   0.26126   0.58151   0.00000  Uiso   1.00
C113   C     0.25039   0.49992   0.60161   0.00000  Uiso   1.00
C114   C     0.31347   0.13493   0.67129   0.00000  Uiso   1.00
C115   C     0.25006   0.49964   0.89840   0.00000  Uiso   1.00
C116   C     0.25003   0.49999   0.10169   0.00000  Uiso   1.00
C117   C     0.00002   0.24997   0.89831   0.00000  Uiso   1.00
C118   C     0.00040   0.24993   0.10160   0.00000  Uiso   1.00
C119   C     0.06315   0.27234   0.47972   0.00000  Uiso   1.00
C120   C     0.43686   0.22825   0.52050   0.00000  Uiso   1.00
C121   C     0.22868   0.43644   0.47967   0.00000  Uiso   1.00
C122   C     0.27247   0.06297   0.52022   0.00000  Uiso   1.00
C123   C     0.43755   0.22618   0.47977   0.00000  Uiso   1.00
C124   C     0.25992   0.03149   0.41854   0.00000  Uiso   1.00
C125   C     0.06256   0.27386   0.52051   0.00000  Uiso   1.00
C126   C     0.27047   0.06356   0.47948   0.00000  Uiso   1.00
C127   C     0.23084   0.43585   0.52038   0.00000  Uiso   1.00
C128   C     0.31399   0.01950   0.97969   0.00000  Uiso   1.00
C129   C     0.18641   0.47940   0.02051   0.00000  Uiso   1.00
C130   C     0.47850   0.18668   0.97954   0.00000  Uiso   1.00
C131   C     0.02297   0.31287   0.02024   0.00000  Uiso   1.00
C132   C     0.18700   0.47742   0.97977   0.00000  Uiso   1.00
C133   C     0.31339   0.02131   0.02046   0.00000  Uiso   1.00
C134   C     0.02094   0.31350   0.97949   0.00000  Uiso   1.00
C135   C     0.24065   0.46823   0.58140   0.00000  Uiso   1.00
C136   C     0.48031   0.18607   0.02030   0.00000  Uiso   1.00
C137   C     0.25002   0.49998   0.35594   0.00000  Uiso   1.00
C138   C     0.25007   0.49999   0.64404   0.00000  Uiso   1.00
C139   C     0.00001   0.25000   0.35596   0.00000  Uiso   1.00
C140   C     0.00001   0.25002   0.64407   0.00000  Uiso   1.00
C141   C     0.00000   0.24999   0.85593   0.00000  Uiso   1.00
C142   C     0.00006   0.24999   0.14403   0.00000  Uiso   1.00
C143   C     0.25000   0.49994   0.85596   0.00000  Uiso   1.00
C144   C     0.25001  -0.00000   0.14406   0.00000  Uiso   1.00
C145   C     0.17998   0.07002   0.25000   0.00000  Uiso   1.00
C146   C     0.03130   0.26098   0.41862   0.00000  Uiso   1.00
C147   C     0.32001   0.42999   0.75000   0.00000  Uiso   1.00
C148   C     0.42991   0.17997   0.24997   0.00000  Uiso   1.00
C149   C     0.06998   0.32001   0.75000   0.00000  Uiso   1.00
C150   C     0.32006   0.42994   0.25000   0.00000  Uiso   1.00
C151   C     0.18001   0.06999   0.75000   0.00000  Uiso   1.00
C152   C     0.07004   0.32007   0.25000   0.00000  Uiso   1.00
C153   C     0.42999   0.18002   0.75000   0.00000  Uiso   1.00
C154   C     0.17992   0.42997   0.74997   0.00000  Uiso   1.00
C155   C     0.31998   0.07000   0.25000   0.00000  Uiso   1.00
C156   C     0.42999   0.32002   0.75000   0.00000  Uiso   1.00
C157   C     0.46874   0.23933   0.58149   0.00000  Uiso   1.00
C158   C     0.07001   0.17999   0.25000   0.00000  Uiso   1.00
C159   C     0.32004   0.07008   0.75002   0.00000  Uiso   1.00
C160   C     0.18000   0.43001   0.24998   0.00000  Uiso   1.00
C161   C     0.07006   0.17994   0.75000   0.00000  Uiso   1.00
C162   C     0.43001   0.31999   0.25000   0.00000  Uiso   1.00
C163   C     0.13427   0.39286   0.21502   0.00000  Uiso   1.00
C164   C     0.36663   0.10662   0.78484   0.00000  Uiso   1.00
C165   C     0.13515   0.16210   0.25278   0.00000  Uiso   1.00
C166   C     0.36490   0.33796   0.74683   0.00000  Uiso   1.00
C167   C     0.36537   0.10747   0.21493   0.00000  Uiso   1.00
C168   C     0.24006   0.46833   0.41854   0.00000  Uiso   1.00
C169   C     0.13329   0.39347   0.78474   0.00000  Uiso   1.00
C170   C     0.39197   0.36482   0.21484   0.00000  Uiso   1.00
C171   C     0.10662   0.13334   0.78481   0.00000  Uiso   1.00
C172   C     0.13518   0.10802   0.78515   0.00000  Uiso   1.00
C173   C     0.36666   0.39337   0.21519   0.00000  Uiso   1.00
C174   C     0.10782   0.36505   0.78510   0.00000  Uiso   1.00
C175   C     0.39379   0.13294   0.21530   0.00000  Uiso   1.00
C176   C     0.33790   0.36485   0.74730   0.00000  Uiso   1.00
C177   C     0.16204   0.13510   0.25325   0.00000  Uiso   1.00
C178   C     0.39213   0.13502   0.78516   0.00000  Uiso   1.00
C179   C     0.26070   0.03139   0.58135   0.00000  Uiso   1.00
C180   C     0.10583   0.36744   0.21545   0.00000  Uiso   1.00
C181   C     0.38467   0.14246   0.71495   0.00000  Uiso   1.00
C182   C     0.11701   0.35627   0.28466   0.00000  Uiso   1.00
C183   C     0.38516   0.41210   0.75270   0.00000  Uiso   1.00
C184   C     0.11490   0.08796   0.24675   0.00000  Uiso   1.00
C185   C     0.11462   0.35821   0.71475   0.00000  Uiso   1.00
C186   C     0.38247   0.14426   0.28446   0.00000  Uiso   1.00
C187   C     0.14198   0.11482   0.71485   0.00000  Uiso   1.00
C188   C     0.35664   0.38335   0.28481   0.00000  Uiso   1.00
C189   C     0.38519   0.35803   0.28516   0.00000  Uiso   1.00
C190   C     0.21862   0.48918   0.91864   0.00000  Uiso   1.00
C191   C     0.11666   0.14338   0.71520   0.00000  Uiso   1.00
C192   C     0.35707   0.11581   0.28492   0.00000  Uiso   1.00
C193   C     0.14302   0.38373   0.71503   0.00000  Uiso   1.00
C194   C     0.08791   0.11485   0.24722   0.00000  Uiso   1.00
C195   C     0.41205   0.38511   0.75317   0.00000  Uiso   1.00
C196   C     0.14243   0.38472   0.28505   0.00000  Uiso   1.00
C197   C     0.35626   0.11699   0.71533   0.00000  Uiso   1.00
C198   C     0.03170   0.26121   0.45923   0.00000  Uiso   1.00
C199   C     0.46835   0.23920   0.54090   0.00000  Uiso   1.00
C200   C     0.23947   0.46803   0.45916   0.00000  Uiso   1.00
H201   H     0.44501   0.22982   0.40259   0.00000  Uiso   1.00
H202   H     0.30570   0.01819   0.09754   0.00000  Uiso   1.00
H203   H     0.39118   0.04596   0.80567   0.00000  Uiso   1.00
H204   H     0.37297   0.04737   0.85394   0.00000  Uiso   1.00
H205   H     0.40861   0.07863   0.84116   0.00000  Uiso   1.00
H206   H     0.11653   0.22970   0.21683   0.00000  Uiso   1.00
H207   H     0.14786   0.19749   0.19460   0.00000  Uiso   1.00
H208   H     0.16466   0.23749   0.21871   0.00000  Uiso   1.00
H209   H     0.37771   0.28723   0.79510   0.00000  Uiso   1.00
H210   H     0.34843   0.25450   0.77231   0.00000  Uiso   1.00
H211   H     0.32848   0.29407   0.79414   0.00000  Uiso   1.00
H212   H     0.30379   0.11535   0.18112   0.00000  Uiso   1.00
H213   H     0.01844   0.30555   0.90242   0.00000  Uiso   1.00
H214   H     0.31965   0.09864   0.13517   0.00000  Uiso   1.00
H215   H     0.33921   0.13981   0.15424   0.00000  Uiso   1.00
H216   H     0.10837   0.45411   0.80442   0.00000  Uiso   1.00
H217   H     0.12643   0.45373   0.85274   0.00000  Uiso   1.00
H218   H     0.09093   0.42205   0.84052   0.00000  Uiso   1.00
H219   H     0.38371   0.30240   0.18242   0.00000  Uiso   1.00
H220   H     0.39858   0.31795   0.13562   0.00000  Uiso   1.00
H221   H     0.35801   0.33737   0.15624   0.00000  Uiso   1.00
H222   H     0.04519   0.10946   0.80554   0.00000  Uiso   1.00
H223   H     0.04809   0.12558   0.85462   0.00000  Uiso   1.00
H224   H     0.48209   0.19426   0.09744   0.00000  Uiso   1.00
H225   H     0.07861   0.09028   0.83910   0.00000  Uiso   1.00
H226   H     0.19759   0.11627   0.81759   0.00000  Uiso   1.00
H227   H     0.18203   0.10140   0.86438   0.00000  Uiso   1.00
H228   H     0.16262   0.14198   0.84377   0.00000  Uiso   1.00
H229   H     0.39052   0.45481   0.19444   0.00000  Uiso   1.00
H230   H     0.37440   0.45190   0.14537   0.00000  Uiso   1.00
H231   H     0.40969   0.42139   0.16088   0.00000  Uiso   1.00
H232   H     0.11630   0.30347   0.81913   0.00000  Uiso   1.00
H233   H     0.10014   0.31964   0.86522   0.00000  Uiso   1.00
H234   H     0.14091   0.33926   0.84528   0.00000  Uiso   1.00
H235   H     0.30581   0.01768   0.90256   0.00000  Uiso   1.00
H236   H     0.45467   0.10801   0.19584   0.00000  Uiso   1.00
H237   H     0.45400   0.12556   0.14728   0.00000  Uiso   1.00
H238   H     0.42249   0.09014   0.16007   0.00000  Uiso   1.00
H239   H     0.27033   0.38353   0.78331   0.00000  Uiso   1.00
H240   H     0.30261   0.35229   0.80557   0.00000  Uiso   1.00
H241   H     0.26258   0.33540   0.78160   0.00000  Uiso   1.00
H242   H     0.21277   0.12240   0.20500   0.00000  Uiso   1.00
H243   H     0.24554   0.15152   0.22794   0.00000  Uiso   1.00
H244   H     0.20605   0.17164   0.20612   0.00000  Uiso   1.00
H245   H     0.38404   0.19701   0.81820   0.00000  Uiso   1.00
H246   H     0.19438   0.48177   0.09757   0.00000  Uiso   1.00
H247   H     0.40010   0.18148   0.86455   0.00000  Uiso   1.00
H248   H     0.35914   0.16188   0.84504   0.00000  Uiso   1.00
H249   H     0.04474   0.39281   0.19817   0.00000  Uiso   1.00
H250   H     0.04398   0.37608   0.14932   0.00000  Uiso   1.00
H251   H     0.07595   0.41124   0.16178   0.00000  Uiso   1.00
H252   H     0.44596   0.13419   0.68027   0.00000  Uiso   1.00
H253   H     0.42942   0.15076   0.63448   0.00000  Uiso   1.00
H254   H     0.40994   0.10984   0.65422   0.00000  Uiso   1.00
H255   H     0.14215   0.29554   0.30357   0.00000  Uiso   1.00
H256   H     0.12426   0.29545   0.35196   0.00000  Uiso   1.00
H257   H     0.48163   0.19437   0.90246   0.00000  Uiso   1.00
H258   H     0.15974   0.32724   0.33999   0.00000  Uiso   1.00
H259   H     0.36648   0.47973   0.71675   0.00000  Uiso   1.00
H260   H     0.39766   0.44743   0.69444   0.00000  Uiso   1.00
H261   H     0.41463   0.48742   0.71843   0.00000  Uiso   1.00
H262   H     0.12762   0.03720   0.29498   0.00000  Uiso   1.00
H263   H     0.09846   0.00446   0.27204   0.00000  Uiso   1.00
H264   H     0.07838   0.04396   0.29389   0.00000  Uiso   1.00
H265   H     0.05227   0.36671   0.68276   0.00000  Uiso   1.00
H266   H     0.06707   0.35099   0.63603   0.00000  Uiso   1.00
H267   H     0.08703   0.39178   0.65555   0.00000  Uiso   1.00
H268   H     0.01913   0.30546   0.09741   0.00000  Uiso   1.00
H269   H     0.35710   0.20544   0.30156   0.00000  Uiso   1.00
H270   H     0.37359   0.20617   0.35051   0.00000  Uiso   1.00
H271   H     0.33848   0.17422   0.33784   0.00000  Uiso   1.00
H272   H     0.13373   0.05241   0.68242   0.00000  Uiso   1.00
H273   H     0.14860   0.06797   0.63562   0.00000  Uiso   1.00
H274   H     0.10802   0.08738   0.65623   0.00000  Uiso   1.00
H275   H     0.29521   0.35948   0.30558   0.00000  Uiso   1.00
H276   H     0.29813   0.37561   0.35465   0.00000  Uiso   1.00
H277   H     0.32864   0.34031   0.33914   0.00000  Uiso   1.00
H278   H     0.44762   0.36629   0.31756   0.00000  Uiso   1.00
H279   H     0.10890   0.23435   0.43596   0.00000  Uiso   1.00
H280   H     0.43208   0.35143   0.36437   0.00000  Uiso   1.00
H281   H     0.41266   0.39200   0.34375   0.00000  Uiso   1.00
H282   H     0.14054   0.20482   0.69447   0.00000  Uiso   1.00
H283   H     0.12443   0.20192   0.64539   0.00000  Uiso   1.00
H284   H     0.15972   0.17140   0.66090   0.00000  Uiso   1.00
H285   H     0.36520   0.05520   0.32091   0.00000  Uiso   1.00
H286   H     0.34780   0.07236   0.36607   0.00000  Uiso   1.00
H287   H     0.38890   0.09180   0.34673   0.00000  Uiso   1.00
H288   H     0.20352   0.35956   0.69301   0.00000  Uiso   1.00
H289   H     0.20133   0.37820   0.64495   0.00000  Uiso   1.00
H290   H     0.12333   0.24116   0.48590   0.00000  Uiso   1.00
H291   H     0.17034   0.34238   0.65791   0.00000  Uiso   1.00
H292   H     0.02029   0.13345   0.28315   0.00000  Uiso   1.00
H293   H     0.05251   0.10214   0.30538   0.00000  Uiso   1.00
H294   H     0.01252   0.08533   0.28128   0.00000  Uiso   1.00
H295   H     0.46285   0.37226   0.70494   0.00000  Uiso   1.00
H296   H     0.49548   0.40168   0.72769   0.00000  Uiso   1.00
H297   H     0.45585   0.42147   0.70581   0.00000  Uiso   1.00
H298   H     0.13463   0.44662   0.31813   0.00000  Uiso   1.00
H299   H     0.15086   0.43113   0.36439   0.00000  Uiso   1.00
H300   H     0.10974   0.41161   0.34514   0.00000  Uiso   1.00
H301   H     0.16657   0.28913   0.46513   0.00000  Uiso   1.00
H302   H     0.29544   0.14202   0.69628   0.00000  Uiso   1.00
H303   H     0.29563   0.12445   0.64775   0.00000  Uiso   1.00
H304   H     0.32734   0.15983   0.66022   0.00000  Uiso   1.00
H305   H     0.05515   0.26988   0.59761   0.00000  Uiso   1.00
H306   H     0.17523   0.24648   0.44036   0.00000  Uiso   1.00
H307   H     0.15251   0.28332   0.41514   0.00000  Uiso   1.00
H308   H     0.37299   0.25765   0.51535   0.00000  Uiso   1.00
H309   H     0.39666   0.27081   0.55963   0.00000  Uiso   1.00
H310   H     0.35808   0.22662   0.59703   0.00000  Uiso   1.00
H311   H     0.33148   0.26132   0.57261   0.00000  Uiso   1.00
H312   H     0.33359   0.21573   0.55281   0.00000  Uiso   1.00
H313   H     0.17894   0.39268   0.42051   0.00000  Uiso   1.00
H314   H     0.17094   0.43477   0.44516   0.00000  Uiso   1.00
H315   H     0.15666   0.40098   0.50617   0.00000  Uiso   1.00
H316   H     0.26791   0.05566   0.40246   0.00000  Uiso   1.00
H317   H     0.12968   0.38332   0.46664   0.00000  Uiso   1.00
H318   H     0.16909   0.35817   0.48337   0.00000  Uiso   1.00
H319   H     0.33544   0.08704   0.51358   0.00000  Uiso   1.00
H320   H     0.33144   0.07321   0.56408   0.00000  Uiso   1.00
H321   H     0.32382   0.13881   0.58280   0.00000  Uiso   1.00
H322   H     0.36604   0.13106   0.55691   0.00000  Uiso   1.00
H323   H     0.32769   0.15167   0.53221   0.00000  Uiso   1.00
H324   H     0.41226   0.16315   0.48751   0.00000  Uiso   1.00
H325   H     0.42966   0.16649   0.43821   0.00000  Uiso   1.00
H326   H     0.36579   0.17303   0.41386   0.00000  Uiso   1.00
H327   H     0.23270   0.44405   0.59747   0.00000  Uiso   1.00
H328   H     0.37168   0.13145   0.44143   0.00000  Uiso   1.00
H329   H     0.34903   0.17020   0.46322   0.00000  Uiso   1.00
H330   H     0.06788   0.33240   0.55990   0.00000  Uiso   1.00
H331   H     0.09393   0.33669   0.51517   0.00000  Uiso   1.00
H332   H     0.15146   0.32729   0.55211   0.00000  Uiso   1.00
H333   H     0.12578   0.36560   0.57080   0.00000  Uiso   1.00
H334   H     0.12566   0.32265   0.59669   0.00000  Uiso   1.00
H335   H     0.24070   0.12706   0.48490   0.00000  Uiso   1.00
H336   H     0.22787   0.10393   0.44019   0.00000  Uiso   1.00
H337   H     0.27200   0.14316   0.40361   0.00000  Uiso   1.00
H338   H     0.05517   0.26981   0.40253   0.00000  Uiso   1.00
H339   H     0.23737   0.16947   0.42850   0.00000  Uiso   1.00
H340   H     0.28297   0.16690   0.44827   0.00000  Uiso   1.00
H341   H     0.27280   0.39371   0.56283   0.00000  Uiso   1.00
H342   H     0.26515   0.37697   0.51381   0.00000  Uiso   1.00
H343   H     0.22094   0.33151   0.53861   0.00000  Uiso   1.00
H344   H     0.26504   0.32660   0.56159   0.00000  Uiso   1.00
H345   H     0.22788   0.34786   0.58768   0.00000  Uiso   1.00
H346   H     0.35645   0.47851   0.93610   0.00000  Uiso   1.00
H347   H     0.37247   0.48486   0.98559   0.00000  Uiso   1.00
H348   H     0.41847   0.02928   0.96317   0.00000  Uiso   1.00
H349   H     0.44485   0.23056   0.59757   0.00000  Uiso   1.00
H350   H     0.42339   0.48612   0.93828   0.00000  Uiso   1.00
H351   H     0.40267   0.02443   0.91360   0.00000  Uiso   1.00
H352   H     0.12317   0.00973   0.01514   0.00000  Uiso   1.00
H353   H     0.14644   0.02233   0.05984   0.00000  Uiso   1.00
H354   H     0.10683   0.47852   0.09641   0.00000  Uiso   1.00
H355   H     0.08085   0.01344   0.07159   0.00000  Uiso   1.00
H356   H     0.08295   0.46785   0.05175   0.00000  Uiso   1.00
H357   H     0.41965   0.17960   0.94120   0.00000  Uiso   1.00
H358   H     0.41689   0.15295   0.98569   0.00000  Uiso   1.00
H359   H     0.42788   0.09621   0.94787   0.00000  Uiso   1.00
H360   H     0.23247   0.44407   0.40243   0.00000  Uiso   1.00
H361   H     0.38831   0.12062   0.93027   0.00000  Uiso   1.00
H362   H     0.43075   0.12264   0.90353   0.00000  Uiso   1.00
H363   H     0.08561   0.33876   0.01276   0.00000  Uiso   1.00
H364   H     0.08236   0.32224   0.06241   0.00000  Uiso   1.00
H365   H     0.07466   0.38645   0.08534   0.00000  Uiso   1.00
H366   H     0.11640   0.38078   0.05800   0.00000  Uiso   1.00
H367   H     0.07729   0.40230   0.03564   0.00000  Uiso   1.00
H368   H     0.16213   0.41478   0.98670   0.00000  Uiso   1.00
H369   H     0.17604   0.41833   0.93620   0.00000  Uiso   1.00
H370   H     0.11060   0.42665   0.91733   0.00000  Uiso   1.00
H371   H     0.26860   0.05562   0.59738   0.00000  Uiso   1.00
H372   H     0.11769   0.38453   0.94365   0.00000  Uiso   1.00
H373   H     0.09758   0.42340   0.96790   0.00000  Uiso   1.00
H374   H     0.32078   0.08014   0.05887   0.00000  Uiso   1.00
H375   H     0.34723   0.08279   0.01425   0.00000  Uiso   1.00
H376   H     0.40410   0.07159   0.05175   0.00000  Uiso   1.00
H377   H     0.37994   0.11127   0.06946   0.00000  Uiso   1.00
H378   H     0.37788   0.06885   0.09625   0.00000  Uiso   1.00
H379   H     0.49092   0.37695   0.98497   0.00000  Uiso   1.00
H380   H     0.47799   0.35357   0.94044   0.00000  Uiso   1.00
H381   H     0.02173   0.39288   0.90343   0.00000  Uiso   1.00
H382   H     0.19443   0.48120   0.90260   0.00000  Uiso   1.00
H383   H     0.48705   0.41908   0.92836   0.00000  Uiso   1.00
H384   H     0.03275   0.41688   0.94791   0.00000  Uiso   1.00
H385   H     0.02105   0.14350   0.06421   0.00000  Uiso   1.00
H386   H     0.01506   0.12772   0.01459   0.00000  Uiso   1.00
H387   H     0.47060   0.08156   0.03632   0.00000  Uiso   1.00
H388   H     0.01348   0.07662   0.06174   0.00000  Uiso   1.00
H389   H     0.47484   0.09719   0.08601   0.00000  Uiso   1.00
H390   H     0.19502   0.38477   0.17927   0.00000  Uiso   1.00
H391   H     0.17794   0.40201   0.13399   0.00000  Uiso   1.00
H392   H     0.15854   0.36092   0.15340   0.00000  Uiso   1.00
O393   O     0.25000  -0.00000   0.25000   0.00000  Uiso   1.00
O394   O     0.25000   0.46963   0.66245   0.00000  Uiso   1.00
O395   O     0.33906   0.10755   0.68091   0.00000  Uiso   1.00
O396   O     0.46964   0.25000   0.33755   0.00000  Uiso   1.00
O397   O     0.03037   0.25000   0.66245   0.00000  Uiso   1.00
O398   O     0.00000   0.21963   0.83755   0.00000  Uiso   1.00
O399   O     0.00000   0.28036   0.16245   0.00000  Uiso   1.00
O400   O     0.28037  -0.00000   0.83755   0.00000  Uiso   1.00
O401   O     0.21964  -0.00000   0.16245   0.00000  Uiso   1.00
O402   O     0.00000   0.28036   0.83755   0.00000  Uiso   1.00
O403   O     0.00000   0.21963   0.16245   0.00000  Uiso   1.00
O404   O     0.21964  -0.00000   0.83755   0.00000  Uiso   1.00
O405   O     0.25000  -0.00000   0.75000   0.00000  Uiso   1.00
O406   O     0.28037  -0.00000   0.16245   0.00000  Uiso   1.00
O407   O     0.20725   0.07307   0.27302   0.00000  Uiso   1.00
O408   O     0.29276   0.42692   0.72698   0.00000  Uiso   1.00
O409   O     0.42693   0.20724   0.27302   0.00000  Uiso   1.00
O410   O     0.07308   0.29275   0.72698   0.00000  Uiso   1.00
O411   O     0.29276   0.42692   0.27302   0.00000  Uiso   1.00
O412   O     0.20725   0.07307   0.72698   0.00000  Uiso   1.00
O413   O     0.07308   0.29275   0.27302   0.00000  Uiso   1.00
O414   O     0.42693   0.20724   0.72698   0.00000  Uiso   1.00
O415   O     0.20725   0.42692   0.72698   0.00000  Uiso   1.00
O416   O     0.00000   0.25000   0.25000   0.00000  Uiso   1.00
O417   O     0.29276   0.07307   0.27302   0.00000  Uiso   1.00
O418   O     0.42693   0.29275   0.72698   0.00000  Uiso   1.00
O419   O     0.07308   0.20724   0.27302   0.00000  Uiso   1.00
O420   O     0.29276   0.07307   0.72698   0.00000  Uiso   1.00
O421   O     0.20725   0.42692   0.27302   0.00000  Uiso   1.00
O422   O     0.07308   0.20724   0.72698   0.00000  Uiso   1.00
O423   O     0.42693   0.29275   0.27302   0.00000  Uiso   1.00
O424   O     0.45725   0.32307   0.77302   0.00000  Uiso   1.00
O425   O     0.04276   0.17692   0.22698   0.00000  Uiso   1.00
O426   O     0.17693   0.45724   0.77302   0.00000  Uiso   1.00
O427   O     0.00000   0.25000   0.75000   0.00000  Uiso   1.00
O428   O     0.32308   0.04275   0.22698   0.00000  Uiso   1.00
O429   O     0.04276   0.17692   0.77302   0.00000  Uiso   1.00
O430   O     0.45725   0.32307   0.22698   0.00000  Uiso   1.00
O431   O     0.32308   0.04275   0.77302   0.00000  Uiso   1.00
O432   O     0.17693   0.45724   0.22698   0.00000  Uiso   1.00
O433   O     0.45725   0.17692   0.22698   0.00000  Uiso   1.00
O434   O     0.04276   0.32307   0.77302   0.00000  Uiso   1.00
O435   O     0.17693   0.04275   0.22698   0.00000  Uiso   1.00
O436   O     0.32308   0.45724   0.77302   0.00000  Uiso   1.00
O437   O     0.04276   0.32307   0.22698   0.00000  Uiso   1.00
O438   O     0.25000   0.46963   0.33755   0.00000  Uiso   1.00
O439   O     0.45725   0.17692   0.77302   0.00000  Uiso   1.00
O440   O     0.32308   0.45724   0.22698   0.00000  Uiso   1.00
O441   O     0.17693   0.04275   0.77302   0.00000  Uiso   1.00
O442   O     0.09393   0.28414   0.46003   0.00000  Uiso   1.00
O443   O     0.40581   0.21743   0.54033   0.00000  Uiso   1.00
O444   O     0.21886   0.40481   0.46018   0.00000  Uiso   1.00
O445   O     0.28387   0.09397   0.53977   0.00000  Uiso   1.00
O446   O     0.40681   0.21420   0.46014   0.00000  Uiso   1.00
O447   O     0.09354   0.28485   0.54039   0.00000  Uiso   1.00
O448   O     0.28113   0.09466   0.45963   0.00000  Uiso   1.00
O449   O     0.25000   0.03036   0.66245   0.00000  Uiso   1.00
O450   O     0.22126   0.40437   0.54016   0.00000  Uiso   1.00
O451   O     0.34543   0.02944   0.96004   0.00000  Uiso   1.00
O452   O     0.15522   0.46899   0.04036   0.00000  Uiso   1.00
O453   O     0.46834   0.15541   0.95968   0.00000  Uiso   1.00
O454   O     0.03435   0.34385   0.03985   0.00000  Uiso   1.00
O455   O     0.15591   0.46630   0.96018   0.00000  Uiso   1.00
O456   O     0.34469   0.03136   0.04031   0.00000  Uiso   1.00
O457   O     0.03140   0.34466   0.95964   0.00000  Uiso   1.00
O458   O     0.47029   0.15465   0.03994   0.00000  Uiso   1.00
O459   O     0.14372   0.40980   0.18048   0.00000  Uiso   1.00
O460   O     0.03037   0.25000   0.33755   0.00000  Uiso   1.00
O461   O     0.35662   0.08996   0.81938   0.00000  Uiso   1.00
O462   O     0.14576   0.19828   0.25642   0.00000  Uiso   1.00
O463   O     0.35490   0.30186   0.74112   0.00000  Uiso   1.00
O464   O     0.35547   0.09094   0.18031   0.00000  Uiso   1.00
O465   O     0.14300   0.41043   0.81922   0.00000  Uiso   1.00
O466   O     0.40774   0.35418   0.18009   0.00000  Uiso   1.00
O467   O     0.08978   0.14309   0.81933   0.00000  Uiso   1.00
O468   O     0.14582   0.09225   0.81991   0.00000  Uiso   1.00
O469   O     0.35689   0.41021   0.18067   0.00000  Uiso   1.00
O470   O     0.09154   0.35490   0.81977   0.00000  Uiso   1.00
O471   O     0.46964   0.25000   0.66245   0.00000  Uiso   1.00
O472   O     0.41092   0.14243   0.18085   0.00000  Uiso   1.00
O473   O     0.30171   0.35423   0.74375   0.00000  Uiso   1.00
O474   O     0.19813   0.14509   0.25904   0.00000  Uiso   1.00
O475   O     0.40832   0.14530   0.81984   0.00000  Uiso   1.00
O476   O     0.08806   0.35862   0.18117   0.00000  Uiso   1.00
O477   O     0.39455   0.15901   0.68034   0.00000  Uiso   1.00
O478   O     0.10759   0.33907   0.31908   0.00000  Uiso   1.00
O479   O     0.39577   0.44829   0.75627   0.00000  Uiso   1.00
O480   O     0.10491   0.05187   0.24096   0.00000  Uiso   1.00
O481   O     0.10394   0.34240   0.68002   0.00000  Uiso   1.00
O482   O     0.25000   0.03036   0.33755   0.00000  Uiso   1.00
O483   O     0.39120   0.16211   0.31873   0.00000  Uiso   1.00
O484   O     0.15775   0.10418   0.68009   0.00000  Uiso   1.00
O485   O     0.33981   0.39312   0.31934   0.00000  Uiso   1.00
O486   O     0.39584   0.34227   0.31991   0.00000  Uiso   1.00
O487   O     0.10691   0.16022   0.68067   0.00000  Uiso   1.00
O488   O     0.34006   0.10643   0.31944   0.00000  Uiso   1.00
O489   O     0.15928   0.39417   0.68042   0.00000  Uiso   1.00
O490   O     0.05172   0.10424   0.24357   0.00000  Uiso   1.00
O491   O     0.44814   0.39510   0.75888   0.00000  Uiso   1.00
O492   O     0.15872   0.39479   0.31973   0.00000  Uiso   1.00
Zn493  Zn    0.20660  -0.00000   0.21735   0.00000  Uiso   1.00
Zn494  Zn    0.04341   0.25000   0.28265   0.00000  Uiso   1.00
Zn495  Zn    0.25000   0.45659   0.71735   0.00000  Uiso   1.00
Zn496  Zn    0.25000   0.04340   0.28265   0.00000  Uiso   1.00
Zn497  Zn    0.04341   0.25000   0.71735   0.00000  Uiso   1.00
Zn498  Zn    0.45660   0.25000   0.28265   0.00000  Uiso   1.00
Zn499  Zn    0.25000   0.04340   0.71735   0.00000  Uiso   1.00
Zn500  Zn    0.25000   0.45659   0.28265   0.00000  Uiso   1.00
Zn501  Zn    0.29341  -0.00000   0.78265   0.00000  Uiso   1.00
Zn502  Zn    0.00000   0.20659   0.21735   0.00000  Uiso   1.00
Zn503  Zn    0.00000   0.29340   0.78265   0.00000  Uiso   1.00
Zn504  Zn    0.29341  -0.00000   0.21735   0.00000  Uiso   1.00
Zn505  Zn    0.20660  -0.00000   0.78265   0.00000  Uiso   1.00
Zn506  Zn    0.00000   0.29340   0.21735   0.00000  Uiso   1.00
Zn507  Zn    0.00000   0.20659   0.78265   0.00000  Uiso   1.00
Zn508  Zn    0.45660   0.25000   0.71735   0.00000  Uiso   1.00
C509   C     0.96891   0.23861   0.41865   0.00000  Uiso   1.00
C510   C     0.78154   0.01016   0.08147   0.00000  Uiso   1.00
C511   C     0.76120   0.03162   0.54075   0.00000  Uiso   1.00
C512   C     0.96863   0.23823   0.45926   0.00000  Uiso   1.00
C513   C     0.53148   0.26179   0.54090   0.00000  Uiso   1.00
C514   C     0.76018   0.03183   0.45912   0.00000  Uiso   1.00
C515   C     0.74054   0.46778   0.54080   0.00000  Uiso   1.00
C516   C     0.78214   0.00959   0.95923   0.00000  Uiso   1.00
C517   C     0.71815   0.48961   0.04090   0.00000  Uiso   1.00
C518   C     0.98949   0.21815   0.95913   0.00000  Uiso   1.00
C519   C     0.51155   0.28156   0.04075   0.00000  Uiso   1.00
C520   C     0.71837   0.48867   0.95925   0.00000  Uiso   1.00
C521   C     0.51027   0.28145   0.91851   0.00000  Uiso   1.00
C522   C     0.78188   0.01043   0.04087   0.00000  Uiso   1.00
C523   C     0.51056   0.28180   0.95910   0.00000  Uiso   1.00
C524   C     0.99033   0.21789   0.04077   0.00000  Uiso   1.00
C525   C     0.59808   0.34828   0.25002   0.00000  Uiso   1.00
C526   C     0.90191   0.15206   0.75003   0.00000  Uiso   1.00
C527   C     0.65191   0.09809   0.25000   0.00000  Uiso   1.00
C528   C     0.84805   0.40195   0.75000   0.00000  Uiso   1.00
C529   C     0.90170   0.15194   0.24992   0.00000  Uiso   1.00
C530   C     0.59792   0.34811   0.74997   0.00000  Uiso   1.00
C531   C     0.84818   0.40182   0.25000   0.00000  Uiso   1.00
C532   C     0.99035   0.21835   0.08137   0.00000  Uiso   1.00
C533   C     0.65199   0.09801   0.75000   0.00000  Uiso   1.00
C534   C     0.59818   0.15182   0.75000   0.00000  Uiso   1.00
C535   C     0.90199   0.34801   0.25000   0.00000  Uiso   1.00
C536   C     0.65171   0.40194   0.74992   0.00000  Uiso   1.00
C537   C     0.84792   0.09811   0.24997   0.00000  Uiso   1.00
C538   C     0.90191   0.34809   0.75000   0.00000  Uiso   1.00
C539   C     0.59805   0.15195   0.25000   0.00000  Uiso   1.00
C540   C     0.84809   0.09827   0.75006   0.00000  Uiso   1.00
C541   C     0.65189   0.40209   0.25000   0.00000  Uiso   1.00
C542   C     0.50008   0.24999   0.47967   0.00000  Uiso   1.00
C543   C     0.78168   0.00956   0.91862   0.00000  Uiso   1.00
C544   C     0.50000   0.25026   0.52046   0.00000  Uiso   1.00
C545   C     0.75005   0.49988   0.47957   0.00000  Uiso   1.00
C546   C     0.75046   0.49980   0.52035   0.00000  Uiso   1.00
C547   C     0.75017   0.49944   0.97966   0.00000  Uiso   1.00
C548   C     0.75009   0.49976   0.02044   0.00000  Uiso   1.00
C549   C     0.50030   0.24990   0.97955   0.00000  Uiso   1.00
C550   C     0.50063   0.24981   0.02034   0.00000  Uiso   1.00
C551   C     0.61889   0.25486   0.45734   0.00000  Uiso   1.00
C552   C     0.65560   0.26939   0.44359   0.00000  Uiso   1.00
C553   C     0.88257   0.24797   0.54431   0.00000  Uiso   1.00
C554   C     0.71851   0.48986   0.08149   0.00000  Uiso   1.00
C555   C     0.84936   0.23718   0.56822   0.00000  Uiso   1.00
C556   C     0.68163   0.40645   0.44913   0.00000  Uiso   1.00
C557   C     0.65787   0.38592   0.47822   0.00000  Uiso   1.00
C558   C     0.82241   0.09357   0.54207   0.00000  Uiso   1.00
C559   C     0.83581   0.13115   0.55433   0.00000  Uiso   1.00
C560   C     0.90770   0.17565   0.45835   0.00000  Uiso   1.00
C561   C     0.87125   0.16173   0.44321   0.00000  Uiso   1.00
C562   C     0.59287   0.32323   0.54418   0.00000  Uiso   1.00
C563   C     0.62605   0.33544   0.56742   0.00000  Uiso   1.00
C564   C     0.75057   0.11788   0.45587   0.00000  Uiso   1.00
C565   C     0.98975   0.21849   0.91853   0.00000  Uiso   1.00
C566   C     0.76146   0.15145   0.43257   0.00000  Uiso   1.00
C567   C     0.75226   0.38157   0.54277   0.00000  Uiso   1.00
C568   C     0.74077   0.34457   0.55870   0.00000  Uiso   1.00
C569   C     0.86829   0.49851   0.95695   0.00000  Uiso   1.00
C570   C     0.90553   0.01038   0.94202   0.00000  Uiso   1.00
C571   C     0.63228   0.49976   0.04416   0.00000  Uiso   1.00
C572   C     0.59862   0.48918   0.06747   0.00000  Uiso   1.00
C573   C     0.92990   0.15479   0.95648   0.00000  Uiso   1.00
C574   C     0.91852   0.12145   0.93305   0.00000  Uiso   1.00
C575   C     0.57290   0.34366   0.04177   0.00000  Uiso   1.00
C576   C     0.51102   0.28131   0.08136   0.00000  Uiso   1.00
C577   C     0.58613   0.38063   0.05615   0.00000  Uiso   1.00
C578   C     0.65578   0.42775   0.95813   0.00000  Uiso   1.00
C579   C     0.61804   0.41479   0.94592   0.00000  Uiso   1.00
C580   C     0.84548   0.06980   0.04347   0.00000  Uiso   1.00
C581   C     0.87897   0.08107   0.06671   0.00000  Uiso   1.00
C582   C     0.50069   0.36770   0.95593   0.00000  Uiso   1.00
C583   C     0.51127   0.40123   0.93240   0.00000  Uiso   1.00
C584   C     0.50120   0.13176   0.04314   0.00000  Uiso   1.00
C585   C     0.98923   0.09445   0.05777   0.00000  Uiso   1.00
C586   C     0.66993   0.38809   0.16134   0.00000  Uiso   1.00
C587   C     0.50005   0.24991   0.39840   0.00000  Uiso   1.00
C588   C     0.88384   0.06458   0.83007   0.00000  Uiso   1.00
C589   C     0.64337   0.21597   0.21994   0.00000  Uiso   1.00
C590   C     0.85242   0.28414   0.77746   0.00000  Uiso   1.00
C591   C     0.82838   0.11245   0.16232   0.00000  Uiso   1.00
C592   C     0.61571   0.43598   0.82924   0.00000  Uiso   1.00
C593   C     0.88574   0.32682   0.16326   0.00000  Uiso   1.00
C594   C     0.56451   0.11564   0.82967   0.00000  Uiso   1.00
C595   C     0.67317   0.11425   0.83675   0.00000  Uiso   1.00
C596   C     0.88434   0.43548   0.17032   0.00000  Uiso   1.00
C597   C     0.61351   0.32818   0.83774   0.00000  Uiso   1.00
C598   C     0.50001   0.25015   0.60170   0.00000  Uiso   1.00
C599   C     0.93642   0.11505   0.17102   0.00000  Uiso   1.00
C600   C     0.78409   0.35670   0.78026   0.00000  Uiso   1.00
C601   C     0.71590   0.14762   0.22273   0.00000  Uiso   1.00
C602   C     0.88663   0.17258   0.83727   0.00000  Uiso   1.00
C603   C     0.56229   0.38616   0.17266   0.00000  Uiso   1.00
C604   C     0.92110   0.13716   0.66191   0.00000  Uiso   1.00
C605   C     0.63492   0.31343   0.32864   0.00000  Uiso   1.00
C606   C     0.89330   0.46594   0.71977   0.00000  Uiso   1.00
C607   C     0.60238   0.03410   0.27726   0.00000  Uiso   1.00
C608   C     0.57641   0.36424   0.66326   0.00000  Uiso   1.00
C609   C     0.75001   0.49992   0.39833   0.00000  Uiso   1.00
C610   C     0.86363   0.18788   0.32710   0.00000  Uiso   1.00
C611   C     0.63575   0.07683   0.66325   0.00000  Uiso   1.00
C612   C     0.81454   0.36567   0.32970   0.00000  Uiso   1.00
C613   C     0.92321   0.36427   0.33673   0.00000  Uiso   1.00
C614   C     0.63436   0.18549   0.67034   0.00000  Uiso   1.00
C615   C     0.86178   0.08033   0.33874   0.00000  Uiso   1.00
C616   C     0.68452   0.36709   0.66901   0.00000  Uiso   1.00
C617   C     0.53403   0.10662   0.28005   0.00000  Uiso   1.00
C618   C     0.96585   0.39759   0.72253   0.00000  Uiso   1.00
C619   C     0.63723   0.42219   0.33721   0.00000  Uiso   1.00
C620   C     0.53121   0.26126   0.58151   0.00000  Uiso   1.00
C621   C     0.75039   0.49992   0.60161   0.00000  Uiso   1.00
C622   C     0.81347   0.13493   0.67129   0.00000  Uiso   1.00
C623   C     0.75006   0.49964   0.89840   0.00000  Uiso   1.00
C624   C     0.75003   0.49999   0.10169   0.00000  Uiso   1.00
C625   C     0.50002   0.24997   0.89831   0.00000  Uiso   1.00
C626   C     0.50040   0.24993   0.10160   0.00000  Uiso   1.00
C627   C     0.56315   0.27234   0.47972   0.00000  Uiso   1.00
C628   C     0.93686   0.22825   0.52050   0.00000  Uiso   1.00
C629   C     0.72868   0.43644   0.47967   0.00000  Uiso   1.00
C630   C     0.77247   0.06297   0.52022   0.00000  Uiso   1.00
C631   C     0.93755   0.22618   0.47977   0.00000  Uiso   1.00
C632   C     0.75992   0.03149   0.41854   0.00000  Uiso   1.00
C633   C     0.56256   0.27386   0.52051   0.00000  Uiso   1.00
C634   C     0.77047   0.06356   0.47948   0.00000  Uiso   1.00
C635   C     0.73084   0.43585   0.52038   0.00000  Uiso   1.00
C636   C     0.81399   0.01950   0.97969   0.00000  Uiso   1.00
C637   C     0.68641   0.47940   0.02051   0.00000  Uiso   1.00
C638   C     0.97850   0.18668   0.97954   0.00000  Uiso   1.00
C639   C     0.52297   0.31287   0.02024   0.00000  Uiso   1.00
C640   C     0.68700   0.47742   0.97977   0.00000  Uiso   1.00
C641   C     0.81339   0.02131   0.02046   0.00000  Uiso   1.00
C642   C     0.52094   0.31350   0.97949   0.00000  Uiso   1.00
C643   C     0.74065   0.46823   0.58140   0.00000  Uiso   1.00
C644   C     0.98031   0.18607   0.02030   0.00000  Uiso   1.00
C645   C     0.75002   0.49998   0.35594   0.00000  Uiso   1.00
C646   C     0.75007   0.49999   0.64404   0.00000  Uiso   1.00
C647   C     0.50001   0.25000   0.35596   0.00000  Uiso   1.00
C648   C     0.50001   0.25002   0.64407   0.00000  Uiso   1.00
C649   C     0.50000   0.24999   0.85593   0.00000  Uiso   1.00
C650   C     0.50006   0.24999   0.14403   0.00000  Uiso   1.00
C651   C     0.75000   0.49994   0.85596   0.00000  Uiso   1.00
C652   C     0.75001  -0.00000   0.14406   0.00000  Uiso   1.00
C653   C     0.67998   0.07002   0.25000   0.00000  Uiso   1.00
C654   C     0.53130   0.26098   0.41862   0.00000  Uiso   1.00
C655   C     0.82001   0.42999   0.75000   0.00000  Uiso   1.00
C656   C     0.92991   0.17997   0.24997   0.00000  Uiso   1.00
C657   C     0.56998   0.32001   0.75000   0.00000  Uiso   1.00
C658   C     0.82006   0.42994   0.25000   0.00000  Uiso   1.00
C659   C     0.68001   0.06999   0.75000   0.00000  Uiso   1.00
C660   C     0.57004   0.32007   0.25000   0.00000  Uiso   1.00
C661   C     0.92999   0.18002   0.75000   0.00000  Uiso   1.00
C662   C     0.67992   0.42997   0.74997   0.00000  Uiso   1.00
C663   C     0.81998   0.07000   0.25000   0.00000  Uiso   1.00
C664   C     0.92999   0.32002   0.75000   0.00000  Uiso   1.00
C665   C     0.96874   0.23933   0.58149   0.00000  Uiso   1.00
C666   C     0.57001   0.17999   0.25000   0.00000  Uiso   1.00
C667   C     0.82004   0.07008   0.75002   0.00000  Uiso   1.00
C668   C     0.68000   0.43001   0.24998   0.00000  Uiso   1.00
C669   C     0.57006   0.17994   0.75000   0.00000  Uiso   1.00
C670   C     0.93001   0.31999   0.25000   0.00000  Uiso   1.00
C671   C     0.63427   0.39286   0.21502   0.00000  Uiso   1.00
C672   C     0.86663   0.10662   0.78484   0.00000  Uiso   1.00
C673   C     0.63515   0.16210   0.25278   0.00000  Uiso   1.00
C674   C     0.86490   0.33796   0.74683   0.00000  Uiso   1.00
C675   C     0.86537   0.10747   0.21493   0.00000  Uiso   1.00
C676   C     0.74006   0.46833   0.41854   0.00000  Uiso   1.00
C677   C     0.63329   0.39347   0.78474   0.00000  Uiso   1.00
C678   C     0.89197   0.36482   0.21484   0.00000  Uiso   1.00
C679   C     0.60662   0.13334   0.78481   0.00000  Uiso   1.00
C680   C     0.63518   0.10802   0.78515   0.00000  Uiso   1.00
C681   C     0.86666   0.39337   0.21519   0.00000  Uiso   1.00
C682   C     0.60782   0.36505   0.78510   0.00000  Uiso   1.00
C683   C     0.89379   0.13294   0.21530   0.00000  Uiso   1.00
C684   C     0.83790   0.36485   0.74730   0.00000  Uiso   1.00
C685   C     0.66204   0.13510   0.25325   0.00000  Uiso   1.00
C686   C     0.89213   0.13502   0.78516   0.00000  Uiso   1.00
C687   C     0.76070   0.03139   0.58135   0.00000  Uiso   1.00
C688   C     0.60583   0.36744   0.21545   0.00000  Uiso   1.00
C689   C     0.88467   0.14246   0.71495   0.00000  Uiso   1.00
C690   C     0.61701   0.35627   0.28466   0.00000  Uiso   1.00
C691   C     0.88516   0.41210   0.75270   0.00000  Uiso   1.00
C692   C     0.61490   0.08796   0.24675   0.00000  Uiso   1.00
C693   C     0.61462   0.35821   0.71475   0.00000  Uiso   1.00
C694   C     0.88247   0.14426   0.28446   0.00000  Uiso   1.00
C695   C     0.64198   0.11482   0.71485   0.00000  Uiso   1.00
C696   C     0.85664   0.38335   0.28481   0.00000  Uiso   1.00
C697   C     0.88519   0.35803   0.28516   0.00000  Uiso   1.00
C698   C     0.71862   0.48918   0.91864   0.00000  Uiso   1.00
C699   C     0.61666   0.14338   0.71520   0.00000  Uiso   1.00
C700   C     0.85707   0.11581   0.28492   0.00000  Uiso   1.00
C701   C     0.64302   0.38373   0.71503   0.00000  Uiso   1.00
C702   C     0.58791   0.11485   0.24722   0.00000  Uiso   1.00
C703   C     0.91205   0.38511   0.75317   0.00000  Uiso   1.00
C704   C     0.64243   0.38472   0.28505   0.00000  Uiso   1.00
C705   C     0.85626   0.11699   0.71533   0.00000  Uiso   1.00
C706   C     0.53170   0.26121   0.45923   0.00000  Uiso   1.00
C707   C     0.96835   0.23920   0.54090   0.00000  Uiso   1.00
C708   C     0.73947   0.46803   0.45916   0.00000  Uiso   1.00
H709   H     0.94501   0.22982   0.40259   0.00000  Uiso   1.00
H710   H     0.80570   0.01819   0.09754   0.00000  Uiso   1.00
H711   H     0.89118   0.04596   0.80567   0.00000  Uiso   1.00
H712   H     0.87297   0.04737   0.85394   0.00000  Uiso   1.00
H713   H     0.90861   0.07863   0.84116   0.00000  Uiso   1.00
H714   H     0.61653   0.22970   0.21683   0.00000  Uiso   1.00
H715   H     0.64786   0.19749   0.19460   0.00000  Uiso   1.00
H716   H     0.66466   0.23749   0.21871   0.00000  Uiso   1.00
H717   H     0.87771   0.28723   0.79510   0.00000  Uiso   1.00
H718   H     0.84843   0.25450   0.77231   0.00000  Uiso   1.00
H719   H     0.82848   0.29407   0.79414   0.00000  Uiso   1.00
H720   H     0.80379   0.11535   0.18112   0.00000  Uiso   1.00
H721   H     0.51844   0.30555   0.90242   0.00000  Uiso   1.00
H722   H     0.81965   0.09864   0.13517   0.00000  Uiso   1.00
H723   H     0.83921   0.13981   0.15424   0.00000  Uiso   1.00
H724   H     0.60837   0.45411   0.80442   0.00000  Uiso   1.00
H725   H     0.62643   0.45373   0.85274   0.00000  Uiso   1.00
H726   H     0.59093   0.42205   0.84052   0.00000  Uiso   1.00
H727   H     0.88371   0.30240   0.18242   0.00000  Uiso   1.00
H728   H     0.89858   0.31795   0.13562   0.00000  Uiso   1.00
H729   H     0.85801   0.33737   0.15624   0.00000  Uiso   1.00
H730   H     0.54519   0.10946   0.80554   0.00000  Uiso   1.00
H731   H     0.54809   0.12558   0.85462   0.00000  Uiso   1.00
H732   H     0.98209   0.19426   0.09744   0.00000  Uiso   1.00
H733   H     0.57861   0.09028   0.83910   0.00000  Uiso   1.00
H734   H     0.69759   0.11627   0.81759   0.00000  Uiso   1.00
H735   H     0.68203   0.10140   0.86438   0.00000  Uiso   1.00
H736   H     0.66262   0.14198   0.84377   0.00000  Uiso   1.00
H737   H     0.89052   0.45481   0.19444   0.00000  Uiso   1.00
H738   H     0.87440   0.45190   0.14537   0.00000  Uiso   1.00
H739   H     0.90969   0.42139   0.16088   0.00000  Uiso   1.00
H740   H     0.61630   0.30347   0.81913   0.00000  Uiso   1.00
H741   H     0.60014   0.31964   0.86522   0.00000  Uiso   1.00
H742   H     0.64091   0.33926   0.84528   0.00000  Uiso   1.00
H743   H     0.80581   0.01768   0.90256   0.00000  Uiso   1.00
H744   H     0.95467   0.10801   0.19584   0.00000  Uiso   1.00
H745   H     0.95400   0.12556   0.14728   0.00000  Uiso   1.00
H746   H     0.92249   0.09014   0.16007   0.00000  Uiso   1.00
H747   H     0.77033   0.38353   0.78331   0.00000  Uiso   1.00
H748   H     0.80261   0.35229   0.80557   0.00000  Uiso   1.00
H749   H     0.76258   0.33540   0.78160   0.00000  Uiso   1.00
H750   H     0.71277   0.12240   0.20500   0.00000  Uiso   1.00
H751   H     0.74554   0.15152   0.22794   0.00000  Uiso   1.00
H752   H     0.70605   0.17164   0.20612   0.00000  Uiso   1.00
H753   H     0.88404   0.19701   0.81820   0.00000  Uiso   1.00
H754   H     0.69438   0.48177   0.09757   0.00000  Uiso   1.00
H755   H     0.90010   0.18148   0.86455   0.00000  Uiso   1.00
H756   H     0.85914   0.16188   0.84504   0.00000  Uiso   1.00
H757   H     0.54474   0.39281   0.19817   0.00000  Uiso   1.00
H758   H     0.54398   0.37608   0.14932   0.00000  Uiso   1.00
H759   H     0.57595   0.41124   0.16178   0.00000  Uiso   1.00
H760   H     0.94596   0.13419   0.68027   0.00000  Uiso   1.00
H761   H     0.92942   0.15076   0.63448   0.00000  Uiso   1.00
H762   H     0.90994   0.10984   0.65422   0.00000  Uiso   1.00
H763   H     0.64215   0.29554   0.30357   0.00000  Uiso   1.00
H764   H     0.62426   0.29545   0.35196   0.00000  Uiso   1.00
H765   H     0.98163   0.19437   0.90246   0.00000  Uiso   1.00
H766   H     0.65974   0.32724   0.33999   0.00000  Uiso   1.00
H767   H     0.86648   0.47973   0.71675   0.00000  Uiso   1.00
H768   H     0.89766   0.44743   0.69444   0.00000  Uiso   1.00
H769   H     0.91463   0.48742   0.71843   0.00000  Uiso   1.00
H770   H     0.62762   0.03720   0.29498   0.00000  Uiso   1.00
H771   H     0.59846   0.00446   0.27204   0.00000  Uiso   1.00
H772   H     0.57838   0.04396   0.29389   0.00000  Uiso   1.00
H773   H     0.55227   0.36671   0.68276   0.00000  Uiso   1.00
H774   H     0.56707   0.35099   0.63603   0.00000  Uiso   1.00
H775   H     0.58703   0.39178   0.65555   0.00000  Uiso   1.00
H776   H     0.51913   0.30546   0.09741   0.00000  Uiso   1.00
H777   H     0.85710   0.20544   0.30156   0.00000  Uiso   1.00
H778   H     0.87359   0.20617   0.35051   0.00000  Uiso   1.00
H779   H     0.83848   0.17422   0.33784   0.00000  Uiso   1.00
H780   H     0.63373   0.05241   0.68242   0.00000  Uiso   1.00
H781   H     0.64860   0.06797   0.63562   0.00000  Uiso   1.00
H782   H     0.60802   0.08738   0.65623   0.00000  Uiso   1.00
H783   H     0.79521   0.35948   0.30558   0.00000  Uiso   1.00
H784   H     0.79813   0.37561   0.35465   0.00000  Uiso   1.00
H785   H     0.82864   0.34031   0.33914   0.00000  Uiso   1.00
H786   H     0.94762   0.36629   0.31756   0.00000  Uiso   1.00
H787   H     0.60890   0.23435   0.43596   0.00000  Uiso   1.00
H788   H     0.93208   0.35143   0.36437   0.00000  Uiso   1.00
H789   H     0.91266   0.39200   0.34375   0.00000  Uiso   1.00
H790   H     0.64054   0.20482   0.69447   0.00000  Uiso   1.00
H791   H     0.62443   0.20192   0.64539   0.00000  Uiso   1.00
H792   H     0.65972   0.17140   0.66090   0.00000  Uiso   1.00
H793   H     0.86520   0.05520   0.32091   0.00000  Uiso   1.00
H794   H     0.84780   0.07236   0.36607   0.00000  Uiso   1.00
H795   H     0.88890   0.09180   0.34673   0.00000  Uiso   1.00
H796   H     0.70352   0.35956   0.69301   0.00000  Uiso   1.00
H797   H     0.70133   0.37820   0.64495   0.00000  Uiso   1.00
H798   H     0.62333   0.24116   0.48590   0.00000  Uiso   1.00
H799   H     0.67034   0.34238   0.65791   0.00000  Uiso   1.00
H800   H     0.52029   0.13345   0.28315   0.00000  Uiso   1.00
H801   H     0.55251   0.10214   0.30538   0.00000  Uiso   1.00
H802   H     0.51252   0.08533   0.28128   0.00000  Uiso   1.00
H803   H     0.96285   0.37226   0.70494   0.00000  Uiso   1.00
H804   H     0.99548   0.40168   0.72769   0.00000  Uiso   1.00
H805   H     0.95585   0.42147   0.70581   0.00000  Uiso   1.00
H806   H     0.63463   0.44662   0.31813   0.00000  Uiso   1.00
H807   H     0.65086   0.43113   0.36439   0.00000  Uiso   1.00
H808   H     0.60974   0.41161   0.34514   0.00000  Uiso   1.00
H809   H     0.66657   0.28913   0.46513   0.00000  Uiso   1.00
H810   H     0.79544   0.14202   0.69628   0.00000  Uiso   1.00
H811   H     0.79563   0.12445   0.64775   0.00000  Uiso   1.00
H812   H     0.82734   0.15983   0.66022   0.00000  Uiso   1.00
H813   H     0.55515   0.26988   0.59761   0.00000  Uiso   1.00
H814   H     0.67523   0.24648   0.44036   0.00000  Uiso   1.00
H815   H     0.65251   0.28332   0.41514   0.00000  Uiso   1.00
H816   H     0.87299   0.25765   0.51535   0.00000  Uiso   1.00
H817   H     0.89666   0.27081   0.55963   0.00000  Uiso   1.00
H818   H     0.85808   0.22662   0.59703   0.00000  Uiso   1.00
H819   H     0.83148   0.26132   0.57261   0.00000  Uiso   1.00
H820   H     0.83359   0.21573   0.55281   0.00000  Uiso   1.00
H821   H     0.67894   0.39268   0.42051   0.00000  Uiso   1.00
H822   H     0.67094   0.43477   0.44516   0.00000  Uiso   1.00
H823   H     0.65666   0.40098   0.50617   0.00000  Uiso   1.00
H824   H     0.76791   0.05566   0.40246   0.00000  Uiso   1.00
H825   H     0.62968   0.38332   0.46664   0.00000  Uiso   1.00
H826   H     0.66909   0.35817   0.48337   0.00000  Uiso   1.00
H827   H     0.83544   0.08704   0.51358   0.00000  Uiso   1.00
H828   H     0.83144   0.07321   0.56408   0.00000  Uiso   1.00
H829   H     0.82382   0.13881   0.58280   0.00000  Uiso   1.00
H830   H     0.86604   0.13106   0.55691   0.00000  Uiso   1.00
H831   H     0.82769   0.15167   0.53221   0.00000  Uiso   1.00
H832   H     0.91226   0.16315   0.48751   0.00000  Uiso   1.00
H833   H     0.92966   0.16649   0.43821   0.00000  Uiso   1.00
H834   H     0.86579   0.17303   0.41386   0.00000  Uiso   1.00
H835   H     0.73270   0.44405   0.59747   0.00000  Uiso   1.00
H836   H     0.87168   0.13145   0.44143   0.00000  Uiso   1.00
H837   H     0.84903   0.17020   0.46322   0.00000  Uiso   1.00
H838   H     0.56788   0.33240   0.55990   0.00000  Uiso   1.00
H839   H     0.59393   0.33669   0.51517   0.00000  Uiso   1.00
H840   H     0.65146   0.32729   0.55211   0.00000  Uiso   1.00
H841   H     0.62578   0.36560   0.57080   0.00000  Uiso   1.00
H842   H     0.62566   0.32265   0.59669   0.00000  Uiso   1.00
H843   H     0.74070   0.12706   0.48490   0.00000  Uiso   1.00
H844   H     0.72787   0.10393   0.44019   0.00000  Uiso   1.00
H845   H     0.77200   0.14316   0.40361   0.00000  Uiso   1.00
H846   H     0.55517   0.26981   0.40253   0.00000  Uiso   1.00
H847   H     0.73737   0.16947   0.42850   0.00000  Uiso   1.00
H848   H     0.78297   0.16690   0.44827   0.00000  Uiso   1.00
H849   H     0.77280   0.39371   0.56283   0.00000  Uiso   1.00
H850   H     0.76515   0.37697   0.51381   0.00000  Uiso   1.00
H851   H     0.72094   0.33151   0.53861   0.00000  Uiso   1.00
H852   H     0.76504   0.32660   0.56159   0.00000  Uiso   1.00
H853   H     0.72788   0.34786   0.58768   0.00000  Uiso   1.00
H854   H     0.85645   0.47851   0.93610   0.00000  Uiso   1.00
H855   H     0.87247   0.48486   0.98559   0.00000  Uiso   1.00
H856   H     0.91847   0.02928   0.96317   0.00000  Uiso   1.00
H857   H     0.94485   0.23056   0.59757   0.00000  Uiso   1.00
H858   H     0.92339   0.48612   0.93828   0.00000  Uiso   1.00
H859   H     0.90267   0.02443   0.91360   0.00000  Uiso   1.00
H860   H     0.62317   0.00973   0.01514   0.00000  Uiso   1.00
H861   H     0.64644   0.02233   0.05984   0.00000  Uiso   1.00
H862   H     0.60683   0.47852   0.09641   0.00000  Uiso   1.00
H863   H     0.58085   0.01344   0.07159   0.00000  Uiso   1.00
H864   H     0.58295   0.46785   0.05175   0.00000  Uiso   1.00
H865   H     0.91965   0.17960   0.94120   0.00000  Uiso   1.00
H866   H     0.91689   0.15295   0.98569   0.00000  Uiso   1.00
H867   H     0.92788   0.09621   0.94787   0.00000  Uiso   1.00
H868   H     0.73247   0.44407   0.40243   0.00000  Uiso   1.00
H869   H     0.88831   0.12062   0.93027   0.00000  Uiso   1.00
H870   H     0.93075   0.12264   0.90353   0.00000  Uiso   1.00
H871   H     0.58561   0.33876   0.01276   0.00000  Uiso   1.00
H872   H     0.58236   0.32224   0.06241   0.00000  Uiso   1.00
H873   H     0.57466   0.38645   0.08534   0.00000  Uiso   1.00
H874   H     0.61640   0.38078   0.05800   0.00000  Uiso   1.00
H875   H     0.57729   0.40230   0.03564   0.00000  Uiso   1.00
H876   H     0.66213   0.41478   0.98670   0.00000  Uiso   1.00
H877   H     0.67604   0.41833   0.93620   0.00000  Uiso   1.00
H878   H     0.61060   0.42665   0.91733   0.00000  Uiso   1.00
H879   H     0.76860   0.05562   0.59738   0.00000  Uiso   1.00
H880   H     0.61769   0.38453   0.94365   0.00000  Uiso   1.00
H881   H     0.59758   0.42340   0.96790   0.00000  Uiso   1.00
H882   H     0.82078   0.08014   0.05887   0.00000  Uiso   1.00
H883   H     0.84723   0.08279   0.01425   0.00000  Uiso   1.00
H884   H     0.90410   0.07159   0.05175   0.00000  Uiso   1.00
H885   H     0.87994   0.11127   0.06946   0.00000  Uiso   1.00
H886   H     0.87788   0.06885   0.09625   0.00000  Uiso   1.00
H887   H     0.99092   0.37695   0.98497   0.00000  Uiso   1.00
H888   H     0.97799   0.35357   0.94044   0.00000  Uiso   1.00
H889   H     0.52173   0.39288   0.90343   0.00000  Uiso   1.00
H890   H     0.69443   0.48120   0.90260   0.00000  Uiso   1.00
H891   H     0.98705   0.41908   0.92836   0.00000  Uiso   1.00
H892   H     0.53275   0.41688   0.94791   0.00000  Uiso   1.00
H893   H     0.52105   0.14350   0.06421   0.00000  Uiso   1.00
H894   H     0.51506   0.12772   0.01459   0.00000  Uiso   1.00
H895   H     0.97060   0.08156   0.03632   0.00000  Uiso   1.00
H896   H     0.51348   0.07662   0.06174   0.00000  Uiso   1.00
H897   H     0.97484   0.09719   0.08601   0.00000  Uiso   1.00
H898   H     0.69502   0.38477   0.17927   0.00000  Uiso   1.00
H899   H     0.67794   0.40201   0.13399   0.00000  Uiso   1.00
H900   H     0.65854   0.36092   0.15340   0.00000  Uiso   1.00
O901   O     0.75000  -0.00000   0.25000   0.00000  Uiso   1.00
O902   O     0.75000   0.46963   0.66245   0.00000  Uiso   1.00
O903   O     0.83906   0.10755   0.68091   0.00000  Uiso   1.00
O904   O     0.96964   0.25000   0.33755   0.00000  Uiso   1.00
O905   O     0.53037   0.25000   0.66245   0.00000  Uiso   1.00
O906   O     0.50000   0.21963   0.83755   0.00000  Uiso   1.00
O907   O     0.50000   0.28036   0.16245   0.00000  Uiso   1.00
O908   O     0.78037  -0.00000   0.83755   0.00000  Uiso   1.00
O909   O     0.71964  -0.00000   0.16245   0.00000  Uiso   1.00
O910   O     0.50000   0.28036   0.83755   0.00000  Uiso   1.00
O911   O     0.50000   0.21963   0.16245   0.00000  Uiso   1.00
O912   O     0.71964  -0.00000   0.83755   0.00000  Uiso   1.00
O913   O     0.75000  -0.00000   0.75000   0.00000  Uiso   1.00
O914   O     0.78037  -0.00000   0.16245   0.00000  Uiso   1.00
O915   O     0.70725   0.07307   0.27302   0.00000  Uiso   1.00
O916   O     0.79276   0.42692   0.72698   0.00000  Uiso   1.00
O917   O     0.92693   0.20724   0.27302   0.00000  Uiso   1.00
O918   O     0.57308   0.29275   0.72698   0.00000  Uiso   1.00
O919   O     0.79276   0.42692   0.27302   0.00000  Uiso   1.00
O920   O     0.70725   0.07307   0.72698   0.00000  Uiso   1.00
O921   O     0.57308   0.29275   0.27302   0.00000  Uiso   1.00
O922   O     0.92693   0.20724   0.72698   0.00000  Uiso   1.00
O923   O     0.70725   0.42692   0.72698   0.00000  Uiso   1.00
O924   O     0.50000   0.25000   0.25000   0.00000  Uiso   1.00
O925   O     0.79276   0.07307   0.27302   0.00000  Uiso   1.00
O926   O     0.92693   0.29275   0.72698   0.00000  Uiso   1.00
O927   O     0.57308   0.20724   0.27302   0.00000  Uiso   1.00
O928   O     0.79276   0.07307   0.72698   0.00000  Uiso   1.00
O929   O     0.70725   0.42692   0.27302   0.00000  Uiso   1.00
O930   O     0.57308   0.20724   0.72698   0.00000  Uiso   1.00
O931   O     0.92693   0.29275   0.27302   0.00000  Uiso   1.00
O932   O     0.95725   0.32307   0.77302   0.00000  Uiso   1.00
O933   O     0.54276   0.17692   0.22698   0.00000  Uiso   1.00
O934   O     0.67693   0.45724   0.77302   0.00000  Uiso   1.00
O935   O     0.50000   0.25000   0.75000   0.00000  Uiso   1.00
O936   O     0.82308   0.04275   0.22698   0.00000  Uiso   1.00
O937   O     0.54276   0.17692   0.77302   0.00000  Uiso   1.00
O938   O     0.95725   0.32307   0.22698   0.00000  Uiso   1.00
O939   O     0.82308   0.04275   0.77302   0.00000  Uiso   1.00
O940   O     0.67693   0.45724   0.22698   0.00000  Uiso   1.00
O941   O     0.95725   0.17692   0.22698   0.00000  Uiso   1.00
O942   O     0.54276   0.32307   0.77302   0.00000  Uiso   1.00
O943   O     0.67693   0.04275   0.22698   0.00000  Uiso   1.00
O944   O     0.82308   0.45724   0.77302   0.00000  Uiso   1.00
O945   O     0.54276   0.32307   0.22698   0.00000  Uiso   1.00
O946   O     0.75000   0.46963   0.33755   0.00000  Uiso   1.00
O947   O     0.95725   0.17692   0.77302   0.00000  Uiso   1.00
O948   O     0.82308   0.45724   0.22698   0.00000  Uiso   1.00
O949   O     0.67693   0.04275   0.77302   0.00000  Uiso   1.00
O950   O     0.59393   0.28414   0.46003   0.00000  Uiso   1.00
O951   O     0.90581   0.21743   0.54033   0.00000  Uiso   1.00
O952   O     0.71886   0.40481   0.46018   0.00000  Uiso   1.00
O953   O     0.78387   0.09397   0.53977   0.00000  Uiso   1.00
O954   O     0.90681   0.21420   0.46014   0.00000  Uiso   1.00
O955   O     0.59354   0.28485   0.54039   0.00000  Uiso   1.00
O956   O     0.78113   0.09466   0.45963   0.00000  Uiso   1.00
O957   O     0.75000   0.03036   0.66245   0.00000  Uiso   1.00
O958   O     0.72126   0.40437   0.54016   0.00000  Uiso   1.00
O959   O     0.84543   0.02944   0.96004   0.00000  Uiso   1.00
O960   O     0.65522   0.46899   0.04036   0.00000  Uiso   1.00
O961   O     0.96834   0.15541   0.95968   0.00000  Uiso   1.00
O962   O     0.53435   0.34385   0.03985   0.00000  Uiso   1.00
O963   O     0.65591   0.46630   0.96018   0.00000  Uiso   1.00
O964   O     0.84469   0.03136   0.04031   0.00000  Uiso   1.00
O965   O     0.53140   0.34466   0.95964   0.00000  Uiso   1.00
O966   O     0.97029   0.15465   0.03994   0.00000  Uiso   1.00
O967   O     0.64372   0.40980   0.18048   0.00000  Uiso   1.00
O968   O     0.53037   0.25000   0.33755   0.00000  Uiso   1.00
O969   O     0.85662   0.08996   0.81938   0.00000  Uiso   1.00
O970   O     0.64576   0.19828   0.25642   0.00000  Uiso   1.00
O971   O     0.85490   0.30186   0.74112   0.00000  Uiso   1.00
O972   O     0.85547   0.09094   0.18031   0.00000  Uiso   1.00
O973   O     0.64300   0.41043   0.81922   0.00000  Uiso   1.00
O974   O     0.90774   0.35418   0.18009   0.00000  Uiso   1.00
O975   O     0.58978   0.14309   0.81933   0.00000  Uiso   1.00
O976   O     0.64582   0.09225   0.81991   0.00000  Uiso   1.00
O977   O     0.85689   0.41021   0.18067   0.00000  Uiso   1.00
O978   O     0.59154   0.35490   0.81977   0.00000  Uiso   1.00
O979   O     0.96964   0.25000   0.66245   0.00000  Uiso   1.00
O980   O     0.91092   0.14243   0.18085   0.00000  Uiso   1.00
O981   O     0.80171   0.35423   0.74375   0.00000  Uiso   1.00
O982   O     0.69813   0.14509   0.25904   0.00000  Uiso   1.00
O983   O     0.90832   0.14530   0.81984   0.00000  Uiso   1.00
O984   O     0.58806   0.35862   0.18117   0.00000  Uiso   1.00
O985   O     0.89455   0.15901   0.68034   0.00000  Uiso   1.00
O986   O     0.60759   0.33907   0.31908   0.00000  Uiso   1.00
O987   O     0.89577   0.44829   0.75627   0.00000  Uiso   1.00
O988   O     0.60491   0.05187   0.24096   0.00000  Uiso   1.00
O989   O     0.60394   0.34240   0.68002   0.00000  Uiso   1.00
O990   O     0.75000   0.03036   0.33755   0.00000  Uiso   1.00
O991   O     0.89120   0.16211   0.31873   0.00000  Uiso   1.00
O992   O     0.65775   0.10418   0.68009   0.00000  Uiso   1.00
O993   O     0.83981   0.39312   0.31934   0.00000  Uiso   1.00
O994   O     0.89584   0.34227   0.31991   0.00000  Uiso   1.00
O995   O     0.60691   0.16022   0.68067   0.00000  Uiso   1.00
O996   O     0.84006   0.10643   0.31944   0.00000  Uiso   1.00
O997   O     0.65928   0.39417   0.68042   0.00000  Uiso   1.00
O998   O     0.55172   0.10424   0.24357   0.00000  Uiso   1.00
O999   O     0.94814   0.39510   0.75888   0.00000  Uiso   1.00
O1000  O     0.65872   0.39479   0.31973   0.00000  Uiso   1.00
Zn1001 Zn    0.70660  -0.00000   0.21735   0.00000  Uiso   1.00
Zn1002 Zn    0.54341   0.25000   0.28265   0.00000  Uiso   1.00
Zn1003 Zn    0.75000   0.45659   0.71735   0.00000  Uiso   1.00
Zn1004 Zn    0.75000   0.04340   0.28265   0.00000  Uiso   1.00
Zn1005 Zn    0.54341   0.25000   0.71735   0.00000  Uiso   1.00
Zn1006 Zn    0.95660   0.25000   0.28265   0.00000  Uiso   1.00
Zn1007 Zn    0.75000   0.04340   0.71735   0.00000  Uiso   1.00
Zn1008 Zn    0.75000   0.45659   0.28265   0.00000  Uiso   1.00
Zn1009 Zn    0.79341  -0.00000   0.78265   0.00000  Uiso   1.00
Zn1010 Zn    0.50000   0.20659   0.21735   0.00000  Uiso   1.00
Zn1011 Zn    0.50000   0.29340   0.78265   0.00000  Uiso   1.00
Zn1012 Zn    0.79341  -0.00000   0.21735   0.00000  Uiso   1.00
Zn1013 Zn    0.70660  -0.00000   0.78265   0.00000  Uiso   1.00
Zn1014 Zn    0.50000   0.29340   0.21735   0.00000  Uiso   1.00
Zn1015 Zn    0.50000   0.20659   0.78265   0.00000  Uiso   1.00
Zn1016 Zn    0.95660   0.25000   0.71735   0.00000  Uiso   1.00
C1017  C     0.46891   0.73861   0.41865   0.00000  Uiso   1.00
C1018  C     0.28154   0.51016   0.08147   0.00000  Uiso   1.00
C1019  C     0.26120   0.53162   0.54075   0.00000  Uiso   1.00
C1020  C     0.46863   0.73823   0.45926   0.00000  Uiso   1.00
C1021  C     0.03148   0.76179   0.54090   0.00000  Uiso   1.00
C1022  C     0.26018   0.53183   0.45912   0.00000  Uiso   1.00
C1023  C     0.24054   0.96778   0.54080   0.00000  Uiso   1.00
C1024  C     0.28214   0.50959   0.95923   0.00000  Uiso   1.00
C1025  C     0.21815   0.98961   0.04090   0.00000  Uiso   1.00
C1026  C     0.48949   0.71815   0.95913   0.00000  Uiso   1.00
C1027  C     0.01155   0.78156   0.04075   0.00000  Uiso   1.00
C1028  C     0.21837   0.98867   0.95925   0.00000  Uiso   1.00
C1029  C     0.01027   0.78145   0.91851   0.00000  Uiso   1.00
C1030  C     0.28188   0.51043   0.04087   0.00000  Uiso   1.00
C1031  C     0.01056   0.78180   0.95910   0.00000  Uiso   1.00
C1032  C     0.49033   0.71789   0.04077   0.00000  Uiso   1.00
C1033  C     0.09808   0.84828   0.25002   0.00000  Uiso   1.00
C1034  C     0.40191   0.65206   0.75003   0.00000  Uiso   1.00
C1035  C     0.15191   0.59809   0.25000   0.00000  Uiso   1.00
C1036  C     0.34805   0.90195   0.75000   0.00000  Uiso   1.00
C1037  C     0.40170   0.65194   0.24992   0.00000  Uiso   1.00
C1038  C     0.09792   0.84811   0.74997   0.00000  Uiso   1.00
C1039  C     0.34818   0.90182   0.25000   0.00000  Uiso   1.00
C1040  C     0.49035   0.71835   0.08137   0.00000  Uiso   1.00
C1041  C     0.15199   0.59801   0.75000   0.00000  Uiso   1.00
C1042  C     0.09818   0.65182   0.75000   0.00000  Uiso   1.00
C1043  C     0.40199   0.84801   0.25000   0.00000  Uiso   1.00
C1044  C     0.15171   0.90194   0.74992   0.00000  Uiso   1.00
C1045  C     0.34792   0.59811   0.24997   0.00000  Uiso   1.00
C1046  C     0.40191   0.84809   0.75000   0.00000  Uiso   1.00
C1047  C     0.09805   0.65195   0.25000   0.00000  Uiso   1.00
C1048  C     0.34809   0.59827   0.75006   0.00000  Uiso   1.00
C1049  C     0.15189   0.90209   0.25000   0.00000  Uiso   1.00
C1050  C     0.00008   0.74999   0.47967   0.00000  Uiso   1.00
C1051  C     0.28168   0.50956   0.91862   0.00000  Uiso   1.00
C1052  C    -0.00000   0.75026   0.52046   0.00000  Uiso   1.00
C1053  C     0.25005   0.99988   0.47957   0.00000  Uiso   1.00
C1054  C     0.25046   0.99980   0.52035   0.00000  Uiso   1.00
C1055  C     0.25017   0.99944   0.97966   0.00000  Uiso   1.00
C1056  C     0.25009   0.99976   0.02044   0.00000  Uiso   1.00
C1057  C     0.00030   0.74990   0.97955   0.00000  Uiso   1.00
C1058  C     0.00063   0.74981   0.02034   0.00000  Uiso   1.00
C1059  C     0.11889   0.75486   0.45734   0.00000  Uiso   1.00
C1060  C     0.15560   0.76939   0.44359   0.00000  Uiso   1.00
C1061  C     0.38257   0.74797   0.54431   0.00000  Uiso   1.00
C1062  C     0.21851   0.98986   0.08149   0.00000  Uiso   1.00
C1063  C     0.34936   0.73718   0.56822   0.00000  Uiso   1.00
C1064  C     0.18163   0.90645   0.44913   0.00000  Uiso   1.00
C1065  C     0.15787   0.88592   0.47822   0.00000  Uiso   1.00
C1066  C     0.32241   0.59357   0.54207   0.00000  Uiso   1.00
C1067  C     0.33581   0.63115   0.55433   0.00000  Uiso   1.00
C1068  C     0.40770   0.67565   0.45835   0.00000  Uiso   1.00
C1069  C     0.37125   0.66173   0.44321   0.00000  Uiso   1.00
C1070  C     0.09287   0.82323   0.54418   0.00000  Uiso   1.00
C1071  C     0.12605   0.83544   0.56742   0.00000  Uiso   1.00
C1072  C     0.25057   0.61788   0.45587   0.00000  Uiso   1.00
C1073  C     0.48975   0.71849   0.91853   0.00000  Uiso   1.00
C1074  C     0.26146   0.65145   0.43257   0.00000  Uiso   1.00
C1075  C     0.25226   0.88157   0.54277   0.00000  Uiso   1.00
C1076  C     0.24077   0.84457   0.55870   0.00000  Uiso   1.00
C1077  C     0.36829   0.99851   0.95695   0.00000  Uiso   1.00
C1078  C     0.40553   0.51038   0.94202   0.00000  Uiso   1.00
C1079  C     0.13228   0.99976   0.04416   0.00000  Uiso   1.00
C1080  C     0.09862   0.98918   0.06747   0.00000  Uiso   1.00
C1081  C     0.42990   0.65479   0.95648   0.00000  Uiso   1.00
C1082  C     0.41852   0.62145   0.93305   0.00000  Uiso   1.00
C1083  C     0.07290   0.84366   0.04177   0.00000  Uiso   1.00
C1084  C     0.01102   0.78131   0.08136   0.00000  Uiso   1.00
C1085  C     0.08613   0.88063   0.05615   0.00000  Uiso   1.00
C1086  C     0.15578   0.92775   0.95813   0.00000  Uiso   1.00
C1087  C     0.11804   0.91479   0.94592   0.00000  Uiso   1.00
C1088  C     0.34548   0.56980   0.04347   0.00000  Uiso   1.00
C1089  C     0.37897   0.58107   0.06671   0.00000  Uiso   1.00
C1090  C     0.00069   0.86770   0.95593   0.00000  Uiso   1.00
C1091  C     0.01127   0.90123   0.93240   0.00000  Uiso   1.00
C1092  C     0.00120   0.63176   0.04314   0.00000  Uiso   1.00
C1093  C     0.48923   0.59445   0.05777   0.00000  Uiso   1.00
C1094  C     0.16993   0.88809   0.16134   0.00000  Uiso   1.00
C1095  C     0.00005   0.74991   0.39840   0.00000  Uiso   1.00
C1096  C     0.38384   0.56458   0.83007   0.00000  Uiso   1.00
C1097  C     0.14337   0.71597   0.21994   0.00000  Uiso   1.00
C1098  C     0.35242   0.78414   0.77746   0.00000  Uiso   1.00
C1099  C     0.32838   0.61245   0.16232   0.00000  Uiso   1.00
C1100  C     0.11571   0.93598   0.82924   0.00000  Uiso   1.00
C1101  C     0.38574   0.82682   0.16326   0.00000  Uiso   1.00
C1102  C     0.06451   0.61564   0.82967   0.00000  Uiso   1.00
C1103  C     0.17317   0.61425   0.83675   0.00000  Uiso   1.00
C1104  C     0.38434   0.93548   0.17032   0.00000  Uiso   1.00
C1105  C     0.11351   0.82818   0.83774   0.00000  Uiso   1.00
C1106  C     0.00001   0.75015   0.60170   0.00000  Uiso   1.00
C1107  C     0.43642   0.61505   0.17102   0.00000  Uiso   1.00
C1108  C     0.28409   0.85670   0.78026   0.00000  Uiso   1.00
C1109  C     0.21590   0.64762   0.22273   0.00000  Uiso   1.00
C1110  C     0.38663   0.67258   0.83727   0.00000  Uiso   1.00
C1111  C     0.06229   0.88616   0.17266   0.00000  Uiso   1.00
C1112  C     0.42110   0.63716   0.66191   0.00000  Uiso   1.00
C1113  C     0.13492   0.81343   0.32864   0.00000  Uiso   1.00
C1114  C     0.39330   0.96594   0.71977   0.00000  Uiso   1.00
C1115  C     0.10238   0.53410   0.27726   0.00000  Uiso   1.00
C1116  C     0.07641   0.86424   0.66326   0.00000  Uiso   1.00
C1117  C     0.25001   0.99992   0.39833   0.00000  Uiso   1.00
C1118  C     0.36363   0.68788   0.32710   0.00000  Uiso   1.00
C1119  C     0.13575   0.57683   0.66325   0.00000  Uiso   1.00
C1120  C     0.31454   0.86567   0.32970   0.00000  Uiso   1.00
C1121  C     0.42321   0.86427   0.33673   0.00000  Uiso   1.00
C1122  C     0.13436   0.68549   0.67034   0.00000  Uiso   1.00
C1123  C     0.36178   0.58033   0.33874   0.00000  Uiso   1.00
C1124  C     0.18452   0.86709   0.66901   0.00000  Uiso   1.00
C1125  C     0.03403   0.60662   0.28005   0.00000  Uiso   1.00
C1126  C     0.46585   0.89759   0.72253   0.00000  Uiso   1.00
C1127  C     0.13723   0.92219   0.33721   0.00000  Uiso   1.00
C1128  C     0.03121   0.76126   0.58151   0.00000  Uiso   1.00
C1129  C     0.25039   0.99992   0.60161   0.00000  Uiso   1.00
C1130  C     0.31347   0.63493   0.67129   0.00000  Uiso   1.00
C1131  C     0.25006   0.99964   0.89840   0.00000  Uiso   1.00
C1132  C     0.25003   0.99999   0.10169   0.00000  Uiso   1.00
C1133  C     0.00002   0.74997   0.89831   0.00000  Uiso   1.00
C1134  C     0.00040   0.74993   0.10160   0.00000  Uiso   1.00
C1135  C     0.06315   0.77234   0.47972   0.00000  Uiso   1.00
C1136  C     0.43686   0.72825   0.52050   0.00000  Uiso   1.00
C1137  C     0.22868   0.93644   0.47967   0.00000  Uiso   1.00
C1138  C     0.27247   0.56297   0.52022   0.00000  Uiso   1.00
C1139  C     0.43755   0.72618   0.47977   0.00000  Uiso   1.00
C1140  C     0.25992   0.53149   0.41854   0.00000  Uiso   1.00
C1141  C     0.06256   0.77386   0.52051   0.00000  Uiso   1.00
C1142  C     0.27047   0.56356   0.47948   0.00000  Uiso   1.00
C1143  C     0.23084   0.93585   0.52038   0.00000  Uiso   1.00
C1144  C     0.31399   0.51950   0.97969   0.00000  Uiso   1.00
C1145  C     0.18641   0.97940   0.02051   0.00000  Uiso   1.00
C1146  C     0.47850   0.68668   0.97954   0.00000  Uiso   1.00
C1147  C     0.02297   0.81287   0.02024   0.00000  Uiso   1.00
C1148  C     0.18700   0.97742   0.97977   0.00000  Uiso   1.00
C1149  C     0.31339   0.52131   0.02046   0.00000  Uiso   1.00
C1150  C     0.02094   0.81350   0.97949   0.00000  Uiso   1.00
C1151  C     0.24065   0.96823   0.58140   0.00000  Uiso   1.00
C1152  C     0.48031   0.68607   0.02030   0.00000  Uiso   1.00
C1153  C     0.25002   0.99998   0.35594   0.00000  Uiso   1.00
C1154  C     0.25007   0.99999   0.64404   0.00000  Uiso   1.00
C1155  C     0.00001   0.75000   0.35596   0.00000  Uiso   1.00
C1156  C     0.00001   0.75002   0.64407   0.00000  Uiso   1.00
C1157  C     0.00000   0.74999   0.85593   0.00000  Uiso   1.00
C1158  C     0.00006   0.74999   0.14403   0.00000  Uiso   1.00
C1159  C     0.25000   0.99994   0.85596   0.00000  Uiso   1.00
C1160  C     0.25001   0.50000   0.14406   0.00000  Uiso   1.00
C1161  C     0.17998   0.57002   0.25000   0.00000  Uiso   1.00
C1162  C     0.03130   0.76098   0.41862   0.00000  Uiso   1.00
C1163  C     0.32001   0.92999   0.75000   0.00000  Uiso   1.00
C1164  C     0.42991   0.67997   0.24997   0.00000  Uiso   1.00
C1165  C     0.06998   0.82001   0.75000   0.00000  Uiso   1.00
C1166  C     0.32006   0.92994   0.25000   0.00000  Uiso   1.00
C1167  C     0.18001   0.56999   0.75000   0.00000  Uiso   1.00
C1168  C     0.07004   0.82007   0.25000   0.00000  Uiso   1.00
C1169  C     0.42999   0.68002   0.75000   0.00000  Uiso   1.00
C1170  C     0.17992   0.92997   0.74997   0.00000  Uiso   1.00
C1171  C     0.31998   0.57000   0.25000   0.00000  Uiso   1.00
C1172  C     0.42999   0.82002   0.75000   0.00000  Uiso   1.00
C1173  C     0.46874   0.73933   0.58149   0.00000  Uiso   1.00
C1174  C     0.07001   0.67999   0.25000   0.00000  Uiso   1.00
C1175  C     0.32004   0.57008   0.75002   0.00000  Uiso   1.00
C1176  C     0.18000   0.93001   0.24998   0.00000  Uiso   1.00
C1177  C     0.07006   0.67994   0.75000   0.00000  Uiso   1.00
C1178  C     0.43001   0.81999   0.25000   0.00000  Uiso   1.00
C1179  C     0.13427   0.89286   0.21502   0.00000  Uiso   1.00
C1180  C     0.36663   0.60662   0.78484   0.00000  Uiso   1.00
C1181  C     0.13515   0.66210   0.25278   0.00000  Uiso   1.00
C1182  C     0.36490   0.83796   0.74683   0.00000  Uiso   1.00
C1183  C     0.36537   0.60747   0.21493   0.00000  Uiso   1.00
C1184  C     0.24006   0.96833   0.41854   0.00000  Uiso   1.00
C1185  C     0.13329   0.89347   0.78474   0.00000  Uiso   1.00
C1186  C     0.39197   0.86482   0.21484   0.00000  Uiso   1.00
C1187  C     0.10662   0.63334   0.78481   0.00000  Uiso   1.00
C1188  C     0.13518   0.60802   0.78515   0.00000  Uiso   1.00
C1189  C     0.36666   0.89337   0.21519   0.00000  Uiso   1.00
C1190  C     0.10782   0.86505   0.78510   0.00000  Uiso   1.00
C1191  C     0.39379   0.63294   0.21530   0.00000  Uiso   1.00
C1192  C     0.33790   0.86485   0.74730   0.00000  Uiso   1.00
C1193  C     0.16204   0.63510   0.25325   0.00000  Uiso   1.00
C1194  C     0.39213   0.63502   0.78516   0.00000  Uiso   1.00
C1195  C     0.26070   0.53139   0.58135   0.00000  Uiso   1.00
C1196  C     0.10583   0.86744   0.21545   0.00000  Uiso   1.00
C1197  C     0.38467   0.64246   0.71495   0.00000  Uiso   1.00
C1198  C     0.11701   0.85627   0.28466   0.00000  Uiso   1.00
C1199  C     0.38516   0.91210   0.75270   0.00000  Uiso   1.00
C1200  C     0.11490   0.58796   0.24675   0.00000  Uiso   1.00
C1201  C     0.11462   0.85821   0.71475   0.00000  Uiso   1.00
C1202  C     0.38247   0.64426   0.28446   0.00000  Uiso   1.00
C1203  C     0.14198   0.61482   0.71485   0.00000  Uiso   1.00
C1204  C     0.35664   0.88335   0.28481   0.00000  Uiso   1.00
C1205  C     0.38519   0.85803   0.28516   0.00000  Uiso   1.00
C1206  C     0.21862   0.98918   0.91864   0.00000  Uiso   1.00
C1207  C     0.11666   0.64338   0.71520   0.00000  Uiso   1.00
C1208  C     0.35707   0.61581   0.28492   0.00000  Uiso   1.00
C1209  C     0.14302   0.88373   0.71503   0.00000  Uiso   1.00
C1210  C     0.08791   0.61485   0.24722   0.00000  Uiso   1.00
C1211  C     0.41205   0.88511   0.75317   0.00000  Uiso   1.00
C1212  C     0.14243   0.88472   0.28505   0.00000  Uiso   1.00
C1213  C     0.35626   0.61699   0.71533   0.00000  Uiso   1.00
C1214  C     0.03170   0.76121   0.45923   0.00000  Uiso   1.00
C1215  C     0.46835   0.73920   0.54090   0.00000  Uiso   1.00
C1216  C     0.23947   0.96803   0.45916   0.00000  Uiso   1.00
H1217  H     0.44501   0.72982   0.40259   0.00000  Uiso   1.00
H1218  H     0.30570   0.51819   0.09754   0.00000  Uiso   1.00
H1219  H     0.39118   0.54596   0.80567   0.00000  Uiso   1.00
H1220  H     0.37297   0.54737   0.85394   0.00000  Uiso   1.00
H1221  H     0.40861   0.57863   0.84116   0.00000  Uiso   1.00
H1222  H     0.11653   0.72970   0.21683   0.00000  Uiso   1.00
H1223  H     0.14786   0.69749   0.19460   0.00000  Uiso   1.00
H1224  H     0.16466   0.73749   0.21871   0.00000  Uiso   1.00
H1225  H     0.37771   0.78723   0.79510   0.00000  Uiso   1.00
H1226  H     0.34843   0.75450   0.77231   0.00000  Uiso   1.00
H1227  H     0.32848   0.79407   0.79414   0.00000  Uiso   1.00
H1228  H     0.30379   0.61535   0.18112   0.00000  Uiso   1.00
H1229  H     0.01844   0.80555   0.90242   0.00000  Uiso   1.00
H1230  H     0.31965   0.59864   0.13517   0.00000  Uiso   1.00
H1231  H     0.33921   0.63981   0.15424   0.00000  Uiso   1.00
H1232  H     0.10837   0.95411   0.80442   0.00000  Uiso   1.00
H1233  H     0.12643   0.95373   0.85274   0.00000  Uiso   1.00
H1234  H     0.09093   0.92205   0.84052   0.00000  Uiso   1.00
H1235  H     0.38371   0.80240   0.18242   0.00000  Uiso   1.00
H1236  H     0.39858   0.81795   0.13562   0.00000  Uiso   1.00
H1237  H     0.35801   0.83737   0.15624   0.00000  Uiso   1.00
H1238  H     0.04519   0.60946   0.80554   0.00000  Uiso   1.00
H1239  H     0.04809   0.62558   0.85462   0.00000  Uiso   1.00
H1240  H     0.48209   0.69426   0.09744   0.00000  Uiso   1.00
H1241  H     0.07861   0.59028   0.83910   0.00000  Uiso   1.00
H1242  H     0.19759   0.61627   0.81759   0.00000  Uiso   1.00
H1243  H     0.18203   0.60140   0.86438   0.00000  Uiso   1.00
H1244  H     0.16262   0.64198   0.84377   0.00000  Uiso   1.00
H1245  H     0.39052   0.95481   0.19444   0.00000  Uiso   1.00
H1246  H     0.37440   0.95190   0.14537   0.00000  Uiso   1.00
H1247  H     0.40969   0.92139   0.16088   0.00000  Uiso   1.00
H1248  H     0.11630   0.80347   0.81913   0.00000  Uiso   1.00
H1249  H     0.10014   0.81964   0.86522   0.00000  Uiso   1.00
H1250  H     0.14091   0.83926   0.84528   0.00000  Uiso   1.00
H1251  H     0.30581   0.51768   0.90256   0.00000  Uiso   1.00
H1252  H     0.45467   0.60801   0.19584   0.00000  Uiso   1.00
H1253  H     0.45400   0.62556   0.14728   0.00000  Uiso   1.00
H1254  H     0.42249   0.59014   0.16007   0.00000  Uiso   1.00
H1255  H     0.27033   0.88353   0.78331   0.00000  Uiso   1.00
H1256  H     0.30261   0.85229   0.80557   0.00000  Uiso   1.00
H1257  H     0.26258   0.83540   0.78160   0.00000  Uiso   1.00
H1258  H     0.21277   0.62240   0.20500   0.00000  Uiso   1.00
H1259  H     0.24554   0.65152   0.22794   0.00000  Uiso   1.00
H1260  H     0.20605   0.67164   0.20612   0.00000  Uiso   1.00
H1261  H     0.38404   0.69701   0.81820   0.00000  Uiso   1.00
H1262  H     0.19438   0.98177   0.09757   0.00000  Uiso   1.00
H1263  H     0.40010   0.68148   0.86455   0.00000  Uiso   1.00
H1264  H     0.35914   0.66188   0.84504   0.00000  Uiso   1.00
H1265  H     0.04474   0.89281   0.19817   0.00000  Uiso   1.00
H1266  H     0.04398   0.87608   0.14932   0.00000  Uiso   1.00
H1267  H     0.07595   0.91124   0.16178   0.00000  Uiso   1.00
H1268  H     0.44596   0.63419   0.68027   0.00000  Uiso   1.00
H1269  H     0.42942   0.65076   0.63448   0.00000  Uiso   1.00
H1270  H     0.40994   0.60984   0.65422   0.00000  Uiso   1.00
H1271  H     0.14215   0.79554   0.30357   0.00000  Uiso   1.00
H1272  H     0.12426   0.79545   0.35196   0.00000  Uiso   1.00
H1273  H     0.48163   0.69437   0.90246   0.00000  Uiso   1.00
H1274  H     0.15974   0.82724   0.33999   0.00000  Uiso   1.00
H1275  H     0.36648   0.97973   0.71675   0.00000  Uiso   1.00
H1276  H     0.39766   0.94743   0.69444   0.00000  Uiso   1.00
H1277  H     0.41463   0.98742   0.71843   0.00000  Uiso   1.00
H1278  H     0.12762   0.53720   0.29498   0.00000  Uiso   1.00
H1279  H     0.09846   0.50446   0.27204   0.00000  Uiso   1.00
H1280  H     0.07838   0.54396   0.29389   0.00000  Uiso   1.00
H1281  H     0.05227   0.86671   0.68276   0.00000  Uiso   1.00
H1282  H     0.06707   0.85099   0.63603   0.00000  Uiso   1.00
H1283  H     0.08703   0.89178   0.65555   0.00000  Uiso   1.00
H1284  H     0.01913   0.80546   0.09741   0.00000  Uiso   1.00
H1285  H     0.35710   0.70544   0.30156   0.00000  Uiso   1.00
H1286  H     0.37359   0.70617   0.35051   0.00000  Uiso   1.00
H1287  H     0.33848   0.67422   0.33784   0.00000  Uiso   1.00
H1288  H     0.13373   0.55241   0.68242   0.00000  Uiso   1.00
H1289  H     0.14860   0.56797   0.63562   0.00000  Uiso   1.00
H1290  H     0.10802   0.58738   0.65623   0.00000  Uiso   1.00
H1291  H     0.29521   0.85948   0.30558   0.00000  Uiso   1.00
H1292  H     0.29813   0.87561   0.35465   0.00000  Uiso   1.00
H1293  H     0.32864   0.84031   0.33914   0.00000  Uiso   1.00
H1294  H     0.44762   0.86629   0.31756   0.00000  Uiso   1.00
H1295  H     0.10890   0.73435   0.43596   0.00000  Uiso   1.00
H1296  H     0.43208   0.85143   0.36437   0.00000  Uiso   1.00
H1297  H     0.41266   0.89200   0.34375   0.00000  Uiso   1.00
H1298  H     0.14054   0.70482   0.69447   0.00000  Uiso   1.00
H1299  H     0.12443   0.70192   0.64539   0.00000  Uiso   1.00
H1300  H     0.15972   0.67140   0.66090   0.00000  Uiso   1.00
H1301  H     0.36520   0.55520   0.32091   0.00000  Uiso   1.00
H1302  H     0.34780   0.57236   0.36607   0.00000  Uiso   1.00
H1303  H     0.38890   0.59180   0.34673   0.00000  Uiso   1.00
H1304  H     0.20352   0.85956   0.69301   0.00000  Uiso   1.00
H1305  H     0.20133   0.87820   0.64495   0.00000  Uiso   1.00
H1306  H     0.12333   0.74116   0.48590   0.00000  Uiso   1.00
H1307  H     0.17034   0.84238   0.65791   0.00000  Uiso   1.00
H1308  H     0.02029   0.63345   0.28315   0.00000  Uiso   1.00
H1309  H     0.05251   0.60214   0.30538   0.00000  Uiso   1.00
H1310  H     0.01252   0.58533   0.28128   0.00000  Uiso   1.00
H1311  H     0.46285   0.87226   0.70494   0.00000  Uiso   1.00
H1312  H     0.49548   0.90168   0.72769   0.00000  Uiso   1.00
H1313  H     0.45585   0.92147   0.70581   0.00000  Uiso   1.00
H1314  H     0.13463   0.94662   0.31813   0.00000  Uiso   1.00
H1315  H     0.15086   0.93113   0.36439   0.00000  Uiso   1.00
H1316  H     0.10974   0.91161   0.34514   0.00000  Uiso   1.00
H1317  H     0.16657   0.78913   0.46513   0.00000  Uiso   1.00
H1318  H     0.29544   0.64202   0.69628   0.00000  Uiso   1.00
H1319  H     0.29563   0.62445   0.64775   0.00000  Uiso   1.00
H1320  H     0.32734   0.65983   0.66022   0.00000  Uiso   1.00
H1321  H     0.05515   0.76988   0.59761   0.00000  Uiso   1.00
H1322  H     0.17523   0.74648   0.44036   0.00000  Uiso   1.00
H1323  H     0.15251   0.78332   0.41514   0.00000  Uiso   1.00
H1324  H     0.37299   0.75765   0.51535   0.00000  Uiso   1.00
H1325  H     0.39666   0.77081   0.55963   0.00000  Uiso   1.00
H1326  H     0.35808   0.72662   0.59703   0.00000  Uiso   1.00
H1327  H     0.33148   0.76132   0.57261   0.00000  Uiso   1.00
H1328  H     0.33359   0.71573   0.55281   0.00000  Uiso   1.00
H1329  H     0.17894   0.89268   0.42051   0.00000  Uiso   1.00
H1330  H     0.17094   0.93477   0.44516   0.00000  Uiso   1.00
H1331  H     0.15666   0.90098   0.50617   0.00000  Uiso   1.00
H1332  H     0.26791   0.55566   0.40246   0.00000  Uiso   1.00
H1333  H     0.12968   0.88332   0.46664   0.00000  Uiso   1.00
H1334  H     0.16909   0.85817   0.48337   0.00000  Uiso   1.00
H1335  H     0.33544   0.58704   0.51358   0.00000  Uiso   1.00
H1336  H     0.33144   0.57321   0.56408   0.00000  Uiso   1.00
H1337  H     0.32382   0.63881   0.58280   0.00000  Uiso   1.00
H1338  H     0.36604   0.63106   0.55691   0.00000  Uiso   1.00
H1339  H     0.32769   0.65167   0.53221   0.00000  Uiso   1.00
H1340  H     0.41226   0.66315   0.48751   0.00000  Uiso   1.00
H1341  H     0.42966   0.66649   0.43821   0.00000  Uiso   1.00
H1342  H     0.36579   0.67303   0.41386   0.00000  Uiso   1.00
H1343  H     0.23270   0.94405   0.59747   0.00000  Uiso   1.00
H1344  H     0.37168   0.63145   0.44143   0.00000  Uiso   1.00
H1345  H     0.34903   0.67020   0.46322   0.00000  Uiso   1.00
H1346  H     0.06788   0.83240   0.55990   0.00000  Uiso   1.00
H1347  H     0.09393   0.83669   0.51517   0.00000  Uiso   1.00
H1348  H     0.15146   0.82729   0.55211   0.00000  Uiso   1.00
H1349  H     0.12578   0.86560   0.57080   0.00000  Uiso   1.00
H1350  H     0.12566   0.82265   0.59669   0.00000  Uiso   1.00
H1351  H     0.24070   0.62706   0.48490   0.00000  Uiso   1.00
H1352  H     0.22787   0.60393   0.44019   0.00000  Uiso   1.00
H1353  H     0.27200   0.64316   0.40361   0.00000  Uiso   1.00
H1354  H     0.05517   0.76981   0.40253   0.00000  Uiso   1.00
H1355  H     0.23737   0.66947   0.42850   0.00000  Uiso   1.00
H1356  H     0.28297   0.66690   0.44827   0.00000  Uiso   1.00
H1357  H     0.27280   0.89371   0.56283   0.00000  Uiso   1.00
H1358  H     0.26515   0.87697   0.51381   0.00000  Uiso   1.00
H1359  H     0.22094   0.83151   0.53861   0.00000  Uiso   1.00
H1360  H     0.26504   0.82660   0.56159   0.00000  Uiso   1.00
H1361  H     0.22788   0.84786   0.58768   0.00000  Uiso   1.00
H1362  H     0.35645   0.97851   0.93610   0.00000  Uiso   1.00
H1363  H     0.37247   0.98486   0.98559   0.00000  Uiso   1.00
H1364  H     0.41847   0.52928   0.96317   0.00000  Uiso   1.00
H1365  H     0.44485   0.73056   0.59757   0.00000  Uiso   1.00
H1366  H     0.42339   0.98612   0.93828   0.00000  Uiso   1.00
H1367  H     0.40267   0.52443   0.91360   0.00000  Uiso   1.00
H1368  H     0.12317   0.50973   0.01514   0.00000  Uiso   1.00
H1369  H     0.14644   0.52233   0.05984   0.00000  Uiso   1.00
H1370  H     0.10683   0.97852   0.09641   0.00000  Uiso   1.00
H1371  H     0.08085   0.51344   0.07159   0.00000  Uiso   1.00
H1372  H     0.08295   0.96785   0.05175   0.00000  Uiso   1.00
H1373  H     0.41965   0.67960   0.94120   0.00000  Uiso   1.00
H1374  H     0.41689   0.65295   0.98569   0.00000  Uiso   1.00
H1375  H     0.42788   0.59621   0.94787   0.00000  Uiso   1.00
H1376  H     0.23247   0.94407   0.40243   0.00000  Uiso   1.00
H1377  H     0.38831   0.62062   0.93027   0.00000  Uiso   1.00
H1378  H     0.43075   0.62264   0.90353   0.00000  Uiso   1.00
H1379  H     0.08561   0.83876   0.01276   0.00000  Uiso   1.00
H1380  H     0.08236   0.82224   0.06241   0.00000  Uiso   1.00
H1381  H     0.07466   0.88645   0.08534   0.00000  Uiso   1.00
H1382  H     0.11640   0.88078   0.05800   0.00000  Uiso   1.00
H1383  H     0.07729   0.90230   0.03564   0.00000  Uiso   1.00
H1384  H     0.16213   0.91478   0.98670   0.00000  Uiso   1.00
H1385  H     0.17604   0.91833   0.93620   0.00000  Uiso   1.00
H1386  H     0.11060   0.92665   0.91733   0.00000  Uiso   1.00
H1387  H     0.26860   0.55562   0.59738   0.00000  Uiso   1.00
H1388  H     0.11769   0.88453   0.94365   0.00000  Uiso   1.00
H1389  H     0.09758   0.92340   0.96790   0.00000  Uiso   1.00
H1390  H     0.32078   0.58014   0.05887   0.00000  Uiso   1.00
H1391  H     0.34723   0.58279   0.01425   0.00000  Uiso   1.00
H1392  H     0.40410   0.57159   0.05175   0.00000  Uiso   1.00
H1393  H     0.37994   0.61127   0.06946   0.00000  Uiso   1.00
H1394  H     0.37788   0.56885   0.09625   0.00000  Uiso   1.00
H1395  H     0.49092   0.87695   0.98497   0.00000  Uiso   1.00
H1396  H     0.47799   0.85357   0.94044   0.00000  Uiso   1.00
H1397  H     0.02173   0.89288   0.90343   0.00000  Uiso   1.00
H1398  H     0.19443   0.98120   0.90260   0.00000  Uiso   1.00
H1399  H     0.48705   0.91908   0.92836   0.00000  Uiso   1.00
H1400  H     0.03275   0.91688   0.94791   0.00000  Uiso   1.00
H1401  H     0.02105   0.64350   0.06421   0.00000  Uiso   1.00
H1402  H     0.01506   0.62772   0.01459   0.00000  Uiso   1.00
H1403  H     0.47060   0.58156   0.03632   0.00000  Uiso   1.00
H1404  H     0.01348   0.57662   0.06174   0.00000  Uiso   1.00
H1405  H     0.47484   0.59719   0.08601   0.00000  Uiso   1.00
H1406  H     0.19502   0.88477   0.17927   0.00000  Uiso   1.00
H1407  H     0.17794   0.90201   0.13399   0.00000  Uiso   1.00
H1408  H     0.15854   0.86092   0.15340   0.00000  Uiso   1.00
O1409  O     0.25000   0.50000   0.25000   0.00000  Uiso   1.00
O1410  O     0.25000   0.96963   0.66245   0.00000  Uiso   1.00
O1411  O     0.33906   0.60755   0.68091   0.00000  Uiso   1.00
O1412  O     0.46964   0.75000   0.33755   0.00000  Uiso   1.00
O1413  O     0.03037   0.75000   0.66245   0.00000  Uiso   1.00
O1414  O     0.00000   0.71963   0.83755   0.00000  Uiso   1.00
O1415  O     0.00000   0.78036   0.16245   0.00000  Uiso   1.00
O1416  O     0.28037   0.50000   0.83755   0.00000  Uiso   1.00
O1417  O     0.21964   0.50000   0.16245   0.00000  Uiso   1.00
O1418  O     0.00000   0.78036   0.83755   0.00000  Uiso   1.00
O1419  O     0.00000   0.71963   0.16245   0.00000  Uiso   1.00
O1420  O     0.21964   0.50000   0.83755   0.00000  Uiso   1.00
O1421  O     0.25000   0.50000   0.75000   0.00000  Uiso   1.00
O1422  O     0.28037   0.50000   0.16245   0.00000  Uiso   1.00
O1423  O     0.20725   0.57307   0.27302   0.00000  Uiso   1.00
O1424  O     0.29276   0.92692   0.72698   0.00000  Uiso   1.00
O1425  O     0.42693   0.70724   0.27302   0.00000  Uiso   1.00
O1426  O     0.07308   0.79275   0.72698   0.00000  Uiso   1.00
O1427  O     0.29276   0.92692   0.27302   0.00000  Uiso   1.00
O1428  O     0.20725   0.57307   0.72698   0.00000  Uiso   1.00
O1429  O     0.07308   0.79275   0.27302   0.00000  Uiso   1.00
O1430  O     0.42693   0.70724   0.72698   0.00000  Uiso   1.00
O1431  O     0.20725   0.92692   0.72698   0.00000  Uiso   1.00
O1432  O     0.00000   0.75000   0.25000   0.00000  Uiso   1.00
O1433  O     0.29276   0.57307   0.27302   0.00000  Uiso   1.00
O1434  O     0.42693   0.79275   0.72698   0.00000  Uiso   1.00
O1435  O     0.07308   0.70724   0.27302   0.00000  Uiso   1.00
O1436  O     0.29276   0.57307   0.72698   0.00000  Uiso   1.00
O1437  O     0.20725   0.92692   0.27302   0.00000  Uiso   1.00
O1438  O     0.07308   0.70724   0.72698   0.00000  Uiso   1.00
O1439  O     0.42693   0.79275   0.27302   0.00000  Uiso   1.00
O1440  O     0.45725   0.82307   0.77302   0.00000  Uiso   1.00
O1441  O     0.04276   0.67692   0.22698   0.00000  Uiso   1.00
O1442  O     0.17693   0.95724   0.77302   0.00000  Uiso   1.00
O1443  O     0.00000   0.75000   0.75000   0.00000  Uiso   1.00
O1444  O     0.32308   0.54275   0.22698   0.00000  Uiso   1.00
O1445  O     0.04276   0.67692   0.77302   0.00000  Uiso   1.00
O1446  O     0.45725   0.82307   0.22698   0.00000  Uiso   1.00
O1447  O     0.32308   0.54275   0.77302   0.00000  Uiso   1.00
O1448  O     0.17693   0.95724   0.22698   0.00000  Uiso   1.00
O1449  O     0.45725   0.67692   0.22698   0.00000  Uiso   1.00
O1450  O     0.04276   0.82307   0.77302   0.00000  Uiso   1.00
O1451  O     0.17693   0.54275   0.22698   0.00000  Uiso   1.00
O1452  O     0.32308   0.95724   0.77302   0.00000  Uiso   1.00
O1453  O     0.04276   0.82307   0.22698   0.00000  Uiso   1.00
O1454  O     0.25000   0.96963   0.33755   0.00000  Uiso   1.00
O1455  O     0.45725   0.67692   0.77302   0.00000  Uiso   1.00
O1456  O     0.32308   0.95724   0.22698   0.00000  Uiso   1.00
O1457  O     0.17693   0.54275   0.77302   0.00000  Uiso   1.00
O1458  O     0.09393   0.78414   0.46003   0.00000  Uiso   1.00
O1459  O     0.40581   0.71743   0.54033   0.00000  Uiso   1.00
O1460  O     0.21886   0.90481   0.46018   0.00000  Uiso   1.00
O1461  O     0.28387   0.59397   0.53977   0.00000  Uiso   1.00
O1462  O     0.40681   0.71420   0.46014   0.00000  Uiso   1.00
O1463  O     0.09354   0.78485   0.54039   0.00000  Uiso   1.00
O1464  O     0.28113   0.59466   0.45963   0.00000  Uiso   1.00
O1465  O     0.25000   0.53036   0.66245   0.00000  Uiso   1.00
O1466  O     0.22126   0.90437   0.54016   0.00000  Uiso   1.00
O1467  O     0.34543   0.52944   0.96004   0.00000  Uiso   1.00
O1468  O     0.15522   0.96899   0.04036   0.00000  Uiso   1.00
O1469  O     0.46834   0.65541   0.95968   0.00000  Uiso   1.00
O1470  O     0.03435   0.84385   0.03985   0.00000  Uiso   1.00
O1471  O     0.15591   0.96630   0.96018   0.00000  Uiso   1.00
O1472  O     0.34469   0.53136   0.04031   0.00000  Uiso   1.00
O1473  O     0.03140   0.84466   0.95964   0.00000  Uiso   1.00
O1474  O     0.47029   0.65465   0.03994   0.00000  Uiso   1.00
O1475  O     0.14372   0.90980   0.18048   0.00000  Uiso   1.00
O1476  O     0.03037   0.75000   0.33755   0.00000  Uiso   1.00
O1477  O     0.35662   0.58996   0.81938   0.00000  Uiso   1.00
O1478  O     0.14576   0.69828   0.25642   0.00000  Uiso   1.00
O1479  O     0.35490   0.80186   0.74112   0.00000  Uiso   1.00
O1480  O     0.35547   0.59094   0.18031   0.00000  Uiso   1.00
O1481  O     0.14300   0.91043   0.81922   0.00000  Uiso   1.00
O1482  O     0.40774   0.85418   0.18009   0.00000  Uiso   1.00
O1483  O     0.08978   0.64309   0.81933   0.00000  Uiso   1.00
O1484  O     0.14582   0.59225   0.81991   0.00000  Uiso   1.00
O1485  O     0.35689   0.91021   0.18067   0.00000  Uiso   1.00
O1486  O     0.09154   0.85490   0.81977   0.00000  Uiso   1.00
O1487  O     0.46964   0.75000   0.66245   0.00000  Uiso   1.00
O1488  O     0.41092   0.64243   0.18085   0.00000  Uiso   1.00
O1489  O     0.30171   0.85423   0.74375   0.00000  Uiso   1.00
O1490  O     0.19813   0.64509   0.25904   0.00000  Uiso   1.00
O1491  O     0.40832   0.64530   0.81984   0.00000  Uiso   1.00
O1492  O     0.08806   0.85862   0.18117   0.00000  Uiso   1.00
O1493  O     0.39455   0.65901   0.68034   0.00000  Uiso   1.00
O1494  O     0.10759   0.83907   0.31908   0.00000  Uiso   1.00
O1495  O     0.39577   0.94829   0.75627   0.00000  Uiso   1.00
O1496  O     0.10491   0.55187   0.24096   0.00000  Uiso   1.00
O1497  O     0.10394   0.84240   0.68002   0.00000  Uiso   1.00
O1498  O     0.25000   0.53036   0.33755   0.00000  Uiso   1.00
O1499  O     0.39120   0.66211   0.31873   0.00000  Uiso   1.00
O1500  O     0.15775   0.60418   0.68009   0.00000  Uiso   1.00
O1501  O     0.33981   0.89312   0.31934   0.00000  Uiso   1.00
O1502  O     0.39584   0.84227   0.31991   0.00000  Uiso   1.00
O1503  O     0.10691   0.66022   0.68067   0.00000  Uiso   1.00
O1504  O     0.34006   0.60643   0.31944   0.00000  Uiso   1.00
O1505  O     0.15928   0.89417   0.68042   0.00000  Uiso   1.00
O1506  O     0.05172   0.60424   0.24357   0.00000  Uiso   1.00
O1507  O     0.44814   0.89510   0.75888   0.00000  Uiso   1.00
O1508  O     0.15872   0.89479   0.31973   0.00000  Uiso   1.00
Zn1509 Zn    0.20660   0.50000   0.21735   0.00000  Uiso   1.00
Zn1510 Zn    0.04341   0.75000   0.28265   0.00000  Uiso   1.00
Zn1511 Zn    0.25000   0.95659   0.71735   0.00000  Uiso   1.00
Zn1512 Zn    0.25000   0.54340   0.28265   0.00000  Uiso   1.00
Zn1513 Zn    0.04341   0.75000   0.71735   0.00000  Uiso   1.00
Zn1514 Zn    0.45660   0.75000   0.28265   0.00000  Uiso   1.00
Zn1515 Zn    0.25000   0.54340   0.71735   0.00000  Uiso   1.00
Zn1516 Zn    0.25000   0.95659   0.28265   0.00000  Uiso   1.00
Zn1517 Zn    0.29341   0.50000   0.78265   0.00000  Uiso   1.00
Zn1518 Zn    0.00000   0.70659   0.21735   0.00000  Uiso   1.00
Zn1519 Zn    0.00000   0.79340   0.78265   0.00000  Uiso   1.00
Zn1520 Zn    0.29341   0.50000   0.21735   0.00000  Uiso   1.00
Zn1521 Zn    0.20660   0.50000   0.78265   0.00000  Uiso   1.00
Zn1522 Zn    0.00000   0.79340   0.21735   0.00000  Uiso   1.00
Zn1523 Zn    0.00000   0.70659   0.78265   0.00000  Uiso   1.00
Zn1524 Zn    0.45660   0.75000   0.71735   0.00000  Uiso   1.00
C1525  C     0.96891   0.73861   0.41865   0.00000  Uiso   1.00
C1526  C     0.78154   0.51016   0.08147   0.00000  Uiso   1.00
C1527  C     0.76120   0.53162   0.54075   0.00000  Uiso   1.00
C1528  C     0.96863   0.73823   0.45926   0.00000  Uiso   1.00
C1529  C     0.53148   0.76179   0.54090   0.00000  Uiso   1.00
C1530  C     0.76018   0.53183   0.45912   0.00000  Uiso   1.00
C1531  C     0.74054   0.96778   0.54080   0.00000  Uiso   1.00
C1532  C     0.78214   0.50959   0.95923   0.00000  Uiso   1.00
C1533  C     0.71815   0.98961   0.04090   0.00000  Uiso   1.00
C1534  C     0.98949   0.71815   0.95913   0.00000  Uiso   1.00
C1535  C     0.51155   0.78156   0.04075   0.00000  Uiso   1.00
C1536  C     0.71837   0.98867   0.95925   0.00000  Uiso   1.00
C1537  C     0.51027   0.78145   0.91851   0.00000  Uiso   1.00
C1538  C     0.78188   0.51043   0.04087   0.00000  Uiso   1.00
C1539  C     0.51056   0.78180   0.95910   0.00000  Uiso   1.00
C1540  C     0.99033   0.71789   0.04077   0.00000  Uiso   1.00
C1541  C     0.59808   0.84828   0.25002   0.00000  Uiso   1.00
C1542  C     0.90191   0.65206   0.75003   0.00000  Uiso   1.00
C1543  C     0.65191   0.59809   0.25000   0.00000  Uiso   1.00
C1544  C     0.84805   0.90195   0.75000   0.00000  Uiso   1.00
C1545  C     0.90170   0.65194   0.24992   0.00000  Uiso   1.00
C1546  C     0.59792   0.84811   0.74997   0.00000  Uiso   1.00
C1547  C     0.84818   0.90182   0.25000   0.00000  Uiso   1.00
C1548  C     0.99035   0.71835   0.08137   0.00000  Uiso   1.00
C1549  C     0.65199   0.59801   0.75000   0.00000  Uiso   1.00
C1550  C     0.59818   0.65182   0.75000   0.00000  Uiso   1.00
C1551  C     0.90199   0.84801   0.25000   0.00000  Uiso   1.00
C1552  C     0.65171   0.90194   0.74992   0.00000  Uiso   1.00
C1553  C     0.84792   0.59811   0.24997   0.00000  Uiso   1.00
C1554  C     0.90191   0.84809   0.75000   0.00000  Uiso   1.00
C1555  C     0.59805   0.65195   0.25000   0.00000  Uiso   1.00
C1556  C     0.84809   0.59827   0.75006   0.00000  Uiso   1.00
C1557  C     0.65189   0.90209   0.25000   0.00000  Uiso   1.00
C1558  C     0.50008   0.74999   0.47967   0.00000  Uiso   1.00
C1559  C     0.78168   0.50956   0.91862   0.00000  Uiso   1.00
C1560  C     0.50000   0.75026   0.52046   0.00000  Uiso   1.00
C1561  C     0.75005   0.99988   0.47957   0.00000  Uiso   1.00
C1562  C     0.75046   0.99980   0.52035   0.00000  Uiso   1.00
C1563  C     0.75017   0.99944   0.97966   0.00000  Uiso   1.00
C1564  C     0.75009   0.99976   0.02044   0.00000  Uiso   1.00
C1565  C     0.50030   0.74990   0.97955   0.00000  Uiso   1.00
C1566  C     0.50063   0.74981   0.02034   0.00000  Uiso   1.00
C1567  C     0.61889   0.75486   0.45734   0.00000  Uiso   1.00
C1568  C     0.65560   0.76939   0.44359   0.00000  Uiso   1.00
C1569  C     0.88257   0.74797   0.54431   0.00000  Uiso   1.00
C1570  C     0.71851   0.98986   0.08149   0.00000  Uiso   1.00
C1571  C     0.84936   0.73718   0.56822   0.00000  Uiso   1.00
C1572  C     0.68163   0.90645   0.44913   0.00000  Uiso   1.00
C1573  C     0.65787   0.88592   0.47822   0.00000  Uiso   1.00
C1574  C     0.82241   0.59357   0.54207   0.00000  Uiso   1.00
C1575  C     0.83581   0.63115   0.55433   0.00000  Uiso   1.00
C1576  C     0.90770   0.67565   0.45835   0.00000  Uiso   1.00
C1577  C     0.87125   0.66173   0.44321   0.00000  Uiso   1.00
C1578  C     0.59287   0.82323   0.54418   0.00000  Uiso   1.00
C1579  C     0.62605   0.83544   0.56742   0.00000  Uiso   1.00
C1580  C     0.75057   0.61788   0.45587   0.00000  Uiso   1.00
C1581  C     0.98975   0.71849   0.91853   0.00000  Uiso   1.00
C1582  C     0.76146   0.65145   0.43257   0.00000  Uiso   1.00
C1583  C     0.75226   0.88157   0.54277   0.00000  Uiso   1.00
C1584  C     0.74077   0.84457   0.55870   0.00000  Uiso   1.00
C1585  C     0.86829   0.99851   0.95695   0.00000  Uiso   1.00
C1586  C     0.90553   0.51038   0.94202   0.00000  Uiso   1.00
C1587  C     0.63228   0.99976   0.04416   0.00000  Uiso   1.00
C1588  C     0.59862   0.98918   0.06747   0.00000  Uiso   1.00
C1589  C     0.92990   0.65479   0.95648   0.00000  Uiso   1.00
C1590  C     0.91852   0.62145   0.93305   0.00000  Uiso   1.00
C1591  C     0.57290   0.84366   0.04177   0.00000  Uiso   1.00
C1592  C     0.51102   0.78131   0.08136   0.00000  Uiso   1.00
C1593  C     0.58613   0.88063   0.05615   0.00000  Uiso   1.00
C1594  C     0.65578   0.92775   0.95813   0.00000  Uiso   1.00
C1595  C     0.61804   0.91479   0.94592   0.00000  Uiso   1.00
C1596  C     0.84548   0.56980   0.04347   0.00000  Uiso   1.00
C1597  C     0.87897   0.58107   0.06671   0.00000  Uiso   1.00
C1598  C     0.50069   0.86770   0.95593   0.00000  Uiso   1.00
C1599  C     0.51127   0.90123   0.93240   0.00000  Uiso   1.00
C1600  C     0.50120   0.63176   0.04314   0.00000  Uiso   1.00
C1601  C     0.98923   0.59445   0.05777   0.00000  Uiso   1.00
C1602  C     0.66993   0.88809   0.16134   0.00000  Uiso   1.00
C1603  C     0.50005   0.74991   0.39840   0.00000  Uiso   1.00
C1604  C     0.88384   0.56458   0.83007   0.00000  Uiso   1.00
C1605  C     0.64337   0.71597   0.21994   0.00000  Uiso   1.00
C1606  C     0.85242   0.78414   0.77746   0.00000  Uiso   1.00
C1607  C     0.82838   0.61245   0.16232   0.00000  Uiso   1.00
C1608  C     0.61571   0.93598   0.82924   0.00000  Uiso   1.00
C1609  C     0.88574   0.82682   0.16326   0.00000  Uiso   1.00
C1610  C     0.56451   0.61564   0.82967   0.00000  Uiso   1.00
C1611  C     0.67317   0.61425   0.83675   0.00000  Uiso   1.00
C1612  C     0.88434   0.93548   0.17032   0.00000  Uiso   1.00
C1613  C     0.61351   0.82818   0.83774   0.00000  Uiso   1.00
C1614  C     0.50001   0.75015   0.60170   0.00000  Uiso   1.00
C1615  C     0.93642   0.61505   0.17102   0.00000  Uiso   1.00
C1616  C     0.78409   0.85670   0.78026   0.00000  Uiso   1.00
C1617  C     0.71590   0.64762   0.22273   0.00000  Uiso   1.00
C1618  C     0.88663   0.67258   0.83727   0.00000  Uiso   1.00
C1619  C     0.56229   0.88616   0.17266   0.00000  Uiso   1.00
C1620  C     0.92110   0.63716   0.66191   0.00000  Uiso   1.00
C1621  C     0.63492   0.81343   0.32864   0.00000  Uiso   1.00
C1622  C     0.89330   0.96594   0.71977   0.00000  Uiso   1.00
C1623  C     0.60238   0.53410   0.27726   0.00000  Uiso   1.00
C1624  C     0.57641   0.86424   0.66326   0.00000  Uiso   1.00
C1625  C     0.75001   0.99992   0.39833   0.00000  Uiso   1.00
C1626  C     0.86363   0.68788   0.32710   0.00000  Uiso   1.00
C1627  C     0.63575   0.57683   0.66325   0.00000  Uiso   1.00
C1628  C     0.81454   0.86567   0.32970   0.00000  Uiso   1.00
C1629  C     0.92321   0.86427   0.33673   0.00000  Uiso   1.00
C1630  C     0.63436   0.68549   0.67034   0.00000  Uiso   1.00
C1631  C     0.86178   0.58033   0.33874   0.00000  Uiso   1.00
C1632  C     0.68452   0.86709   0.66901   0.00000  Uiso   1.00
C1633  C     0.53403   0.60662   0.28005   0.00000  Uiso   1.00
C1634  C     0.96585   0.89759   0.72253   0.00000  Uiso   1.00
C1635  C     0.63723   0.92219   0.33721   0.00000  Uiso   1.00
C1636  C     0.53121   0.76126   0.58151   0.00000  Uiso   1.00
C1637  C     0.75039   0.99992   0.60161   0.00000  Uiso   1.00
C1638  C     0.81347   0.63493   0.67129   0.00000  Uiso   1.00
C1639  C     0.75006   0.99964   0.89840   0.00000  Uiso   1.00
C1640  C     0.75003   0.99999   0.10169   0.00000  Uiso   1.00
C1641  C     0.50002   0.74997   0.89831   0.00000  Uiso   1.00
C1642  C     0.50040   0.74993   0.10160   0.00000  Uiso   1.00
C1643  C     0.56315   0.77234   0.47972   0.00000  Uiso   1.00
C1644  C     0.93686   0.72825   0.52050   0.00000  Uiso   1.00
C1645  C     0.72868   0.93644   0.47967   0.00000  Uiso   1.00
C1646  C     0.77247   0.56297   0.52022   0.00000  Uiso   1.00
C1647  C     0.93755   0.72618   0.47977   0.00000  Uiso   1.00
C1648  C     0.75992   0.53149   0.41854   0.00000  Uiso   1.00
C1649  C     0.56256   0.77386   0.52051   0.00000  Uiso   1.00
C1650  C     0.77047   0.56356   0.47948   0.00000  Uiso   1.00
C1651  C     0.73084   0.93585   0.52038   0.00000  Uiso   1.00
C1652  C     0.81399   0.51950   0.97969   0.00000  Uiso   1.00
C1653  C     0.68641   0.97940   0.02051   0.00000  Uiso   1.00
C1654  C     0.97850   0.68668   0.97954   0.00000  Uiso   1.00
C1655  C     0.52297   0.81287   0.02024   0.00000  Uiso   1.00
C1656  C     0.68700   0.97742   0.97977   0.00000  Uiso   1.00
C1657  C     0.81339   0.52131   0.02046   0.00000  Uiso   1.00
C1658  C     0.52094   0.81350   0.97949   0.00000  Uiso   1.00
C1659  C     0.74065   0.96823   0.58140   0.00000  Uiso   1.00
C1660  C     0.98031   0.68607   0.02030   0.00000  Uiso   1.00
C1661  C     0.75002   0.99998   0.35594   0.00000  Uiso   1.00
C1662  C     0.75007   0.99999   0.64404   0.00000  Uiso   1.00
C1663  C     0.50001   0.75000   0.35596   0.00000  Uiso   1.00
C1664  C     0.50001   0.75002   0.64407   0.00000  Uiso   1.00
C1665  C     0.50000   0.74999   0.85593   0.00000  Uiso   1.00
C1666  C     0.50006   0.74999   0.14403   0.00000  Uiso   1.00
C1667  C     0.75000   0.99994   0.85596   0.00000  Uiso   1.00
C1668  C     0.75001   0.50000   0.14406   0.00000  Uiso   1.00
C1669  C     0.67998   0.57002   0.25000   0.00000  Uiso   1.00
C1670  C     0.53130   0.76098   0.41862   0.00000  Uiso   1.00
C1671  C     0.82001   0.92999   0.75000   0.00000  Uiso   1.00
C1672  C     0.92991   0.67997   0.24997   0.00000  Uiso   1.00
C1673  C     0.56998   0.82001   0.75000   0.00000  Uiso   1.00
C1674  C     0.82006   0.92994   0.25000   0.00000  Uiso   1.00
C1675  C     0.68001   0.56999   0.75000   0.00000  Uiso   1.00
C1676  C     0.57004   0.82007   0.25000   0.00000  Uiso   1.00
C1677  C     0.92999   0.68002   0.75000   0.00000  Uiso   1.00
C1678  C     0.67992   0.92997   0.74997   0.00000  Uiso   1.00
C1679  C     0.81998   0.57000   0.25000   0.00000  Uiso   1.00
C1680  C     0.92999   0.82002   0.75000   0.00000  Uiso   1.00
C1681  C     0.96874   0.73933   0.58149   0.00000  Uiso   1.00
C1682  C     0.57001   0.67999   0.25000   0.00000  Uiso   1.00
C1683  C     0.82004   0.57008   0.75002   0.00000  Uiso   1.00
C1684  C     0.68000   0.93001   0.24998   0.00000  Uiso   1.00
C1685  C     0.57006   0.67994   0.75000   0.00000  Uiso   1.00
C1686  C     0.93001   0.81999   0.25000   0.00000  Uiso   1.00
C1687  C     0.63427   0.89286   0.21502   0.00000  Uiso   1.00
C1688  C     0.86663   0.60662   0.78484   0.00000  Uiso   1.00
C1689  C     0.63515   0.66210   0.25278   0.00000  Uiso   1.00
C1690  C     0.86490   0.83796   0.74683   0.00000  Uiso   1.00
C1691  C     0.86537   0.60747   0.21493   0.00000  Uiso   1.00
C1692  C     0.74006   0.96833   0.41854   0.00000  Uiso   1.00
C1693  C     0.63329   0.89347   0.78474   0.00000  Uiso   1.00
C1694  C     0.89197   0.86482   0.21484   0.00000  Uiso   1.00
C1695  C     0.60662   0.63334   0.78481   0.00000  Uiso   1.00
C1696  C     0.63518   0.60802   0.78515   0.00000  Uiso   1.00
C1697  C     0.86666   0.89337   0.21519   0.00000  Uiso   1.00
C1698  C     0.60782   0.86505   0.78510   0.00000  Uiso   1.00
C1699  C     0.89379   0.63294   0.21530   0.00000  Uiso   1.00
C1700  C     0.83790   0.86485   0.74730   0.00000  Uiso   1.00
C1701  C     0.66204   0.63510   0.25325   0.00000  Uiso   1.00
C1702  C     0.89213   0.63502   0.78516   0.00000  Uiso   1.00
C1703  C     0.76070   0.53139   0.58135   0.00000  Uiso   1.00
C1704  C     0.60583   0.86744   0.21545   0.00000  Uiso   1.00
C1705  C     0.88467   0.64246   0.71495   0.00000  Uiso   1.00
C1706  C     0.61701   0.85627   0.28466   0.00000  Uiso   1.00
C1707  C     0.88516   0.91210   0.75270   0.00000  Uiso   1.00
C1708  C     0.61490   0.58796   0.24675   0.00000  Uiso   1.00
C1709  C     0.61462   0.85821   0.71475   0.00000  Uiso   1.00
C1710  C     0.88247   0.64426   0.28446   0.00000  Uiso   1.00
C1711  C     0.64198   0.61482   0.71485   0.00000  Uiso   1.00
C1712  C     0.85664   0.88335   0.28481   0.00000  Uiso   1.00
C1713  C     0.88519   0.85803   0.28516   0.00000  Uiso   1.00
C1714  C     0.71862   0.98918   0.91864   0.00000  Uiso   1.00
C1715  C     0.61666   0.64338   0.71520   0.00000  Uiso   1.00
C1716  C     0.85707   0.61581   0.28492   0.00000  Uiso   1.00
C1717  C     0.64302   0.88373   0.71503   0.00000  Uiso   1.00
C1718  C     0.58791   0.61485   0.24722   0.00000  Uiso   1.00
C1719  C     0.91205   0.88511   0.75317   0.00000  Uiso   1.00
C1720  C     0.64243   0.88472   0.28505   0.00000  Uiso   1.00
C1721  C     0.85626   0.61699   0.71533   0.00000  Uiso   1.00
C1722  C     0.53170   0.76121   0.45923   0.00000  Uiso   1.00
C1723  C     0.96835   0.73920   0.54090   0.00000  Uiso   1.00
C1724  C     0.73947   0.96803   0.45916   0.00000  Uiso   1.00
H1725  H     0.94501   0.72982   0.40259   0.00000  Uiso   1.00
H1726  H     0.80570   0.51819   0.09754   0.00000  Uiso   1.00
H1727  H     0.89118   0.54596   0.80567   0.00000  Uiso   1.00
H1728  H     0.87297   0.54737   0.85394   0.00000  Uiso   1.00
H1729  H     0.90861   0.57863   0.84116   0.00000  Uiso   1.00
H1730  H     0.61653   0.72970   0.21683   0.00000  Uiso   1.00
H1731  H     0.64786   0.69749   0.19460   0.00000  Uiso   1.00
H1732  H     0.66466   0.73749   0.21871   0.00000  Uiso   1.00
H1733  H     0.87771   0.78723   0.79510   0.00000  Uiso   1.00
H1734  H     0.84843   0.75450   0.77231   0.00000  Uiso   1.00
H1735  H     0.82848   0.79407   0.79414   0.00000  Uiso   1.00
H1736  H     0.80379   0.61535   0.18112   0.00000  Uiso   1.00
H1737  H     0.51844   0.80555   0.90242   0.00000  Uiso   1.00
H1738  H     0.81965   0.59864   0.13517   0.00000  Uiso   1.00
H1739  H     0.83921   0.63981   0.15424   0.00000  Uiso   1.00
H1740  H     0.60837   0.95411   0.80442   0.00000  Uiso   1.00
H1741  H     0.62643   0.95373   0.85274   0.00000  Uiso   1.00
H1742  H     0.59093   0.92205   0.84052   0.00000  Uiso   1.00
H1743  H     0.88371   0.80240   0.18242   0.00000  Uiso   1.00
H1744  H     0.89858   0.81795   0.13562   0.00000  Uiso   1.00
H1745  H     0.85801   0.83737   0.15624   0.00000  Uiso   1.00
H1746  H     0.54519   0.60946   0.80554   0.00000  Uiso   1.00
H1747  H     0.54809   0.62558   0.85462   0.00000  Uiso   1.00
H1748  H     0.98209   0.69426   0.09744   0.00000  Uiso   1.00
H1749  H     0.57861   0.59028   0.83910   0.00000  Uiso   1.00
H1750  H     0.69759   0.61627   0.81759   0.00000  Uiso   1.00
H1751  H     0.68203   0.60140   0.86438   0.00000  Uiso   1.00
H1752  H     0.66262   0.64198   0.84377   0.00000  Uiso   1.00
H1753  H     0.89052   0.95481   0.19444   0.00000  Uiso   1.00
H1754  H     0.87440   0.95190   0.14537   0.00000  Uiso   1.00
H1755  H     0.90969   0.92139   0.16088   0.00000  Uiso   1.00
H1756  H     0.61630   0.80347   0.81913   0.00000  Uiso   1.00
H1757  H     0.60014   0.81964   0.86522   0.00000  Uiso   1.00
H1758  H     0.64091   0.83926   0.84528   0.00000  Uiso   1.00
H1759  H     0.80581   0.51768   0.90256   0.00000  Uiso   1.00
H1760  H     0.95467   0.60801   0.19584   0.00000  Uiso   1.00
H1761  H     0.95400   0.62556   0.14728   0.00000  Uiso   1.00
H1762  H     0.92249   0.59014   0.16007   0.00000  Uiso   1.00
H1763  H     0.77033   0.88353   0.78331   0.00000  Uiso   1.00
H1764  H     0.80261   0.85229   0.80557   0.00000  Uiso   1.00
H1765  H     0.76258   0.83540   0.78160   0.00000  Uiso   1.00
H1766  H     0.71277   0.62240   0.20500   0.00000  Uiso   1.00
H1767  H     0.74554   0.65152   0.22794   0.00000  Uiso   1.00
H1768  H     0.70605   0.67164   0.20612   0.00000  Uiso   1.00
H1769  H     0.88404   0.69701   0.81820   0.00000  Uiso   1.00
H1770  H     0.69438   0.98177   0.09757   0.00000  Uiso   1.00
H1771  H     0.90010   0.68148   0.86455   0.00000  Uiso   1.00
H1772  H     0.85914   0.66188   0.84504   0.00000  Uiso   1.00
H1773  H     0.54474   0.89281   0.19817   0.00000  Uiso   1.00
H1774  H     0.54398   0.87608   0.14932   0.00000  Uiso   1.00
H1775  H     0.57595   0.91124   0.16178   0.00000  Uiso   1.00
H1776  H     0.94596   0.63419   0.68027   0.00000  Uiso   1.00
H1777  H     0.92942   0.65076   0.63448   0.00000  Uiso   1.00
H1778  H     0.90994   0.60984   0.65422   0.00000  Uiso   1.00
H1779  H     0.64215   0.79554   0.30357   0.00000  Uiso   1.00
H1780  H     0.62426   0.79545   0.35196   0.00000  Uiso   1.00
H1781  H     0.98163   0.69437   0.90246   0.00000  Uiso   1.00
H1782  H     0.65974   0.82724   0.33999   0.00000  Uiso   1.00
H1783  H     0.86648   0.97973   0.71675   0.00000  Uiso   1.00
H1784  H     0.89766   0.94743   0.69444   0.00000  Uiso   1.00
H1785  H     0.91463   0.98742   0.71843   0.00000  Uiso   1.00
H1786  H     0.62762   0.53720   0.29498   0.00000  Uiso   1.00
H1787  H     0.59846   0.50446   0.27204   0.00000  Uiso   1.00
H1788  H     0.57838   0.54396   0.29389   0.00000  Uiso   1.00
H1789  H     0.55227   0.86671   0.68276   0.00000  Uiso   1.00
H1790  H     0.56707   0.85099   0.63603   0.00000  Uiso   1.00
H1791  H     0.58703   0.89178   0.65555   0.00000  Uiso   1.00
H1792  H     0.51913   0.80546   0.09741   0.00000  Uiso   1.00
H1793  H     0.85710   0.70544   0.30156   0.00000  Uiso   1.00
H1794  H     0.87359   0.70617   0.35051   0.00000  Uiso   1.00
H1795  H     0.83848   0.67422   0.33784   0.00000  Uiso   1.00
H1796  H     0.63373   0.55241   0.68242   0.00000  Uiso   1.00
H1797  H     0.64860   0.56797   0.63562   0.00000  Uiso   1.00
H1798  H     0.60802   0.58738   0.65623   0.00000  Uiso   1.00
H1799  H     0.79521   0.85948   0.30558   0.00000  Uiso   1.00
H1800  H     0.79813   0.87561   0.35465   0.00000  Uiso   1.00
H1801  H     0.82864   0.84031   0.33914   0.00000  Uiso   1.00
H1802  H     0.94762   0.86629   0.31756   0.00000  Uiso   1.00
H1803  H     0.60890   0.73435   0.43596   0.00000  Uiso   1.00
H1804  H     0.93208   0.85143   0.36437   0.00000  Uiso   1.00
H1805  H     0.91266   0.89200   0.34375   0.00000  Uiso   1.00
H1806  H     0.64054   0.70482   0.69447   0.00000  Uiso   1.00
H1807  H     0.62443   0.70192   0.64539   0.00000  Uiso   1.00
H1808  H     0.65972   0.67140   0.66090   0.00000  Uiso   1.00
H1809  H     0.86520   0.55520   0.32091   0.00000  Uiso   1.00
H1810  H     0.84780   0.57236   0.36607   0.00000  Uiso   1.00
H1811  H     0.88890   0.59180   0.34673   0.00000  Uiso   1.00
H1812  H     0.70352   0.85956   0.69301   0.00000  Uiso   1.00
H1813  H     0.70133   0.87820   0.64495   0.00000  Uiso   1.00
H1814  H     0.62333   0.74116   0.48590   0.00000  Uiso   1.00
H1815  H     0.67034   0.84238   0.65791   0.00000  Uiso   1.00
H1816  H     0.52029   0.63345   0.28315   0.00000  Uiso   1.00
H1817  H     0.55251   0.60214   0.30538   0.00000  Uiso   1.00
H1818  H     0.51252   0.58533   0.28128   0.00000  Uiso   1.00
H1819  H     0.96285   0.87226   0.70494   0.00000  Uiso   1.00
H1820  H     0.99548   0.90168   0.72769   0.00000  Uiso   1.00
H1821  H     0.95585   0.92147   0.70581   0.00000  Uiso   1.00
H1822  H     0.63463   0.94662   0.31813   0.00000  Uiso   1.00
H1823  H     0.65086   0.93113   0.36439   0.00000  Uiso   1.00
H1824  H     0.60974   0.91161   0.34514   0.00000  Uiso   1.00
H1825  H     0.66657   0.78913   0.46513   0.00000  Uiso   1.00
H1826  H     0.79544   0.64202   0.69628   0.00000  Uiso   1.00
H1827  H     0.79563   0.62445   0.64775   0.00000  Uiso   1.00
H1828  H     0.82734   0.65983   0.66022   0.00000  Uiso   1.00
H1829  H     0.55515   0.76988   0.59761   0.00000  Uiso   1.00
H1830  H     0.67523   0.74648   0.44036   0.00000  Uiso   1.00
H1831  H     0.65251   0.78332   0.41514   0.00000  Uiso   1.00
H1832  H     0.87299   0.75765   0.51535   0.00000  Uiso   1.00
H1833  H     0.89666   0.77081   0.55963   0.00000  Uiso   1.00
H1834  H     0.85808   0.72662   0.59703   0.00000  Uiso   1.00
H1835  H     0.83148   0.76132   0.57261   0.00000  Uiso   1.00
H1836  H     0.83359   0.71573   0.55281   0.00000  Uiso   1.00
H1837  H     0.67894   0.89268   0.42051   0.00000  Uiso   1.00
H1838  H     0.67094   0.93477   0.44516   0.00000  Uiso   1.00
H1839  H     0.65666   0.90098   0.50617   0.00000  Uiso   1.00
H1840  H     0.76791   0.55566   0.40246   0.00000  Uiso   1.00
H1841  H     0.62968   0.88332   0.46664   0.00000  Uiso   1.00
H1842  H     0.66909   0.85817   0.48337   0.00000  Uiso   1.00
H1843  H     0.83544   0.58704   0.51358   0.00000  Uiso   1.00
H1844  H     0.83144   0.57321   0.56408   0.00000  Uiso   1.00
H1845  H     0.82382   0.63881   0.58280   0.00000  Uiso   1.00
H1846  H     0.86604   0.63106   0.55691   0.00000  Uiso   1.00
H1847  H     0.82769   0.65167   0.53221   0.00000  Uiso   1.00
H1848  H     0.91226   0.66315   0.48751   0.00000  Uiso   1.00
H1849  H     0.92966   0.66649   0.43821   0.00000  Uiso   1.00
H1850  H     0.86579   0.67303   0.41386   0.00000  Uiso   1.00
H1851  H     0.73270   0.94405   0.59747   0.00000  Uiso   1.00
H1852  H     0.87168   0.63145   0.44143   0.00000  Uiso   1.00
H1853  H     0.84903   0.67020   0.46322   0.00000  Uiso   1.00
H1854  H     0.56788   0.83240   0.55990   0.00000  Uiso   1.00
H1855  H     0.59393   0.83669   0.51517   0.00000  Uiso   1.00
H1856  H     0.65146   0.82729   0.55211   0.00000  Uiso   1.00
H1857  H     0.62578   0.86560   0.57080   0.00000  Uiso   1.00
H1858  H     0.62566   0.82265   0.59669   0.00000  Uiso   1.00
H1859  H     0.74070   0.62706   0.48490   0.00000  Uiso   1.00
H1860  H     0.72787   0.60393   0.44019   0.00000  Uiso   1.00
H1861  H     0.77200   0.64316   0.40361   0.00000  Uiso   1.00
H1862  H     0.55517   0.76981   0.40253   0.00000  Uiso   1.00
H1863  H     0.73737   0.66947   0.42850   0.00000  Uiso   1.00
H1864  H     0.78297   0.66690   0.44827   0.00000  Uiso   1.00
H1865  H     0.77280   0.89371   0.56283   0.00000  Uiso   1.00
H1866  H     0.76515   0.87697   0.51381   0.00000  Uiso   1.00
H1867  H     0.72094   0.83151   0.53861   0.00000  Uiso   1.00
H1868  H     0.76504   0.82660   0.56159   0.00000  Uiso   1.00
H1869  H     0.72788   0.84786   0.58768   0.00000  Uiso   1.00
H1870  H     0.85645   0.97851   0.93610   0.00000  Uiso   1.00
H1871  H     0.87247   0.98486   0.98559   0.00000  Uiso   1.00
H1872  H     0.91847   0.52928   0.96317   0.00000  Uiso   1.00
H1873  H     0.94485   0.73056   0.59757   0.00000  Uiso   1.00
H1874  H     0.92339   0.98612   0.93828   0.00000  Uiso   1.00
H1875  H     0.90267   0.52443   0.91360   0.00000  Uiso   1.00
H1876  H     0.62317   0.50973   0.01514   0.00000  Uiso   1.00
H1877  H     0.64644   0.52233   0.05984   0.00000  Uiso   1.00
H1878  H     0.60683   0.97852   0.09641   0.00000  Uiso   1.00
H1879  H     0.58085   0.51344   0.07159   0.00000  Uiso   1.00
H1880  H     0.58295   0.96785   0.05175   0.00000  Uiso   1.00
H1881  H     0.91965   0.67960   0.94120   0.00000  Uiso   1.00
H1882  H     0.91689   0.65295   0.98569   0.00000  Uiso   1.00
H1883  H     0.92788   0.59621   0.94787   0.00000  Uiso   1.00
H1884  H     0.73247   0.94407   0.40243   0.00000  Uiso   1.00
H1885  H     0.88831   0.62062   0.93027   0.00000  Uiso   1.00
H1886  H     0.93075   0.62264   0.90353   0.00000  Uiso   1.00
H1887  H     0.58561   0.83876   0.01276   0.00000  Uiso   1.00
H1888  H     0.58236   0.82224   0.06241   0.00000  Uiso   1.00
H1889  H     0.57466   0.88645   0.08534   0.00000  Uiso   1.00
H1890  H     0.61640   0.88078   0.05800   0.00000  Uiso   1.00
H1891  H     0.57729   0.90230   0.03564   0.00000  Uiso   1.00
H1892  H     0.66213   0.91478   0.98670   0.00000  Uiso   1.00
H1893  H     0.67604   0.91833   0.93620   0.00000  Uiso   1.00
H1894  H     0.61060   0.92665   0.91733   0.00000  Uiso   1.00
H1895  H     0.76860   0.55562   0.59738   0.00000  Uiso   1.00
H1896  H     0.61769   0.88453   0.94365   0.00000  Uiso   1.00
H1897  H     0.59758   0.92340   0.96790   0.00000  Uiso   1.00
H1898  H     0.82078   0.58014   0.05887   0.00000  Uiso   1.00
H1899  H     0.84723   0.58279   0.01425   0.00000  Uiso   1.00
H1900  H     0.90410   0.57159   0.05175   0.00000  Uiso   1.00
H1901  H     0.87994   0.61127   0.06946   0.00000  Uiso   1.00
H1902  H     0.87788   0.56885   0.09625   0.00000  Uiso   1.00
H1903  H     0.99092   0.87695   0.98497   0.00000  Uiso   1.00
H1904  H     0.97799   0.85357   0.94044   0.00000  Uiso   1.00
H1905  H     0.52173   0.89288   0.90343   0.00000  Uiso   1.00
H1906  H     0.69443   0.98120   0.90260   0.00000  Uiso   1.00
H1907  H     0.98705   0.91908   0.92836   0.00000  Uiso   1.00
H1908  H     0.53275   0.91688   0.94791   0.00000  Uiso   1.00
H1909  H     0.52105   0.64350   0.06421   0.00000  Uiso   1.00
H1910  H     0.51506   0.62772   0.01459   0.00000  Uiso   1.00
H1911  H     0.97060   0.58156   0.03632   0.00000  Uiso   1.00
H1912  H     0.51348   0.57662   0.06174   0.00000  Uiso   1.00
H1913  H     0.97484   0.59719   0.08601   0.00000  Uiso   1.00
H1914  H     0.69502   0.88477   0.17927   0.00000  Uiso   1.00
H1915  H     0.67794   0.90201   0.13399   0.00000  Uiso   1.00
H1916  H     0.65854   0.86092   0.15340   0.00000  Uiso   1.00
O1917  O     0.75000   0.50000   0.25000   0.00000  Uiso   1.00
O1918  O     0.75000   0.96963   0.66245   0.00000  Uiso   1.00
O1919  O     0.83906   0.60755   0.68091   0.00000  Uiso   1.00
O1920  O     0.96964   0.75000   0.33755   0.00000  Uiso   1.00
O1921  O     0.53037   0.75000   0.66245   0.00000  Uiso   1.00
O1922  O     0.50000   0.71963   0.83755   0.00000  Uiso   1.00
O1923  O     0.50000   0.78036   0.16245   0.00000  Uiso   1.00
O1924  O     0.78037   0.50000   0.83755   0.00000  Uiso   1.00
O1925  O     0.71964   0.50000   0.16245   0.00000  Uiso   1.00
O1926  O     0.50000   0.78036   0.83755   0.00000  Uiso   1.00
O1927  O     0.50000   0.71963   0.16245   0.00000  Uiso   1.00
O1928  O     0.71964   0.50000   0.83755   0.00000  Uiso   1.00
O1929  O     0.75000   0.50000   0.75000   0.00000  Uiso   1.00
O1930  O     0.78037   0.50000   0.16245   0.00000  Uiso   1.00
O1931  O     0.70725   0.57307   0.27302   0.00000  Uiso   1.00
O1932  O     0.79276   0.92692   0.72698   0.00000  Uiso   1.00
O1933  O     0.92693   0.70724   0.27302   0.00000  Uiso   1.00
O1934  O     0.57308   0.79275   0.72698   0.00000  Uiso   1.00
O1935  O     0.79276   0.92692   0.27302   0.00000  Uiso   1.00
O1936  O     0.70725   0.57307   0.72698   0.00000  Uiso   1.00
O1937  O     0.57308   0.79275   0.27302   0.00000  Uiso   1.00
O1938  O     0.92693   0.70724   0.72698   0.00000  Uiso   1.00
O1939  O     0.70725   0.92692   0.72698   0.00000  Uiso   1.00
O1940  O     0.50000   0.75000   0.25000   0.00000  Uiso   1.00
O1941  O     0.79276   0.57307   0.27302   0.00000  Uiso   1.00
O1942  O     0.92693   0.79275   0.72698   0.00000  Uiso   1.00
O1943  O     0.57308   0.70724   0.27302   0.00000  Uiso   1.00
O1944  O     0.79276   0.57307   0.72698   0.00000  Uiso   1.00
O1945  O     0.70725   0.92692   0.27302   0.00000  Uiso   1.00
O1946  O     0.57308   0.70724   0.72698   0.00000  Uiso   1.00
O1947  O     0.92693   0.79275   0.27302   0.00000  Uiso   1.00
O1948  O     0.95725   0.82307   0.77302   0.00000  Uiso   1.00
O1949  O     0.54276   0.67692   0.22698   0.00000  Uiso   1.00
O1950  O     0.67693   0.95724   0.77302   0.00000  Uiso   1.00
O1951  O     0.50000   0.75000   0.75000   0.00000  Uiso   1.00
O1952  O     0.82308   0.54275   0.22698   0.00000  Uiso   1.00
O1953  O     0.54276   0.67692   0.77302   0.00000  Uiso   1.00
O1954  O     0.95725   0.82307   0.22698   0.00000  Uiso   1.00
O1955  O     0.82308   0.54275   0.77302   0.00000  Uiso   1.00
O1956  O     0.67693   0.95724   0.22698   0.00000  Uiso   1.00
O1957  O     0.95725   0.67692   0.22698   0.00000  Uiso   1.00
O1958  O     0.54276   0.82307   0.77302   0.00000  Uiso   1.00
O1959  O     0.67693   0.54275   0.22698   0.00000  Uiso   1.00
O1960  O     0.82308   0.95724   0.77302   0.00000  Uiso   1.00
O1961  O     0.54276   0.82307   0.22698   0.00000  Uiso   1.00
O1962  O     0.75000   0.96963   0.33755   0.00000  Uiso   1.00
O1963  O     0.95725   0.67692   0.77302   0.00000  Uiso   1.00
O1964  O     0.82308   0.95724   0.22698   0.00000  Uiso   1.00
O1965  O     0.67693   0.54275   0.77302   0.00000  Uiso   1.00
O1966  O     0.59393   0.78414   0.46003   0.00000  Uiso   1.00
O1967  O     0.90581   0.71743   0.54033   0.00000  Uiso   1.00
O1968  O     0.71886   0.90481   0.46018   0.00000  Uiso   1.00
O1969  O     0.78387   0.59397   0.53977   0.00000  Uiso   1.00
O1970  O     0.90681   0.71420   0.46014   0.00000  Uiso   1.00
O1971  O     0.59354   0.78485   0.54039   0.00000  Uiso   1.00
O1972  O     0.78113   0.59466   0.45963   0.00000  Uiso   1.00
O1973  O     0.75000   0.53036   0.66245   0.00000  Uiso   1.00
O1974  O     0.72126   0.90437   0.54016   0.00000  Uiso   1.00
O1975  O     0.84543   0.52944   0.96004   0.00000  Uiso   1.00
O1976  O     0.65522   0.96899   0.04036   0.00000  Uiso   1.00
O1977  O     0.96834   0.65541   0.95968   0.00000  Uiso   1.00
O1978  O     0.53435   0.84385   0.03985   0.00000  Uiso   1.00
O1979  O     0.65591   0.96630   0.96018   0.00000  Uiso   1.00
O1980  O     0.84469   0.53136   0.04031   0.00000  Uiso   1.00
O1981  O     0.53140   0.84466   0.95964   0.00000  Uiso   1.00
O1982  O     0.97029   0.65465   0.03994   0.00000  Uiso   1.00
O1983  O     0.64372   0.90980   0.18048   0.00000  Uiso   1.00
O1984  O     0.53037   0.75000   0.33755   0.00000  Uiso   1.00
O1985  O     0.85662   0.58996   0.81938   0.00000  Uiso   1.00
O1986  O     0.64576   0.69828   0.25642   0.00000  Uiso   1.00
O1987  O     0.85490   0.80186   0.74112   0.00000  Uiso   1.00
O1988  O     0.85547   0.59094   0.18031   0.00000  Uiso   1.00
O1989  O     0.64300   0.91043   0.81922   0.00000  Uiso   1.00
O1990  O     0.90774   0.85418   0.18009   0.00000  Uiso   1.00
O1991  O     0.58978   0.64309   0.81933   0.00000  Uiso   1.00
O1992  O     0.64582   0.59225   0.81991   0.00000  Uiso   1.00
O1993  O     0.85689   0.91021   0.18067   0.00000  Uiso   1.00
O1994  O     0.59154   0.85490   0.81977   0.00000  Uiso   1.00
O1995  O     0.96964   0.75000   0.66245   0.00000  Uiso   1.00
O1996  O     0.91092   0.64243   0.18085   0.00000  Uiso   1.00
O1997  O     0.80171   0.85423   0.74375   0.00000  Uiso   1.00
O1998  O     0.69813   0.64509   0.25904   0.00000  Uiso   1.00
O1999  O     0.90832   0.64530   0.81984   0.00000  Uiso   1.00
O2000  O     0.58806   0.85862   0.18117   0.00000  Uiso   1.00
O2001  O     0.89455   0.65901   0.68034   0.00000  Uiso   1.00
O2002  O     0.60759   0.83907   0.31908   0.00000  Uiso   1.00
O2003  O     0.89577   0.94829   0.75627   0.00000  Uiso   1.00
O2004  O     0.60491   0.55187   0.24096   0.00000  Uiso   1.00
O2005  O     0.60394   0.84240   0.68002   0.00000  Uiso   1.00
O2006  O     0.75000   0.53036   0.33755   0.00000  Uiso   1.00
O2007  O     0.89120   0.66211   0.31873   0.00000  Uiso   1.00
O2008  O     0.65775   0.60418   0.68009   0.00000  Uiso   1.00
O2009  O     0.83981   0.89312   0.31934   0.00000  Uiso   1.00
O2010  O     0.89584   0.84227   0.31991   0.00000  Uiso   1.00
O2011  O     0.60691   0.66022   0.68067   0.00000  Uiso   1.00
O2012  O     0.84006   0.60643   0.31944   0.00000  Uiso   1.00
O2013  O     0.65928   0.89417   0.68042   0.00000  Uiso   1.00
O2014  O     0.55172   0.60424   0.24357   0.00000  Uiso   1.00
O2015  O     0.94814   0.89510   0.75888   0.00000  Uiso   1.00
O2016  O     0.65872   0.89479   0.31973   0.00000  Uiso   1.00
Zn2017 Zn    0.70660   0.50000   0.21735   0.00000  Uiso   1.00
Zn2018 Zn    0.54341   0.75000   0.28265   0.00000  Uiso   1.00
Zn2019 Zn    0.75000   0.95659   0.71735   0.00000  Uiso   1.00
Zn2020 Zn    0.75000   0.54340   0.28265   0.00000  Uiso   1.00
Zn2021 Zn    0.54341   0.75000   0.71735   0.00000  Uiso   1.00
Zn2022 Zn    0.95660   0.75000   0.28265   0.00000  Uiso   1.00
Zn2023 Zn    0.75000   0.54340   0.71735   0.00000  Uiso   1.00
Zn2024 Zn    0.75000   0.95659   0.28265   0.00000  Uiso   1.00
Zn2025 Zn    0.79341   0.50000   0.78265   0.00000  Uiso   1.00
Zn2026 Zn    0.50000   0.70659   0.21735   0.00000  Uiso   1.00
Zn2027 Zn    0.50000   0.79340   0.78265   0.00000  Uiso   1.00
Zn2028 Zn    0.79341   0.50000   0.21735   0.00000  Uiso   1.00
Zn2029 Zn    0.70660   0.50000   0.78265   0.00000  Uiso   1.00
Zn2030 Zn    0.50000   0.79340   0.21735   0.00000  Uiso   1.00
Zn2031 Zn    0.50000   0.70659   0.78265   0.00000  Uiso   1.00
Zn2032 Zn    0.95660   0.75000   0.71735   0.00000  Uiso   1.00
loop_
_geom_bond_atom_site_label_1
_geom_bond_atom_site_label_2
_geom_bond_distance
_geom_bond_site_symmetry_2
_ccdc_geom_bond_type
C1     H201    1.084   .     S
C1     C4      1.397   .     A
C1     C587    1.399   .     S
C2     H202    1.084   .     S
C2     C14     1.397   .     A
C2     C1132   1.398   1_545 S
C3     C179    1.397   .     A
C3     C122    1.410   .     A
C3     C1054   1.416   1_545 S
C4     C123    1.410   .     A
C4     C542    1.416   .     S
C5     C112    1.397   .     A
C5     C125    1.408   .     A
C5     C36     1.415   .     S
C6     C126    1.408   .     A
C6     C124    1.396   .     A
C6     C1053   1.415   1_545 S
C7     C127    1.410   .     A
C7     C135    1.397   .     A
C7     C38     1.415   .     A
C8     C35     1.397   .     A
C8     C128    1.410   .     A
C8     C1055   1.415   1_545 S
C9     C46     1.397   .     A
C9     C40     1.414   .     A
C9     C129    1.408   .     A
C10    C130    1.408   .     A
C10    C57     1.397   .     A
C10    C549    1.415   .     S
C11    C68     1.397   .     A
C11    C42     1.416   .     A
C11    C131    1.410   .     A
C12    C132    1.410   .     A
C12    C39     1.416   .     A
C12    C190    1.397   .     A
C13    H213    1.084   .     S
C13    C15     1.397   .     A
C13    C117    1.397   .     A
C14    C133    1.408   .     A
C14    C1056   1.415   1_545 S
C15    C134    1.408   .     A
C15    C41     1.415   .     A
C16    C136    1.410   .     A
C16    C24     1.397   .     A
C16    C550    1.415   .     S
C17    C182    1.409   .     A
C17    C152    1.456   .     S
C17    C180    1.410   .     A
C18    C181    1.406   .     A
C18    C178    1.406   .     A
C18    C153    1.451   .     S
C19    C184    1.410   .     A
C19    C145    1.454   .     S
C19    C177    1.410   .     A
C20    C147    1.452   .     S
C20    C176    1.412   .     A
C20    C183    1.412   .     A
C21    C186    1.410   .     A
C21    C148    1.456   .     S
C21    C175    1.410   .     A
C22    C149    1.451   .     S
C22    C174    1.406   .     A
C22    C185    1.406   .     A
C23    C188    1.410   .     A
C23    C150    1.457   .     S
C23    C173    1.410   .     A
C24    H224    1.084   .     S
C24    C626    1.399   .     S
C25    C187    1.406   .     A
C25    C151    1.451   .     S
C25    C172    1.406   .     A
C26    C191    1.410   .     A
C26    C161    1.457   .     S
C26    C171    1.410   .     A
C27    C162    1.451   .     S
C27    C189    1.406   .     A
C27    C170    1.406   .     A
C28    C169    1.409   .     A
C28    C154    1.456   .     S
C28    C193    1.409   .     A
C29    C155    1.451   .     S
C29    C192    1.407   .     A
C29    C167    1.407   .     A
C30    C156    1.454   .     S
C30    C195    1.410   .     A
C30    C166    1.410   .     A
C31    C165    1.412   .     A
C31    C158    1.452   .     S
C31    C194    1.412   .     A
C32    C159    1.456   .     S
C32    C164    1.410   .     A
C32    C197    1.409   .     A
C33    C196    1.406   .     A
C33    C160    1.451   .     S
C33    C163    1.407   .     A
C34    C198    1.416   .     A
C34    C512    1.416   1_455 S
C34    C36     1.403   .     S
C35    H235    1.084   .     S
C35    C1131   1.399   1_545 S
C36    C707    1.415   1_455 A
C37    C38     1.403   .     A
C37    C200    1.415   .     A
C37    C1022   1.415   .     S
C38    C1019   1.416   .     S
C39    C1024   1.415   .     S
C39    C40     1.403   1_556 S
C40    C1030   1.415   .     S
C40    C39     1.403   1_554 S
C41    C518    1.415   1_455 S
C41    C42     1.403   1_556 S
C42    C524    1.415   1_455 S
C42    C41     1.403   1_554 S
C43    C44     1.521   .     S
C43    H279    1.113   .     S
C43    O442    1.412   .     S
C43    H290    1.115   .     S
C44    H301    1.111   .     S
C44    H307    1.109   .     S
C44    H306    1.110   .     S
C45    C47     1.521   .     S
C45    H309    1.115   .     S
C45    O443    1.412   .     S
C45    H308    1.114   .     S
C46    H246    1.084   .     S
C46    C116    1.397   .     A
C47    H310    1.111   .     S
C47    H311    1.111   .     S
C47    H312    1.109   .     S
C48    H314    1.117   .     S
C48    C49     1.525   .     S
C48    O444    1.417   .     S
C48    H313    1.111   .     S
C49    H317    1.110   .     S
C49    H315    1.109   .     S
C49    H318    1.110   .     S
C50    H320    1.113   .     S
C50    C51     1.521   .     S
C50    O445    1.413   .     S
C50    H319    1.116   .     S
C51    H322    1.111   .     S
C51    H323    1.110   .     S
C51    H321    1.109   .     S
C52    O446    1.413   .     S
C52    H324    1.115   .     S
C52    C53     1.521   .     S
C52    H325    1.113   .     S
C53    H328    1.111   .     S
C53    H329    1.110   .     S
C53    H326    1.109   .     S
C54    H331    1.114   .     S
C54    C55     1.521   .     S
C54    O447    1.412   .     S
C54    H330    1.115   .     S
C55    H333    1.111   .     S
C55    H332    1.110   .     S
C55    H334    1.111   .     S
C56    H336    1.115   .     S
C56    O448    1.412   .     S
C56    C58     1.521   .     S
C56    H335    1.114   .     S
C57    H257    1.084   .     S
C57    C625    1.398   .     S
C58    H340    1.110   .     S
C58    H339    1.111   .     S
C58    H337    1.111   .     S
C59    O450    1.412   .     S
C59    H342    1.115   .     S
C59    C60     1.521   .     S
C59    H341    1.113   .     S
C60    H345    1.110   .     S
C60    H343    1.111   .     S
C60    H344    1.111   .     S
C61    H347    1.115   .     S
C61    H346    1.113   .     S
C61    C1078   1.521   .     S
C61    O1467   1.412   .     S
C62    H348    1.111   .     S
C62    H351    1.110   .     S
C62    C1077   1.521   1_545 S
C62    H1366   1.111   1_545 S
C63    C64     1.521   .     S
C63    O452    1.412   .     S
C63    H1368   1.114   .     S
C63    H1369   1.115   .     S
C64    H354    1.111   .     S
C64    H356    1.110   .     S
C64    H1371   1.111   .     S
C65    H357    1.115   .     S
C65    H358    1.114   .     S
C65    O453    1.412   .     S
C65    C66     1.521   .     S
C66    H361    1.111   .     S
C66    H362    1.111   .     S
C66    H359    1.110   .     S
C67    C69     1.521   .     S
C67    H363    1.116   .     S
C67    O454    1.413   .     S
C67    H364    1.113   .     S
C68    C118    1.399   .     A
C68    H268    1.084   .     S
C69    H365    1.109   .     S
C69    H367    1.110   .     S
C69    H366    1.111   .     S
C70    H369    1.113   .     S
C70    H368    1.116   .     S
C70    O455    1.413   .     S
C70    C71     1.521   .     S
C71    H372    1.111   .     S
C71    H370    1.109   .     S
C71    H373    1.110   .     S
C72    C73     1.521   .     S
C72    O456    1.412   .     S
C72    H375    1.114   .     S
C72    H374    1.115   .     S
C73    H376    1.110   .     S
C73    H378    1.111   .     S
C73    H377    1.111   .     S
C74    O457    1.412   .     S
C74    C75     1.521   .     S
C74    H887    1.114   1_455 S
C74    H888    1.115   1_455 S
C75    H384    1.110   .     S
C75    H381    1.111   .     S
C75    H891    1.111   1_455 S
C76    H385    1.113   .     S
C76    H386    1.116   .     S
C76    C585    1.521   1_455 S
C76    O966    1.413   1_455 S
C77    H389    1.110   .     S
C77    H387    1.111   .     S
C77    C584    1.521   .     S
C77    H896    1.111   .     S
C78    H391    1.110   .     S
C78    H392    1.113   .     S
C78    H390    1.113   .     S
C78    O459    1.410   .     S
C79    C139    1.460   .     S
C79    C146    1.399   .     A
C79    C509    1.399   1_455 S
C80    H203    1.115   .     S
C80    O461    1.411   .     S
C80    H204    1.109   .     S
C80    H205    1.111   .     S
C81    O462    1.415   .     S
C81    H207    1.115   .     S
C81    H206    1.109   .     S
C81    H208    1.109   .     S
C82    H209    1.113   .     S
C82    O463    1.411   .     S
C82    H210    1.109   .     S
C82    H211    1.109   .     S
C83    H215    1.113   .     S
C83    H214    1.109   .     S
C83    O464    1.410   .     S
C83    H212    1.114   .     S
C84    H218    1.111   .     S
C84    O465    1.412   .     S
C84    H217    1.109   .     S
C84    H216    1.115   .     S
C85    O466    1.410   .     S
C85    H220    1.109   .     S
C85    H219    1.113   .     S
C85    H221    1.113   .     S
C86    H223    1.109   .     S
C86    O467    1.412   .     S
C86    H225    1.111   .     S
C86    H222    1.114   .     S
C87    H228    1.113   .     S
C87    H226    1.113   .     S
C87    H227    1.109   .     S
C87    O468    1.410   .     S
C88    H230    1.109   .     S
C88    H229    1.114   .     S
C88    H231    1.111   .     S
C88    O469    1.412   .     S
C89    O470    1.410   .     S
C89    H233    1.110   .     S
C89    H232    1.113   .     S
C89    H234    1.113   .     S
C90    C140    1.458   .     S
C90    C112    1.398   .     A
C90    C665    1.397   1_455 S
C91    H237    1.109   .     S
C91    H236    1.115   .     S
C91    O472    1.411   .     S
C91    H238    1.111   .     S
C92    H239    1.109   .     S
C92    H241    1.109   .     S
C92    H240    1.115   .     S
C92    O473    1.415   .     S
C93    H244    1.109   .     S
C93    H242    1.113   .     S
C93    O474    1.411   .     S
C93    H243    1.109   .     S
C94    H247    1.109   .     S
C94    H245    1.114   .     S
C94    H248    1.113   .     S
C94    O475    1.410   .     S
C95    O476    1.412   .     S
C95    H250    1.109   .     S
C95    H251    1.111   .     S
C95    H249    1.115   .     S
C96    H254    1.113   .     S
C96    H253    1.110   .     S
C96    O477    1.410   .     S
C96    H252    1.113   .     S
C97    O478    1.411   .     S
C97    H256    1.109   .     S
C97    H258    1.111   .     S
C97    H255    1.115   .     S
C98    H259    1.109   .     S
C98    O479    1.415   .     S
C98    H260    1.115   .     S
C98    H261    1.109   .     S
C99    O480    1.411   .     S
C99    H262    1.113   .     S
C99    H263    1.109   .     S
C99    H264    1.109   .     S
C100   H266    1.109   .     S
C100   O481    1.410   .     S
C100   H265    1.114   .     S
C100   H267    1.113   .     S
C101   C137    1.458   .     S
C101   C168    1.398   .     A
C101   C1140   1.397   .     S
C102   H271    1.111   .     S
C102   H269    1.115   .     S
C102   O483    1.412   .     S
C102   H270    1.109   .     S
C103   H274    1.113   .     S
C103   H273    1.109   .     S
C103   H272    1.113   .     S
C103   O484    1.410   .     S
C104   H276    1.109   .     S
C104   H277    1.111   .     S
C104   O485    1.412   .     S
C104   H275    1.114   .     S
C105   H281    1.113   .     S
C105   H278    1.113   .     S
C105   O486    1.410   .     S
C105   H280    1.109   .     S
C106   O487    1.412   .     S
C106   H284    1.111   .     S
C106   H282    1.114   .     S
C106   H283    1.109   .     S
C107   H286    1.110   .     S
C107   O488    1.410   .     S
C107   H287    1.113   .     S
C107   H285    1.113   .     S
C108   H291    1.111   .     S
C108   O489    1.411   .     S
C108   H288    1.114   .     S
C108   H289    1.109   .     S
C109   O490    1.415   .     S
C109   H293    1.115   .     S
C109   H292    1.109   .     S
C109   H294    1.109   .     S
C110   H296    1.109   .     S
C110   O491    1.411   .     S
C110   H297    1.109   .     S
C110   H295    1.113   .     S
C111   H298    1.114   .     S
C111   H300    1.113   .     S
C111   O492    1.410   .     S
C111   H299    1.109   .     S
C112   H305    1.084   .     S
C113   C135    1.399   .     A
C113   C138    1.460   .     S
C113   C1195   1.399   .     S
C114   H302    1.115   .     S
C114   O395    1.412   .     S
C114   H303    1.109   .     S
C114   H304    1.111   .     S
C115   C190    1.399   .     A
C115   C143    1.460   .     S
C115   C1051   1.399   .     S
C116   C1160   1.458   .     S
C116   C1018   1.398   .     S
C117   C141    1.458   .     S
C117   C565    1.398   1_455 S
C118   C142    1.460   .     S
C118   C532    1.399   1_455 S
C119   C198    1.410   .     A
C119   O442    1.384   .     S
C119   C125    1.405   .     A
C120   C123    1.404   .     A
C120   C199    1.408   .     A
C120   O443    1.384   .     S
C121   O444    1.386   .     S
C121   C127    1.403   .     A
C121   C200    1.411   .     A
C122   O445    1.384   .     S
C122   C126    1.403   .     A
C123   O446    1.384   .     S
C124   H316    1.084   .     S
C124   C1117   1.397   1_545 S
C125   O447    1.384   .     S
C126   O448    1.384   .     S
C127   O450    1.384   .     S
C128   O451    1.384   .     S
C128   C133    1.404   1_556 S
C129   O452    1.384   .     S
C129   C132    1.404   1_554 S
C130   O453    1.384   .     S
C130   C136    1.404   1_556 S
C131   O454    1.384   .     S
C131   C134    1.404   1_554 S
C132   O455    1.384   .     S
C132   C129    1.404   1_556 S
C133   O456    1.384   .     S
C133   C128    1.404   1_554 S
C134   O457    1.384   .     S
C134   C131    1.404   1_556 S
C135   H327    1.084   .     S
C136   O458    1.384   .     S
C136   C130    1.404   1_554 S
C137   O438    1.279   .     A
C137   O1498   1.280   .     S
C138   O394    1.279   .     A
C138   O1465   1.280   .     S
C139   O460    1.280   .     A
C139   O904    1.280   1_455 S
C140   O397    1.279   .     A
C140   O979    1.279   1_455 S
C141   O398    1.279   .     S
C141   O402    1.279   .     S
C142   O399    1.280   .     S
C142   O403    1.280   .     S
C143   O1416   1.280   .     S
C143   O1420   1.280   .     S
C144   C1132   1.458   1_545 S
C144   O401    1.280   .     S
C144   O406    1.279   .     S
C145   O407    1.279   .     A
C145   O435    1.279   .     A
C146   H338    1.084   .     S
C146   C198    1.397   .     A
C147   O436    1.279   .     A
C147   O408    1.279   .     A
C148   O409    1.280   .     A
C148   O433    1.281   .     A
C149   O410    1.279   .     A
C149   O434    1.278   .     A
C150   O411    1.280   .     A
C150   O440    1.280   .     A
C151   O412    1.279   .     A
C151   O441    1.279   .     A
C152   O413    1.281   .     A
C152   O437    1.280   .     A
C153   O439    1.279   .     A
C153   O414    1.278   .     A
C154   O426    1.280   .     A
C154   O415    1.280   .     A
C155   O417    1.278   .     A
C155   O428    1.279   .     A
C156   O418    1.279   .     A
C156   O424    1.279   .     A
C157   H349    1.084   .     S
C157   C199    1.397   .     A
C157   C598    1.397   .     S
C158   O425    1.279   .     A
C158   O419    1.279   .     A
C159   O420    1.280   .     A
C159   O431    1.280   .     A
C160   O432    1.278   .     A
C160   O421    1.279   .     A
C161   O422    1.280   .     A
C161   O429    1.280   .     A
C162   O430    1.279   .     A
C162   O423    1.279   .     A
C163   O459    1.384   .     S
C163   C180    1.397   .     A
C164   O461    1.385   .     S
C164   C178    1.398   .     A
C165   O462    1.386   .     S
C165   C177    1.395   .     A
C166   C176    1.395   .     A
C166   O463    1.386   .     S
C167   O464    1.384   .     S
C167   C175    1.397   .     A
C168   C200    1.397   .     A
C168   H360    1.083   .     S
C169   C174    1.397   .     A
C169   O465    1.385   .     S
C170   O466    1.384   .     S
C170   C173    1.398   .     A
C171   O467    1.385   .     S
C171   C172    1.398   .     A
C172   O468    1.384   .     S
C173   O469    1.385   .     S
C174   O470    1.384   .     S
C175   O472    1.385   .     S
C176   O473    1.386   .     S
C177   O474    1.386   .     S
C178   O475    1.384   .     S
C179   H371    1.084   .     S
C179   C1129   1.399   1_545 S
C180   O476    1.385   .     S
C181   C197    1.397   .     A
C181   O477    1.384   .     S
C182   C196    1.397   .     A
C182   O478    1.385   .     S
C183   C195    1.396   .     A
C183   O479    1.386   .     S
C184   C194    1.395   .     A
C184   O480    1.386   .     S
C185   O481    1.384   .     S
C185   C193    1.398   .     A
C186   O483    1.385   .     S
C186   C192    1.397   .     A
C187   O484    1.384   .     S
C187   C191    1.398   .     A
C188   O485    1.385   .     S
C188   C189    1.398   .     A
C189   O486    1.384   .     S
C190   H382    1.084   .     S
C191   O487    1.385   .     S
C192   O488    1.384   .     S
C193   O489    1.385   .     S
C194   O490    1.386   .     S
C195   O491    1.386   .     S
C196   O492    1.384   .     S
C197   O395    1.385   .     S
C199   C544    1.415   .     A
H350   C1078   1.111   .     S
H352   C1079   1.114   1_545 S
H353   C1079   1.115   1_545 S
H355   C1080   1.111   1_545 S
H379   C582    1.114   .     S
H380   C582    1.115   .     S
H383   C583    1.111   .     S
H388   C585    1.111   1_455 S
O393   Zn496   1.946   .     S
O393   Zn504   1.946   .     S
O393   Zn493   1.946   .     S
O393   Zn1516  1.946   1_545 S
O394   Zn495   1.948   .     S
O396   Zn498   1.948   .     S
O396   C647    1.280   .     S
O397   Zn497   1.948   .     S
O398   Zn507   1.948   .     S
O399   Zn506   1.948   .     S
O400   Zn501   1.948   .     S
O400   C1159   1.280   1_545 S
O401   Zn493   1.948   .     S
O402   Zn503   1.948   .     S
O403   Zn502   1.948   .     S
O404   Zn505   1.948   .     S
O404   C1159   1.280   1_545 S
O405   Zn505   1.946   .     S
O405   Zn501   1.946   .     S
O405   Zn499   1.946   .     S
O405   Zn1511  1.946   1_545 S
O406   Zn504   1.948   .     S
O407   Zn496   1.935   .     S
O408   Zn495   1.935   .     S
O409   Zn498   1.934   .     S
O410   Zn497   1.934   .     S
O411   Zn500   1.935   .     S
O412   Zn499   1.935   .     S
O413   Zn494   1.934   .     S
O414   Zn508   1.934   .     S
O415   Zn495   1.934   .     S
O416   Zn502   1.946   .     S
O416   Zn1006  1.946   1_455 S
O416   Zn494   1.946   .     S
O416   Zn506   1.946   .     S
O417   Zn496   1.934   .     S
O418   Zn508   1.935   .     S
O419   Zn494   1.935   .     S
O420   Zn499   1.934   .     S
O421   Zn500   1.934   .     S
O422   Zn497   1.934   .     S
O423   Zn498   1.934   .     S
O424   Zn1011  1.935   .     S
O425   Zn502   1.935   .     S
O426   Zn1521  1.934   .     S
O427   Zn507   1.946   .     S
O427   Zn1016  1.946   1_455 S
O427   Zn497   1.946   .     S
O427   Zn503   1.946   .     S
O428   Zn504   1.934   .     S
O429   Zn507   1.935   .     S
O430   Zn1014  1.935   .     S
O431   Zn501   1.934   .     S
O432   Zn1509  1.934   .     S
O433   Zn1010  1.934   .     S
O434   Zn503   1.934   .     S
O435   Zn493   1.935   .     S
O436   Zn1517  1.935   .     S
O437   Zn506   1.934   .     S
O438   Zn500   1.948   .     S
O439   Zn1015  1.934   .     S
O440   Zn1520  1.934   .     S
O441   Zn505   1.934   .     S
O449   Zn499   1.948   .     S
O449   C1154   1.280   1_545 S
O451   C1077   1.412   1_545 S
O458   C584    1.413   .     S
O460   Zn494   1.948   .     S
O471   Zn508   1.948   .     S
O471   C648    1.279   .     S
O482   Zn496   1.948   .     S
O482   C1153   1.280   1_545 S
Zn493  O1448   1.934   1_545 S
Zn495  O1421   1.946   .     S
Zn498  O924    1.946   .     S
Zn500  O1409   1.946   .     S
Zn501  O1452   1.935   1_545 S
Zn502  O941    1.934   1_455 S
Zn503  O932    1.935   1_455 S
Zn504  O1456   1.934   1_545 S
Zn505  O1442   1.934   1_545 S
Zn506  O938    1.935   1_455 S
Zn507  O947    1.934   1_455 S
Zn508  O935    1.946   .     S
C509   H709    1.084   .     S
C509   C512    1.397   .     A
C509   C79     1.399   1_655 S
C510   H710    1.084   .     S
C510   C522    1.397   .     A
C510   C1640   1.398   1_545 S
C511   C687    1.397   .     A
C511   C630    1.410   .     A
C511   C1562   1.416   1_545 S
C512   C631    1.410   .     A
C512   C34     1.416   1_655 S
C513   C620    1.397   .     A
C513   C633    1.408   .     A
C513   C544    1.415   .     S
C514   C634    1.408   .     A
C514   C632    1.396   .     A
C514   C1561   1.415   1_545 S
C515   C635    1.410   .     A
C515   C643    1.397   .     A
C515   C546    1.415   .     A
C516   C543    1.397   .     A
C516   C636    1.410   .     A
C516   C1563   1.415   1_545 S
C517   C554    1.397   .     A
C517   C548    1.414   .     A
C517   C637    1.408   .     A
C518   C638    1.408   .     A
C518   C565    1.397   .     A
C518   C41     1.415   1_655 S
C519   C576    1.397   .     A
C519   C550    1.416   .     A
C519   C639    1.410   .     A
C520   C640    1.410   .     A
C520   C547    1.416   .     A
C520   C698    1.397   .     A
C521   H721    1.084   .     S
C521   C523    1.397   .     A
C521   C625    1.397   .     A
C522   C641    1.408   .     A
C522   C1564   1.415   1_545 S
C523   C642    1.408   .     A
C523   C549    1.415   .     A
C524   C644    1.410   .     A
C524   C532    1.397   .     A
C524   C42     1.415   1_655 S
C525   C690    1.409   .     A
C525   C660    1.456   .     S
C525   C688    1.410   .     A
C526   C689    1.406   .     A
C526   C686    1.406   .     A
C526   C661    1.451   .     S
C527   C692    1.410   .     A
C527   C653    1.454   .     S
C527   C685    1.410   .     A
C528   C655    1.452   .     S
C528   C684    1.412   .     A
C528   C691    1.412   .     A
C529   C694    1.410   .     A
C529   C656    1.456   .     S
C529   C683    1.410   .     A
C530   C657    1.451   .     S
C530   C682    1.406   .     A
C530   C693    1.406   .     A
C531   C696    1.410   .     A
C531   C658    1.457   .     S
C531   C681    1.410   .     A
C532   H732    1.084   .     S
C532   C118    1.399   1_655 S
C533   C695    1.406   .     A
C533   C659    1.451   .     S
C533   C680    1.406   .     A
C534   C699    1.410   .     A
C534   C669    1.457   .     S
C534   C679    1.410   .     A
C535   C670    1.451   .     S
C535   C697    1.406   .     A
C535   C678    1.406   .     A
C536   C677    1.409   .     A
C536   C662    1.456   .     S
C536   C701    1.409   .     A
C537   C663    1.451   .     S
C537   C700    1.407   .     A
C537   C675    1.407   .     A
C538   C664    1.454   .     S
C538   C703    1.410   .     A
C538   C674    1.410   .     A
C539   C673    1.412   .     A
C539   C666    1.452   .     S
C539   C702    1.412   .     A
C540   C667    1.456   .     S
C540   C672    1.410   .     A
C540   C705    1.409   .     A
C541   C704    1.406   .     A
C541   C668    1.451   .     S
C541   C671    1.407   .     A
C542   C706    1.416   .     A
C542   C544    1.403   .     S
C543   H743    1.084   .     S
C543   C1639   1.399   1_545 S
C545   C546    1.403   .     A
C545   C708    1.415   .     A
C545   C1530   1.415   .     S
C546   C1527   1.416   .     S
C547   C1532   1.415   .     S
C547   C548    1.403   1_556 S
C548   C1538   1.415   .     S
C548   C547    1.403   1_554 S
C549   C550    1.403   1_556 S
C550   C549    1.403   1_554 S
C551   C552    1.521   .     S
C551   H787    1.113   .     S
C551   O950    1.412   .     S
C551   H798    1.115   .     S
C552   H809    1.111   .     S
C552   H815    1.109   .     S
C552   H814    1.110   .     S
C553   C555    1.521   .     S
C553   H817    1.115   .     S
C553   O951    1.412   .     S
C553   H816    1.114   .     S
C554   H754    1.084   .     S
C554   C624    1.397   .     A
C555   H818    1.111   .     S
C555   H819    1.111   .     S
C555   H820    1.109   .     S
C556   H822    1.117   .     S
C556   C557    1.525   .     S
C556   O952    1.417   .     S
C556   H821    1.111   .     S
C557   H825    1.110   .     S
C557   H823    1.109   .     S
C557   H826    1.110   .     S
C558   H828    1.113   .     S
C558   C559    1.521   .     S
C558   O953    1.413   .     S
C558   H827    1.116   .     S
C559   H830    1.111   .     S
C559   H831    1.110   .     S
C559   H829    1.109   .     S
C560   O954    1.413   .     S
C560   H832    1.115   .     S
C560   C561    1.521   .     S
C560   H833    1.113   .     S
C561   H836    1.111   .     S
C561   H837    1.110   .     S
C561   H834    1.109   .     S
C562   H839    1.114   .     S
C562   C563    1.521   .     S
C562   O955    1.412   .     S
C562   H838    1.115   .     S
C563   H841    1.111   .     S
C563   H840    1.110   .     S
C563   H842    1.111   .     S
C564   H844    1.115   .     S
C564   O956    1.412   .     S
C564   C566    1.521   .     S
C564   H843    1.114   .     S
C565   H765    1.084   .     S
C565   C117    1.398   1_655 S
C566   H848    1.110   .     S
C566   H847    1.111   .     S
C566   H845    1.111   .     S
C567   O958    1.412   .     S
C567   H850    1.115   .     S
C567   C568    1.521   .     S
C567   H849    1.113   .     S
C568   H853    1.110   .     S
C568   H851    1.111   .     S
C568   H852    1.111   .     S
C569   H855    1.115   .     S
C569   H854    1.113   .     S
C569   C1586   1.521   .     S
C569   O1975   1.412   .     S
C570   H856    1.111   .     S
C570   H859    1.110   .     S
C570   C1585   1.521   1_545 S
C570   H1874   1.111   1_545 S
C571   C572    1.521   .     S
C571   O960    1.412   .     S
C571   H1876   1.114   .     S
C571   H1877   1.115   .     S
C572   H862    1.111   .     S
C572   H864    1.110   .     S
C572   H1879   1.111   .     S
C573   H865    1.115   .     S
C573   H866    1.114   .     S
C573   O961    1.412   .     S
C573   C574    1.521   .     S
C574   H869    1.111   .     S
C574   H870    1.111   .     S
C574   H867    1.110   .     S
C575   C577    1.521   .     S
C575   H871    1.116   .     S
C575   O962    1.413   .     S
C575   H872    1.113   .     S
C576   C626    1.399   .     A
C576   H776    1.084   .     S
C577   H873    1.109   .     S
C577   H875    1.110   .     S
C577   H874    1.111   .     S
C578   H877    1.113   .     S
C578   H876    1.116   .     S
C578   O963    1.413   .     S
C578   C579    1.521   .     S
C579   H880    1.111   .     S
C579   H878    1.109   .     S
C579   H881    1.110   .     S
C580   C581    1.521   .     S
C580   O964    1.412   .     S
C580   H883    1.114   .     S
C580   H882    1.115   .     S
C581   H884    1.110   .     S
C581   H886    1.111   .     S
C581   H885    1.111   .     S
C582   O965    1.412   .     S
C582   C583    1.521   .     S
C583   H892    1.110   .     S
C583   H889    1.111   .     S
C584   H893    1.113   .     S
C584   H894    1.116   .     S
C585   H897    1.110   .     S
C585   H895    1.111   .     S
C585   C76     1.521   1_655 S
C585   H388    1.111   1_655 S
C586   H899    1.110   .     S
C586   H900    1.113   .     S
C586   H898    1.113   .     S
C586   O967    1.410   .     S
C587   C647    1.460   .     S
C587   C654    1.399   .     A
C588   H711    1.115   .     S
C588   O969    1.411   .     S
C588   H712    1.109   .     S
C588   H713    1.111   .     S
C589   O970    1.415   .     S
C589   H715    1.115   .     S
C589   H714    1.109   .     S
C589   H716    1.109   .     S
C590   H717    1.113   .     S
C590   O971    1.411   .     S
C590   H718    1.109   .     S
C590   H719    1.109   .     S
C591   H723    1.113   .     S
C591   H722    1.109   .     S
C591   O972    1.410   .     S
C591   H720    1.114   .     S
C592   H726    1.111   .     S
C592   O973    1.412   .     S
C592   H725    1.109   .     S
C592   H724    1.115   .     S
C593   O974    1.410   .     S
C593   H728    1.109   .     S
C593   H727    1.113   .     S
C593   H729    1.113   .     S
C594   H731    1.109   .     S
C594   O975    1.412   .     S
C594   H733    1.111   .     S
C594   H730    1.114   .     S
C595   H736    1.113   .     S
C595   H734    1.113   .     S
C595   H735    1.109   .     S
C595   O976    1.410   .     S
C596   H738    1.109   .     S
C596   H737    1.114   .     S
C596   H739    1.111   .     S
C596   O977    1.412   .     S
C597   O978    1.410   .     S
C597   H741    1.110   .     S
C597   H740    1.113   .     S
C597   H742    1.113   .     S
C598   C648    1.458   .     S
C598   C620    1.398   .     A
C599   H745    1.109   .     S
C599   H744    1.115   .     S
C599   O980    1.411   .     S
C599   H746    1.111   .     S
C600   H747    1.109   .     S
C600   H749    1.109   .     S
C600   H748    1.115   .     S
C600   O981    1.415   .     S
C601   H752    1.109   .     S
C601   H750    1.113   .     S
C601   O982    1.411   .     S
C601   H751    1.109   .     S
C602   H755    1.109   .     S
C602   H753    1.114   .     S
C602   H756    1.113   .     S
C602   O983    1.410   .     S
C603   O984    1.412   .     S
C603   H758    1.109   .     S
C603   H759    1.111   .     S
C603   H757    1.115   .     S
C604   H762    1.113   .     S
C604   H761    1.110   .     S
C604   O985    1.410   .     S
C604   H760    1.113   .     S
C605   O986    1.411   .     S
C605   H764    1.109   .     S
C605   H766    1.111   .     S
C605   H763    1.115   .     S
C606   H767    1.109   .     S
C606   O987    1.415   .     S
C606   H768    1.115   .     S
C606   H769    1.109   .     S
C607   O988    1.411   .     S
C607   H770    1.113   .     S
C607   H771    1.109   .     S
C607   H772    1.109   .     S
C608   H774    1.109   .     S
C608   O989    1.410   .     S
C608   H773    1.114   .     S
C608   H775    1.113   .     S
C609   C645    1.458   .     S
C609   C676    1.398   .     A
C609   C1648   1.397   .     S
C610   H779    1.111   .     S
C610   H777    1.115   .     S
C610   O991    1.412   .     S
C610   H778    1.109   .     S
C611   H782    1.113   .     S
C611   H781    1.109   .     S
C611   H780    1.113   .     S
C611   O992    1.410   .     S
C612   H784    1.109   .     S
C612   H785    1.111   .     S
C612   O993    1.412   .     S
C612   H783    1.114   .     S
C613   H789    1.113   .     S
C613   H786    1.113   .     S
C613   O994    1.410   .     S
C613   H788    1.109   .     S
C614   O995    1.412   .     S
C614   H792    1.111   .     S
C614   H790    1.114   .     S
C614   H791    1.109   .     S
C615   H794    1.110   .     S
C615   O996    1.410   .     S
C615   H795    1.113   .     S
C615   H793    1.113   .     S
C616   H799    1.111   .     S
C616   O997    1.411   .     S
C616   H796    1.114   .     S
C616   H797    1.109   .     S
C617   O998    1.415   .     S
C617   H801    1.115   .     S
C617   H800    1.109   .     S
C617   H802    1.109   .     S
C618   H804    1.109   .     S
C618   O999    1.411   .     S
C618   H805    1.109   .     S
C618   H803    1.113   .     S
C619   H806    1.114   .     S
C619   H808    1.113   .     S
C619   O1000   1.410   .     S
C619   H807    1.109   .     S
C620   H813    1.084   .     S
C621   C643    1.399   .     A
C621   C646    1.460   .     S
C621   C1703   1.399   .     S
C622   H810    1.115   .     S
C622   O903    1.412   .     S
C622   H811    1.109   .     S
C622   H812    1.111   .     S
C623   C698    1.399   .     A
C623   C651    1.460   .     S
C623   C1559   1.399   .     S
C624   C1668   1.458   .     S
C624   C1526   1.398   .     S
C625   C649    1.458   .     S
C626   C650    1.460   .     S
C627   C706    1.410   .     A
C627   O950    1.384   .     S
C627   C633    1.405   .     A
C628   C631    1.404   .     A
C628   C707    1.408   .     A
C628   O951    1.384   .     S
C629   O952    1.386   .     S
C629   C635    1.403   .     A
C629   C708    1.411   .     A
C630   O953    1.384   .     S
C630   C634    1.403   .     A
C631   O954    1.384   .     S
C632   H824    1.084   .     S
C632   C1625   1.397   1_545 S
C633   O955    1.384   .     S
C634   O956    1.384   .     S
C635   O958    1.384   .     S
C636   O959    1.384   .     S
C636   C641    1.404   1_556 S
C637   O960    1.384   .     S
C637   C640    1.404   1_554 S
C638   O961    1.384   .     S
C638   C644    1.404   1_556 S
C639   O962    1.384   .     S
C639   C642    1.404   1_554 S
C640   O963    1.384   .     S
C640   C637    1.404   1_556 S
C641   O964    1.384   .     S
C641   C636    1.404   1_554 S
C642   O965    1.384   .     S
C642   C639    1.404   1_556 S
C643   H835    1.084   .     S
C644   O966    1.384   .     S
C644   C638    1.404   1_554 S
C645   O946    1.279   .     A
C645   O2006   1.280   .     S
C646   O902    1.279   .     A
C646   O1973   1.280   .     S
C647   O968    1.280   .     A
C648   O905    1.279   .     A
C649   O906    1.279   .     S
C649   O910    1.279   .     S
C650   O907    1.280   .     S
C650   O911    1.280   .     S
C651   O1924   1.280   .     S
C651   O1928   1.280   .     S
C652   C1640   1.458   1_545 S
C652   O909    1.280   .     S
C652   O914    1.279   .     S
C653   O915    1.279   .     A
C653   O943    1.279   .     A
C654   H846    1.084   .     S
C654   C706    1.397   .     A
C655   O944    1.279   .     A
C655   O916    1.279   .     A
C656   O917    1.280   .     A
C656   O941    1.281   .     A
C657   O918    1.279   .     A
C657   O942    1.278   .     A
C658   O919    1.280   .     A
C658   O948    1.280   .     A
C659   O920    1.279   .     A
C659   O949    1.279   .     A
C660   O921    1.281   .     A
C660   O945    1.280   .     A
C661   O947    1.279   .     A
C661   O922    1.278   .     A
C662   O934    1.280   .     A
C662   O923    1.280   .     A
C663   O925    1.278   .     A
C663   O936    1.279   .     A
C664   O926    1.279   .     A
C664   O932    1.279   .     A
C665   H857    1.084   .     S
C665   C707    1.397   .     A
C665   C90     1.397   1_655 S
C666   O933    1.279   .     A
C666   O927    1.279   .     A
C667   O928    1.280   .     A
C667   O939    1.280   .     A
C668   O940    1.278   .     A
C668   O929    1.279   .     A
C669   O930    1.280   .     A
C669   O937    1.280   .     A
C670   O938    1.279   .     A
C670   O931    1.279   .     A
C671   O967    1.384   .     S
C671   C688    1.397   .     A
C672   O969    1.385   .     S
C672   C686    1.398   .     A
C673   O970    1.386   .     S
C673   C685    1.395   .     A
C674   C684    1.395   .     A
C674   O971    1.386   .     S
C675   O972    1.384   .     S
C675   C683    1.397   .     A
C676   C708    1.397   .     A
C676   H868    1.083   .     S
C677   C682    1.397   .     A
C677   O973    1.385   .     S
C678   O974    1.384   .     S
C678   C681    1.398   .     A
C679   O975    1.385   .     S
C679   C680    1.398   .     A
C680   O976    1.384   .     S
C681   O977    1.385   .     S
C682   O978    1.384   .     S
C683   O980    1.385   .     S
C684   O981    1.386   .     S
C685   O982    1.386   .     S
C686   O983    1.384   .     S
C687   H879    1.084   .     S
C687   C1637   1.399   1_545 S
C688   O984    1.385   .     S
C689   C705    1.397   .     A
C689   O985    1.384   .     S
C690   C704    1.397   .     A
C690   O986    1.385   .     S
C691   C703    1.396   .     A
C691   O987    1.386   .     S
C692   C702    1.395   .     A
C692   O988    1.386   .     S
C693   O989    1.384   .     S
C693   C701    1.398   .     A
C694   O991    1.385   .     S
C694   C700    1.397   .     A
C695   O992    1.384   .     S
C695   C699    1.398   .     A
C696   O993    1.385   .     S
C696   C697    1.398   .     A
C697   O994    1.384   .     S
C698   H890    1.084   .     S
C699   O995    1.385   .     S
C700   O996    1.384   .     S
C701   O997    1.385   .     S
C702   O998    1.386   .     S
C703   O999    1.386   .     S
C704   O1000   1.384   .     S
C705   O903    1.385   .     S
C707   C36     1.415   1_655 A
H858   C1586   1.111   .     S
H860   C1587   1.114   1_545 S
H861   C1587   1.115   1_545 S
H863   C1588   1.111   1_545 S
H887   C74     1.114   1_655 S
H888   C74     1.115   1_655 S
H891   C75     1.111   1_655 S
O901   Zn1004  1.946   .     S
O901   Zn1012  1.946   .     S
O901   Zn1001  1.946   .     S
O901   Zn2024  1.946   1_545 S
O902   Zn1003  1.948   .     S
O904   Zn1006  1.948   .     S
O904   C139    1.280   1_655 S
O905   Zn1005  1.948   .     S
O906   Zn1015  1.948   .     S
O907   Zn1014  1.948   .     S
O908   Zn1009  1.948   .     S
O908   C1667   1.280   1_545 S
O909   Zn1001  1.948   .     S
O910   Zn1011  1.948   .     S
O911   Zn1010  1.948   .     S
O912   Zn1013  1.948   .     S
O912   C1667   1.280   1_545 S
O913   Zn1013  1.946   .     S
O913   Zn1009  1.946   .     S
O913   Zn1007  1.946   .     S
O913   Zn2019  1.946   1_545 S
O914   Zn1012  1.948   .     S
O915   Zn1004  1.935   .     S
O916   Zn1003  1.935   .     S
O917   Zn1006  1.934   .     S
O918   Zn1005  1.934   .     S
O919   Zn1008  1.935   .     S
O920   Zn1007  1.935   .     S
O921   Zn1002  1.934   .     S
O922   Zn1016  1.934   .     S
O923   Zn1003  1.934   .     S
O924   Zn1010  1.946   .     S
O924   Zn1002  1.946   .     S
O924   Zn1014  1.946   .     S
O925   Zn1004  1.934   .     S
O926   Zn1016  1.935   .     S
O927   Zn1002  1.935   .     S
O928   Zn1007  1.934   .     S
O929   Zn1008  1.934   .     S
O930   Zn1005  1.934   .     S
O931   Zn1006  1.934   .     S
O932   Zn503   1.935   1_655 S
O933   Zn1010  1.935   .     S
O934   Zn2029  1.934   .     S
O935   Zn1015  1.946   .     S
O935   Zn1005  1.946   .     S
O935   Zn1011  1.946   .     S
O936   Zn1012  1.934   .     S
O937   Zn1015  1.935   .     S
O938   Zn506   1.935   1_655 S
O939   Zn1009  1.934   .     S
O940   Zn2017  1.934   .     S
O941   Zn502   1.934   1_655 S
O942   Zn1011  1.934   .     S
O943   Zn1001  1.935   .     S
O944   Zn2025  1.935   .     S
O945   Zn1014  1.934   .     S
O946   Zn1008  1.948   .     S
O947   Zn507   1.934   1_655 S
O948   Zn2028  1.934   .     S
O949   Zn1013  1.934   .     S
O957   Zn1007  1.948   .     S
O957   C1662   1.280   1_545 S
O959   C1585   1.412   1_545 S
O966   C76     1.413   1_655 S
O968   Zn1002  1.948   .     S
O979   Zn1016  1.948   .     S
O979   C140    1.279   1_655 S
O990   Zn1004  1.948   .     S
O990   C1661   1.280   1_545 S
Zn1001 O1956   1.934   1_545 S
Zn1003 O1929   1.946   .     S
Zn1006 O416    1.946   1_655 S
Zn1008 O1917   1.946   .     S
Zn1009 O1960   1.935   1_545 S
Zn1012 O1964   1.934   1_545 S
Zn1013 O1950   1.934   1_545 S
Zn1016 O427    1.946   1_655 S
C1017  H1217   1.084   .     S
C1017  C1020   1.397   .     A
C1017  C1603   1.399   .     S
C1018  H1218   1.084   .     S
C1018  C1030   1.397   .     A
C1019  C1195   1.397   .     A
C1019  C1138   1.410   .     A
C1020  C1139   1.410   .     A
C1020  C1558   1.416   .     S
C1021  C1128   1.397   .     A
C1021  C1141   1.408   .     A
C1021  C1052   1.415   .     S
C1022  C1142   1.408   .     A
C1022  C1140   1.396   .     A
C1023  C1143   1.410   .     A
C1023  C1151   1.397   .     A
C1023  C1054   1.415   .     A
C1024  C1051   1.397   .     A
C1024  C1144   1.410   .     A
C1025  C1062   1.397   .     A
C1025  C1056   1.414   .     A
C1025  C1145   1.408   .     A
C1026  C1146   1.408   .     A
C1026  C1073   1.397   .     A
C1026  C1565   1.415   .     S
C1027  C1084   1.397   .     A
C1027  C1058   1.416   .     A
C1027  C1147   1.410   .     A
C1028  C1148   1.410   .     A
C1028  C1055   1.416   .     A
C1028  C1206   1.397   .     A
C1029  H1229   1.084   .     S
C1029  C1031   1.397   .     A
C1029  C1133   1.397   .     A
C1030  C1149   1.408   .     A
C1031  C1150   1.408   .     A
C1031  C1057   1.415   .     A
C1032  C1152   1.410   .     A
C1032  C1040   1.397   .     A
C1032  C1566   1.415   .     S
C1033  C1198   1.409   .     A
C1033  C1168   1.456   .     S
C1033  C1196   1.410   .     A
C1034  C1197   1.406   .     A
C1034  C1194   1.406   .     A
C1034  C1169   1.451   .     S
C1035  C1200   1.410   .     A
C1035  C1161   1.454   .     S
C1035  C1193   1.410   .     A
C1036  C1163   1.452   .     S
C1036  C1192   1.412   .     A
C1036  C1199   1.412   .     A
C1037  C1202   1.410   .     A
C1037  C1164   1.456   .     S
C1037  C1191   1.410   .     A
C1038  C1165   1.451   .     S
C1038  C1190   1.406   .     A
C1038  C1201   1.406   .     A
C1039  C1204   1.410   .     A
C1039  C1166   1.457   .     S
C1039  C1189   1.410   .     A
C1040  H1240   1.084   .     S
C1040  C1642   1.399   .     S
C1041  C1203   1.406   .     A
C1041  C1167   1.451   .     S
C1041  C1188   1.406   .     A
C1042  C1207   1.410   .     A
C1042  C1177   1.457   .     S
C1042  C1187   1.410   .     A
C1043  C1178   1.451   .     S
C1043  C1205   1.406   .     A
C1043  C1186   1.406   .     A
C1044  C1185   1.409   .     A
C1044  C1170   1.456   .     S
C1044  C1209   1.409   .     A
C1045  C1171   1.451   .     S
C1045  C1208   1.407   .     A
C1045  C1183   1.407   .     A
C1046  C1172   1.454   .     S
C1046  C1211   1.410   .     A
C1046  C1182   1.410   .     A
C1047  C1181   1.412   .     A
C1047  C1174   1.452   .     S
C1047  C1210   1.412   .     A
C1048  C1175   1.456   .     S
C1048  C1180   1.410   .     A
C1048  C1213   1.409   .     A
C1049  C1212   1.406   .     A
C1049  C1176   1.451   .     S
C1049  C1179   1.407   .     A
C1050  C1214   1.416   .     A
C1050  C1528   1.416   1_455 S
C1050  C1052   1.403   .     S
C1051  H1251   1.084   .     S
C1052  C1723   1.415   1_455 A
C1053  C1054   1.403   .     A
C1053  C1216   1.415   .     A
C1053  C6      1.415   1_565 S
C1054  C3      1.416   1_565 S
C1055  C8      1.415   1_565 S
C1055  C1056   1.403   1_556 S
C1056  C14     1.415   1_565 S
C1056  C1055   1.403   1_554 S
C1057  C1534   1.415   1_455 S
C1057  C1058   1.403   1_556 S
C1058  C1540   1.415   1_455 S
C1058  C1057   1.403   1_554 S
C1059  C1060   1.521   .     S
C1059  H1295   1.113   .     S
C1059  O1458   1.412   .     S
C1059  H1306   1.115   .     S
C1060  H1317   1.111   .     S
C1060  H1323   1.109   .     S
C1060  H1322   1.110   .     S
C1061  C1063   1.521   .     S
C1061  H1325   1.115   .     S
C1061  O1459   1.412   .     S
C1061  H1324   1.114   .     S
C1062  H1262   1.084   .     S
C1062  C1132   1.397   .     A
C1063  H1326   1.111   .     S
C1063  H1327   1.111   .     S
C1063  H1328   1.109   .     S
C1064  H1330   1.117   .     S
C1064  C1065   1.525   .     S
C1064  O1460   1.417   .     S
C1064  H1329   1.111   .     S
C1065  H1333   1.110   .     S
C1065  H1331   1.109   .     S
C1065  H1334   1.110   .     S
C1066  H1336   1.113   .     S
C1066  C1067   1.521   .     S
C1066  O1461   1.413   .     S
C1066  H1335   1.116   .     S
C1067  H1338   1.111   .     S
C1067  H1339   1.110   .     S
C1067  H1337   1.109   .     S
C1068  O1462   1.413   .     S
C1068  H1340   1.115   .     S
C1068  C1069   1.521   .     S
C1068  H1341   1.113   .     S
C1069  H1344   1.111   .     S
C1069  H1345   1.110   .     S
C1069  H1342   1.109   .     S
C1070  H1347   1.114   .     S
C1070  C1071   1.521   .     S
C1070  O1463   1.412   .     S
C1070  H1346   1.115   .     S
C1071  H1349   1.111   .     S
C1071  H1348   1.110   .     S
C1071  H1350   1.111   .     S
C1072  H1352   1.115   .     S
C1072  O1464   1.412   .     S
C1072  C1074   1.521   .     S
C1072  H1351   1.114   .     S
C1073  H1273   1.084   .     S
C1073  C1641   1.398   .     S
C1074  H1356   1.110   .     S
C1074  H1355   1.111   .     S
C1074  H1353   1.111   .     S
C1075  O1466   1.412   .     S
C1075  H1358   1.115   .     S
C1075  C1076   1.521   .     S
C1075  H1357   1.113   .     S
C1076  H1361   1.110   .     S
C1076  H1359   1.111   .     S
C1076  H1360   1.111   .     S
C1077  H1363   1.115   .     S
C1077  H1362   1.113   .     S
C1077  C62     1.521   1_565 S
C1077  O451    1.412   1_565 S
C1078  H1364   1.111   .     S
C1078  H1367   1.110   .     S
C1079  C1080   1.521   .     S
C1079  O1468   1.412   .     S
C1079  H352    1.114   1_565 S
C1079  H353    1.115   1_565 S
C1080  H1370   1.111   .     S
C1080  H1372   1.110   .     S
C1080  H355    1.111   1_565 S
C1081  H1373   1.115   .     S
C1081  H1374   1.114   .     S
C1081  O1469   1.412   .     S
C1081  C1082   1.521   .     S
C1082  H1377   1.111   .     S
C1082  H1378   1.111   .     S
C1082  H1375   1.110   .     S
C1083  C1085   1.521   .     S
C1083  H1379   1.116   .     S
C1083  O1470   1.413   .     S
C1083  H1380   1.113   .     S
C1084  C1134   1.399   .     A
C1084  H1284   1.084   .     S
C1085  H1381   1.109   .     S
C1085  H1383   1.110   .     S
C1085  H1382   1.111   .     S
C1086  H1385   1.113   .     S
C1086  H1384   1.116   .     S
C1086  O1471   1.413   .     S
C1086  C1087   1.521   .     S
C1087  H1388   1.111   .     S
C1087  H1386   1.109   .     S
C1087  H1389   1.110   .     S
C1088  C1089   1.521   .     S
C1088  O1472   1.412   .     S
C1088  H1391   1.114   .     S
C1088  H1390   1.115   .     S
C1089  H1392   1.110   .     S
C1089  H1394   1.111   .     S
C1089  H1393   1.111   .     S
C1090  O1473   1.412   .     S
C1090  C1091   1.521   .     S
C1090  H1903   1.114   1_455 S
C1090  H1904   1.115   1_455 S
C1091  H1400   1.110   .     S
C1091  H1397   1.111   .     S
C1091  H1907   1.111   1_455 S
C1092  H1401   1.113   .     S
C1092  H1402   1.116   .     S
C1092  C1601   1.521   1_455 S
C1092  O1982   1.413   1_455 S
C1093  H1405   1.110   .     S
C1093  H1403   1.111   .     S
C1093  C1600   1.521   .     S
C1093  H1912   1.111   .     S
C1094  H1407   1.110   .     S
C1094  H1408   1.113   .     S
C1094  H1406   1.113   .     S
C1094  O1475   1.410   .     S
C1095  C1155   1.460   .     S
C1095  C1162   1.399   .     A
C1095  C1525   1.399   1_455 S
C1096  H1219   1.115   .     S
C1096  O1477   1.411   .     S
C1096  H1220   1.109   .     S
C1096  H1221   1.111   .     S
C1097  O1478   1.415   .     S
C1097  H1223   1.115   .     S
C1097  H1222   1.109   .     S
C1097  H1224   1.109   .     S
C1098  H1225   1.113   .     S
C1098  O1479   1.411   .     S
C1098  H1226   1.109   .     S
C1098  H1227   1.109   .     S
C1099  H1231   1.113   .     S
C1099  H1230   1.109   .     S
C1099  O1480   1.410   .     S
C1099  H1228   1.114   .     S
C1100  H1234   1.111   .     S
C1100  O1481   1.412   .     S
C1100  H1233   1.109   .     S
C1100  H1232   1.115   .     S
C1101  O1482   1.410   .     S
C1101  H1236   1.109   .     S
C1101  H1235   1.113   .     S
C1101  H1237   1.113   .     S
C1102  H1239   1.109   .     S
C1102  O1483   1.412   .     S
C1102  H1241   1.111   .     S
C1102  H1238   1.114   .     S
C1103  H1244   1.113   .     S
C1103  H1242   1.113   .     S
C1103  H1243   1.109   .     S
C1103  O1484   1.410   .     S
C1104  H1246   1.109   .     S
C1104  H1245   1.114   .     S
C1104  H1247   1.111   .     S
C1104  O1485   1.412   .     S
C1105  O1486   1.410   .     S
C1105  H1249   1.110   .     S
C1105  H1248   1.113   .     S
C1105  H1250   1.113   .     S
C1106  C1156   1.458   .     S
C1106  C1128   1.398   .     A
C1106  C1681   1.397   1_455 S
C1107  H1253   1.109   .     S
C1107  H1252   1.115   .     S
C1107  O1488   1.411   .     S
C1107  H1254   1.111   .     S
C1108  H1255   1.109   .     S
C1108  H1257   1.109   .     S
C1108  H1256   1.115   .     S
C1108  O1489   1.415   .     S
C1109  H1260   1.109   .     S
C1109  H1258   1.113   .     S
C1109  O1490   1.411   .     S
C1109  H1259   1.109   .     S
C1110  H1263   1.109   .     S
C1110  H1261   1.114   .     S
C1110  H1264   1.113   .     S
C1110  O1491   1.410   .     S
C1111  O1492   1.412   .     S
C1111  H1266   1.109   .     S
C1111  H1267   1.111   .     S
C1111  H1265   1.115   .     S
C1112  H1270   1.113   .     S
C1112  H1269   1.110   .     S
C1112  O1493   1.410   .     S
C1112  H1268   1.113   .     S
C1113  O1494   1.411   .     S
C1113  H1272   1.109   .     S
C1113  H1274   1.111   .     S
C1113  H1271   1.115   .     S
C1114  H1275   1.109   .     S
C1114  O1495   1.415   .     S
C1114  H1276   1.115   .     S
C1114  H1277   1.109   .     S
C1115  O1496   1.411   .     S
C1115  H1278   1.113   .     S
C1115  H1279   1.109   .     S
C1115  H1280   1.109   .     S
C1116  H1282   1.109   .     S
C1116  O1497   1.410   .     S
C1116  H1281   1.114   .     S
C1116  H1283   1.113   .     S
C1117  C1153   1.458   .     S
C1117  C1184   1.398   .     A
C1117  C124    1.397   1_565 S
C1118  H1287   1.111   .     S
C1118  H1285   1.115   .     S
C1118  O1499   1.412   .     S
C1118  H1286   1.109   .     S
C1119  H1290   1.113   .     S
C1119  H1289   1.109   .     S
C1119  H1288   1.113   .     S
C1119  O1500   1.410   .     S
C1120  H1292   1.109   .     S
C1120  H1293   1.111   .     S
C1120  O1501   1.412   .     S
C1120  H1291   1.114   .     S
C1121  H1297   1.113   .     S
C1121  H1294   1.113   .     S
C1121  O1502   1.410   .     S
C1121  H1296   1.109   .     S
C1122  O1503   1.412   .     S
C1122  H1300   1.111   .     S
C1122  H1298   1.114   .     S
C1122  H1299   1.109   .     S
C1123  H1302   1.110   .     S
C1123  O1504   1.410   .     S
C1123  H1303   1.113   .     S
C1123  H1301   1.113   .     S
C1124  H1307   1.111   .     S
C1124  O1505   1.411   .     S
C1124  H1304   1.114   .     S
C1124  H1305   1.109   .     S
C1125  O1506   1.415   .     S
C1125  H1309   1.115   .     S
C1125  H1308   1.109   .     S
C1125  H1310   1.109   .     S
C1126  H1312   1.109   .     S
C1126  O1507   1.411   .     S
C1126  H1313   1.109   .     S
C1126  H1311   1.113   .     S
C1127  H1314   1.114   .     S
C1127  H1316   1.113   .     S
C1127  O1508   1.410   .     S
C1127  H1315   1.109   .     S
C1128  H1321   1.084   .     S
C1129  C1151   1.399   .     A
C1129  C1154   1.460   .     S
C1129  C179    1.399   1_565 S
C1130  H1318   1.115   .     S
C1130  O1411   1.412   .     S
C1130  H1319   1.109   .     S
C1130  H1320   1.111   .     S
C1131  C1206   1.399   .     A
C1131  C1159   1.460   .     S
C1131  C35     1.399   1_565 S
C1132  C144    1.458   1_565 S
C1132  C2      1.398   1_565 S
C1133  C1157   1.458   .     S
C1133  C1581   1.398   1_455 S
C1134  C1158   1.460   .     S
C1134  C1548   1.399   1_455 S
C1135  C1214   1.410   .     A
C1135  O1458   1.384   .     S
C1135  C1141   1.405   .     A
C1136  C1139   1.404   .     A
C1136  C1215   1.408   .     A
C1136  O1459   1.384   .     S
C1137  O1460   1.386   .     S
C1137  C1143   1.403   .     A
C1137  C1216   1.411   .     A
C1138  O1461   1.384   .     S
C1138  C1142   1.403   .     A
C1139  O1462   1.384   .     S
C1140  H1332   1.084   .     S
C1141  O1463   1.384   .     S
C1142  O1464   1.384   .     S
C1143  O1466   1.384   .     S
C1144  O1467   1.384   .     S
C1144  C1149   1.404   1_556 S
C1145  O1468   1.384   .     S
C1145  C1148   1.404   1_554 S
C1146  O1469   1.384   .     S
C1146  C1152   1.404   1_556 S
C1147  O1470   1.384   .     S
C1147  C1150   1.404   1_554 S
C1148  O1471   1.384   .     S
C1148  C1145   1.404   1_556 S
C1149  O1472   1.384   .     S
C1149  C1144   1.404   1_554 S
C1150  O1473   1.384   .     S
C1150  C1147   1.404   1_556 S
C1151  H1343   1.084   .     S
C1152  O1474   1.384   .     S
C1152  C1146   1.404   1_554 S
C1153  O1454   1.279   .     A
C1153  O482    1.280   1_565 S
C1154  O1410   1.279   .     A
C1154  O449    1.280   1_565 S
C1155  O1476   1.280   .     A
C1155  O1920   1.280   1_455 S
C1156  O1413   1.279   .     A
C1156  O1995   1.279   1_455 S
C1157  O1414   1.279   .     S
C1157  O1418   1.279   .     S
C1158  O1415   1.280   .     S
C1158  O1419   1.280   .     S
C1159  O400    1.280   1_565 S
C1159  O404    1.280   1_565 S
C1160  O1417   1.280   .     S
C1160  O1422   1.279   .     S
C1161  O1423   1.279   .     A
C1161  O1451   1.279   .     A
C1162  H1354   1.084   .     S
C1162  C1214   1.397   .     A
C1163  O1452   1.279   .     A
C1163  O1424   1.279   .     A
C1164  O1425   1.280   .     A
C1164  O1449   1.281   .     A
C1165  O1426   1.279   .     A
C1165  O1450   1.278   .     A
C1166  O1427   1.280   .     A
C1166  O1456   1.280   .     A
C1167  O1428   1.279   .     A
C1167  O1457   1.279   .     A
C1168  O1429   1.281   .     A
C1168  O1453   1.280   .     A
C1169  O1455   1.279   .     A
C1169  O1430   1.278   .     A
C1170  O1442   1.280   .     A
C1170  O1431   1.280   .     A
C1171  O1433   1.278   .     A
C1171  O1444   1.279   .     A
C1172  O1434   1.279   .     A
C1172  O1440   1.279   .     A
C1173  H1365   1.084   .     S
C1173  C1215   1.397   .     A
C1173  C1614   1.397   .     S
C1174  O1441   1.279   .     A
C1174  O1435   1.279   .     A
C1175  O1436   1.280   .     A
C1175  O1447   1.280   .     A
C1176  O1448   1.278   .     A
C1176  O1437   1.279   .     A
C1177  O1438   1.280   .     A
C1177  O1445   1.280   .     A
C1178  O1446   1.279   .     A
C1178  O1439   1.279   .     A
C1179  O1475   1.384   .     S
C1179  C1196   1.397   .     A
C1180  O1477   1.385   .     S
C1180  C1194   1.398   .     A
C1181  O1478   1.386   .     S
C1181  C1193   1.395   .     A
C1182  C1192   1.395   .     A
C1182  O1479   1.386   .     S
C1183  O1480   1.384   .     S
C1183  C1191   1.397   .     A
C1184  C1216   1.397   .     A
C1184  H1376   1.083   .     S
C1185  C1190   1.397   .     A
C1185  O1481   1.385   .     S
C1186  O1482   1.384   .     S
C1186  C1189   1.398   .     A
C1187  O1483   1.385   .     S
C1187  C1188   1.398   .     A
C1188  O1484   1.384   .     S
C1189  O1485   1.385   .     S
C1190  O1486   1.384   .     S
C1191  O1488   1.385   .     S
C1192  O1489   1.386   .     S
C1193  O1490   1.386   .     S
C1194  O1491   1.384   .     S
C1195  H1387   1.084   .     S
C1196  O1492   1.385   .     S
C1197  C1213   1.397   .     A
C1197  O1493   1.384   .     S
C1198  C1212   1.397   .     A
C1198  O1494   1.385   .     S
C1199  C1211   1.396   .     A
C1199  O1495   1.386   .     S
C1200  C1210   1.395   .     A
C1200  O1496   1.386   .     S
C1201  O1497   1.384   .     S
C1201  C1209   1.398   .     A
C1202  O1499   1.385   .     S
C1202  C1208   1.397   .     A
C1203  O1500   1.384   .     S
C1203  C1207   1.398   .     A
C1204  O1501   1.385   .     S
C1204  C1205   1.398   .     A
C1205  O1502   1.384   .     S
C1206  H1398   1.084   .     S
C1207  O1503   1.385   .     S
C1208  O1504   1.384   .     S
C1209  O1505   1.385   .     S
C1210  O1506   1.386   .     S
C1211  O1507   1.386   .     S
C1212  O1508   1.384   .     S
C1213  O1411   1.385   .     S
C1215  C1560   1.415   .     A
H1366  C62     1.111   1_565 S
H1395  C1598   1.114   .     S
H1396  C1598   1.115   .     S
H1399  C1599   1.111   .     S
H1404  C1601   1.111   1_455 S
O1409  Zn1512  1.946   .     S
O1409  Zn1520  1.946   .     S
O1409  Zn1509  1.946   .     S
O1410  Zn1511  1.948   .     S
O1412  Zn1514  1.948   .     S
O1412  C1663   1.280   .     S
O1413  Zn1513  1.948   .     S
O1414  Zn1523  1.948   .     S
O1415  Zn1522  1.948   .     S
O1416  Zn1517  1.948   .     S
O1417  Zn1509  1.948   .     S
O1418  Zn1519  1.948   .     S
O1419  Zn1518  1.948   .     S
O1420  Zn1521  1.948   .     S
O1421  Zn1521  1.946   .     S
O1421  Zn1517  1.946   .     S
O1421  Zn1515  1.946   .     S
O1422  Zn1520  1.948   .     S
O1423  Zn1512  1.935   .     S
O1424  Zn1511  1.935   .     S
O1425  Zn1514  1.934   .     S
O1426  Zn1513  1.934   .     S
O1427  Zn1516  1.935   .     S
O1428  Zn1515  1.935   .     S
O1429  Zn1510  1.934   .     S
O1430  Zn1524  1.934   .     S
O1431  Zn1511  1.934   .     S
O1432  Zn1518  1.946   .     S
O1432  Zn2022  1.946   1_455 S
O1432  Zn1510  1.946   .     S
O1432  Zn1522  1.946   .     S
O1433  Zn1512  1.934   .     S
O1434  Zn1524  1.935   .     S
O1435  Zn1510  1.935   .     S
O1436  Zn1515  1.934   .     S
O1437  Zn1516  1.934   .     S
O1438  Zn1513  1.934   .     S
O1439  Zn1514  1.934   .     S
O1440  Zn2027  1.935   .     S
O1441  Zn1518  1.935   .     S
O1442  Zn505   1.934   1_565 S
O1443  Zn1523  1.946   .     S
O1443  Zn2032  1.946   1_455 S
O1443  Zn1513  1.946   .     S
O1443  Zn1519  1.946   .     S
O1444  Zn1520  1.934   .     S
O1445  Zn1523  1.935   .     S
O1446  Zn2030  1.935   .     S
O1447  Zn1517  1.934   .     S
O1448  Zn493   1.934   1_565 S
O1449  Zn2026  1.934   .     S
O1450  Zn1519  1.934   .     S
O1451  Zn1509  1.935   .     S
O1452  Zn501   1.935   1_565 S
O1453  Zn1522  1.934   .     S
O1454  Zn1516  1.948   .     S
O1455  Zn2031  1.934   .     S
O1456  Zn504   1.934   1_565 S
O1457  Zn1521  1.934   .     S
O1465  Zn1515  1.948   .     S
O1474  C1600   1.413   .     S
O1476  Zn1510  1.948   .     S
O1487  Zn1524  1.948   .     S
O1487  C1664   1.279   .     S
O1498  Zn1512  1.948   .     S
Zn1511 O405    1.946   1_565 S
Zn1514 O1940   1.946   .     S
Zn1516 O393    1.946   1_565 S
Zn1518 O1957   1.934   1_455 S
Zn1519 O1948   1.935   1_455 S
Zn1522 O1954   1.935   1_455 S
Zn1523 O1963   1.934   1_455 S
Zn1524 O1951   1.946   .     S
C1525  H1725   1.084   .     S
C1525  C1528   1.397   .     A
C1525  C1095   1.399   1_655 S
C1526  H1726   1.084   .     S
C1526  C1538   1.397   .     A
C1527  C1703   1.397   .     A
C1527  C1646   1.410   .     A
C1528  C1647   1.410   .     A
C1528  C1050   1.416   1_655 S
C1529  C1636   1.397   .     A
C1529  C1649   1.408   .     A
C1529  C1560   1.415   .     S
C1530  C1650   1.408   .     A
C1530  C1648   1.396   .     A
C1531  C1651   1.410   .     A
C1531  C1659   1.397   .     A
C1531  C1562   1.415   .     A
C1532  C1559   1.397   .     A
C1532  C1652   1.410   .     A
C1533  C1570   1.397   .     A
C1533  C1564   1.414   .     A
C1533  C1653   1.408   .     A
C1534  C1654   1.408   .     A
C1534  C1581   1.397   .     A
C1534  C1057   1.415   1_655 S
C1535  C1592   1.397   .     A
C1535  C1566   1.416   .     A
C1535  C1655   1.410   .     A
C1536  C1656   1.410   .     A
C1536  C1563   1.416   .     A
C1536  C1714   1.397   .     A
C1537  H1737   1.084   .     S
C1537  C1539   1.397   .     A
C1537  C1641   1.397   .     A
C1538  C1657   1.408   .     A
C1539  C1658   1.408   .     A
C1539  C1565   1.415   .     A
C1540  C1660   1.410   .     A
C1540  C1548   1.397   .     A
C1540  C1058   1.415   1_655 S
C1541  C1706   1.409   .     A
C1541  C1676   1.456   .     S
C1541  C1704   1.410   .     A
C1542  C1705   1.406   .     A
C1542  C1702   1.406   .     A
C1542  C1677   1.451   .     S
C1543  C1708   1.410   .     A
C1543  C1669   1.454   .     S
C1543  C1701   1.410   .     A
C1544  C1671   1.452   .     S
C1544  C1700   1.412   .     A
C1544  C1707   1.412   .     A
C1545  C1710   1.410   .     A
C1545  C1672   1.456   .     S
C1545  C1699   1.410   .     A
C1546  C1673   1.451   .     S
C1546  C1698   1.406   .     A
C1546  C1709   1.406   .     A
C1547  C1712   1.410   .     A
C1547  C1674   1.457   .     S
C1547  C1697   1.410   .     A
C1548  H1748   1.084   .     S
C1548  C1134   1.399   1_655 S
C1549  C1711   1.406   .     A
C1549  C1675   1.451   .     S
C1549  C1696   1.406   .     A
C1550  C1715   1.410   .     A
C1550  C1685   1.457   .     S
C1550  C1695   1.410   .     A
C1551  C1686   1.451   .     S
C1551  C1713   1.406   .     A
C1551  C1694   1.406   .     A
C1552  C1693   1.409   .     A
C1552  C1678   1.456   .     S
C1552  C1717   1.409   .     A
C1553  C1679   1.451   .     S
C1553  C1716   1.407   .     A
C1553  C1691   1.407   .     A
C1554  C1680   1.454   .     S
C1554  C1719   1.410   .     A
C1554  C1690   1.410   .     A
C1555  C1689   1.412   .     A
C1555  C1682   1.452   .     S
C1555  C1718   1.412   .     A
C1556  C1683   1.456   .     S
C1556  C1688   1.410   .     A
C1556  C1721   1.409   .     A
C1557  C1720   1.406   .     A
C1557  C1684   1.451   .     S
C1557  C1687   1.407   .     A
C1558  C1722   1.416   .     A
C1558  C1560   1.403   .     S
C1559  H1759   1.084   .     S
C1561  C1562   1.403   .     A
C1561  C1724   1.415   .     A
C1561  C514    1.415   1_565 S
C1562  C511    1.416   1_565 S
C1563  C516    1.415   1_565 S
C1563  C1564   1.403   1_556 S
C1564  C522    1.415   1_565 S
C1564  C1563   1.403   1_554 S
C1565  C1566   1.403   1_556 S
C1566  C1565   1.403   1_554 S
C1567  C1568   1.521   .     S
C1567  H1803   1.113   .     S
C1567  O1966   1.412   .     S
C1567  H1814   1.115   .     S
C1568  H1825   1.111   .     S
C1568  H1831   1.109   .     S
C1568  H1830   1.110   .     S
C1569  C1571   1.521   .     S
C1569  H1833   1.115   .     S
C1569  O1967   1.412   .     S
C1569  H1832   1.114   .     S
C1570  H1770   1.084   .     S
C1570  C1640   1.397   .     A
C1571  H1834   1.111   .     S
C1571  H1835   1.111   .     S
C1571  H1836   1.109   .     S
C1572  H1838   1.117   .     S
C1572  C1573   1.525   .     S
C1572  O1968   1.417   .     S
C1572  H1837   1.111   .     S
C1573  H1841   1.110   .     S
C1573  H1839   1.109   .     S
C1573  H1842   1.110   .     S
C1574  H1844   1.113   .     S
C1574  C1575   1.521   .     S
C1574  O1969   1.413   .     S
C1574  H1843   1.116   .     S
C1575  H1846   1.111   .     S
C1575  H1847   1.110   .     S
C1575  H1845   1.109   .     S
C1576  O1970   1.413   .     S
C1576  H1848   1.115   .     S
C1576  C1577   1.521   .     S
C1576  H1849   1.113   .     S
C1577  H1852   1.111   .     S
C1577  H1853   1.110   .     S
C1577  H1850   1.109   .     S
C1578  H1855   1.114   .     S
C1578  C1579   1.521   .     S
C1578  O1971   1.412   .     S
C1578  H1854   1.115   .     S
C1579  H1857   1.111   .     S
C1579  H1856   1.110   .     S
C1579  H1858   1.111   .     S
C1580  H1860   1.115   .     S
C1580  O1972   1.412   .     S
C1580  C1582   1.521   .     S
C1580  H1859   1.114   .     S
C1581  H1781   1.084   .     S
C1581  C1133   1.398   1_655 S
C1582  H1864   1.110   .     S
C1582  H1863   1.111   .     S
C1582  H1861   1.111   .     S
C1583  O1974   1.412   .     S
C1583  H1866   1.115   .     S
C1583  C1584   1.521   .     S
C1583  H1865   1.113   .     S
C1584  H1869   1.110   .     S
C1584  H1867   1.111   .     S
C1584  H1868   1.111   .     S
C1585  H1871   1.115   .     S
C1585  H1870   1.113   .     S
C1585  C570    1.521   1_565 S
C1585  O959    1.412   1_565 S
C1586  H1872   1.111   .     S
C1586  H1875   1.110   .     S
C1587  C1588   1.521   .     S
C1587  O1976   1.412   .     S
C1587  H860    1.114   1_565 S
C1587  H861    1.115   1_565 S
C1588  H1878   1.111   .     S
C1588  H1880   1.110   .     S
C1588  H863    1.111   1_565 S
C1589  H1881   1.115   .     S
C1589  H1882   1.114   .     S
C1589  O1977   1.412   .     S
C1589  C1590   1.521   .     S
C1590  H1885   1.111   .     S
C1590  H1886   1.111   .     S
C1590  H1883   1.110   .     S
C1591  C1593   1.521   .     S
C1591  H1887   1.116   .     S
C1591  O1978   1.413   .     S
C1591  H1888   1.113   .     S
C1592  C1642   1.399   .     A
C1592  H1792   1.084   .     S
C1593  H1889   1.109   .     S
C1593  H1891   1.110   .     S
C1593  H1890   1.111   .     S
C1594  H1893   1.113   .     S
C1594  H1892   1.116   .     S
C1594  O1979   1.413   .     S
C1594  C1595   1.521   .     S
C1595  H1896   1.111   .     S
C1595  H1894   1.109   .     S
C1595  H1897   1.110   .     S
C1596  C1597   1.521   .     S
C1596  O1980   1.412   .     S
C1596  H1899   1.114   .     S
C1596  H1898   1.115   .     S
C1597  H1900   1.110   .     S
C1597  H1902   1.111   .     S
C1597  H1901   1.111   .     S
C1598  O1981   1.412   .     S
C1598  C1599   1.521   .     S
C1599  H1908   1.110   .     S
C1599  H1905   1.111   .     S
C1600  H1909   1.113   .     S
C1600  H1910   1.116   .     S
C1601  H1913   1.110   .     S
C1601  H1911   1.111   .     S
C1601  C1092   1.521   1_655 S
C1601  H1404   1.111   1_655 S
C1602  H1915   1.110   .     S
C1602  H1916   1.113   .     S
C1602  H1914   1.113   .     S
C1602  O1983   1.410   .     S
C1603  C1663   1.460   .     S
C1603  C1670   1.399   .     A
C1604  H1727   1.115   .     S
C1604  O1985   1.411   .     S
C1604  H1728   1.109   .     S
C1604  H1729   1.111   .     S
C1605  O1986   1.415   .     S
C1605  H1731   1.115   .     S
C1605  H1730   1.109   .     S
C1605  H1732   1.109   .     S
C1606  H1733   1.113   .     S
C1606  O1987   1.411   .     S
C1606  H1734   1.109   .     S
C1606  H1735   1.109   .     S
C1607  H1739   1.113   .     S
C1607  H1738   1.109   .     S
C1607  O1988   1.410   .     S
C1607  H1736   1.114   .     S
C1608  H1742   1.111   .     S
C1608  O1989   1.412   .     S
C1608  H1741   1.109   .     S
C1608  H1740   1.115   .     S
C1609  O1990   1.410   .     S
C1609  H1744   1.109   .     S
C1609  H1743   1.113   .     S
C1609  H1745   1.113   .     S
C1610  H1747   1.109   .     S
C1610  O1991   1.412   .     S
C1610  H1749   1.111   .     S
C1610  H1746   1.114   .     S
C1611  H1752   1.113   .     S
C1611  H1750   1.113   .     S
C1611  H1751   1.109   .     S
C1611  O1992   1.410   .     S
C1612  H1754   1.109   .     S
C1612  H1753   1.114   .     S
C1612  H1755   1.111   .     S
C1612  O1993   1.412   .     S
C1613  O1994   1.410   .     S
C1613  H1757   1.110   .     S
C1613  H1756   1.113   .     S
C1613  H1758   1.113   .     S
C1614  C1664   1.458   .     S
C1614  C1636   1.398   .     A
C1615  H1761   1.109   .     S
C1615  H1760   1.115   .     S
C1615  O1996   1.411   .     S
C1615  H1762   1.111   .     S
C1616  H1763   1.109   .     S
C1616  H1765   1.109   .     S
C1616  H1764   1.115   .     S
C1616  O1997   1.415   .     S
C1617  H1768   1.109   .     S
C1617  H1766   1.113   .     S
C1617  O1998   1.411   .     S
C1617  H1767   1.109   .     S
C1618  H1771   1.109   .     S
C1618  H1769   1.114   .     S
C1618  H1772   1.113   .     S
C1618  O1999   1.410   .     S
C1619  O2000   1.412   .     S
C1619  H1774   1.109   .     S
C1619  H1775   1.111   .     S
C1619  H1773   1.115   .     S
C1620  H1778   1.113   .     S
C1620  H1777   1.110   .     S
C1620  O2001   1.410   .     S
C1620  H1776   1.113   .     S
C1621  O2002   1.411   .     S
C1621  H1780   1.109   .     S
C1621  H1782   1.111   .     S
C1621  H1779   1.115   .     S
C1622  H1783   1.109   .     S
C1622  O2003   1.415   .     S
C1622  H1784   1.115   .     S
C1622  H1785   1.109   .     S
C1623  O2004   1.411   .     S
C1623  H1786   1.113   .     S
C1623  H1787   1.109   .     S
C1623  H1788   1.109   .     S
C1624  H1790   1.109   .     S
C1624  O2005   1.410   .     S
C1624  H1789   1.114   .     S
C1624  H1791   1.113   .     S
C1625  C1661   1.458   .     S
C1625  C1692   1.398   .     A
C1625  C632    1.397   1_565 S
C1626  H1795   1.111   .     S
C1626  H1793   1.115   .     S
C1626  O2007   1.412   .     S
C1626  H1794   1.109   .     S
C1627  H1798   1.113   .     S
C1627  H1797   1.109   .     S
C1627  H1796   1.113   .     S
C1627  O2008   1.410   .     S
C1628  H1800   1.109   .     S
C1628  H1801   1.111   .     S
C1628  O2009   1.412   .     S
C1628  H1799   1.114   .     S
C1629  H1805   1.113   .     S
C1629  H1802   1.113   .     S
C1629  O2010   1.410   .     S
C1629  H1804   1.109   .     S
C1630  O2011   1.412   .     S
C1630  H1808   1.111   .     S
C1630  H1806   1.114   .     S
C1630  H1807   1.109   .     S
C1631  H1810   1.110   .     S
C1631  O2012   1.410   .     S
C1631  H1811   1.113   .     S
C1631  H1809   1.113   .     S
C1632  H1815   1.111   .     S
C1632  O2013   1.411   .     S
C1632  H1812   1.114   .     S
C1632  H1813   1.109   .     S
C1633  O2014   1.415   .     S
C1633  H1817   1.115   .     S
C1633  H1816   1.109   .     S
C1633  H1818   1.109   .     S
C1634  H1820   1.109   .     S
C1634  O2015   1.411   .     S
C1634  H1821   1.109   .     S
C1634  H1819   1.113   .     S
C1635  H1822   1.114   .     S
C1635  H1824   1.113   .     S
C1635  O2016   1.410   .     S
C1635  H1823   1.109   .     S
C1636  H1829   1.084   .     S
C1637  C1659   1.399   .     A
C1637  C1662   1.460   .     S
C1637  C687    1.399   1_565 S
C1638  H1826   1.115   .     S
C1638  O1919   1.412   .     S
C1638  H1827   1.109   .     S
C1638  H1828   1.111   .     S
C1639  C1714   1.399   .     A
C1639  C1667   1.460   .     S
C1639  C543    1.399   1_565 S
C1640  C652    1.458   1_565 S
C1640  C510    1.398   1_565 S
C1641  C1665   1.458   .     S
C1642  C1666   1.460   .     S
C1643  C1722   1.410   .     A
C1643  O1966   1.384   .     S
C1643  C1649   1.405   .     A
C1644  C1647   1.404   .     A
C1644  C1723   1.408   .     A
C1644  O1967   1.384   .     S
C1645  O1968   1.386   .     S
C1645  C1651   1.403   .     A
C1645  C1724   1.411   .     A
C1646  O1969   1.384   .     S
C1646  C1650   1.403   .     A
C1647  O1970   1.384   .     S
C1648  H1840   1.084   .     S
C1649  O1971   1.384   .     S
C1650  O1972   1.384   .     S
C1651  O1974   1.384   .     S
C1652  O1975   1.384   .     S
C1652  C1657   1.404   1_556 S
C1653  O1976   1.384   .     S
C1653  C1656   1.404   1_554 S
C1654  O1977   1.384   .     S
C1654  C1660   1.404   1_556 S
C1655  O1978   1.384   .     S
C1655  C1658   1.404   1_554 S
C1656  O1979   1.384   .     S
C1656  C1653   1.404   1_556 S
C1657  O1980   1.384   .     S
C1657  C1652   1.404   1_554 S
C1658  O1981   1.384   .     S
C1658  C1655   1.404   1_556 S
C1659  H1851   1.084   .     S
C1660  O1982   1.384   .     S
C1660  C1654   1.404   1_554 S
C1661  O1962   1.279   .     A
C1661  O990    1.280   1_565 S
C1662  O1918   1.279   .     A
C1662  O957    1.280   1_565 S
C1663  O1984   1.280   .     A
C1664  O1921   1.279   .     A
C1665  O1922   1.279   .     S
C1665  O1926   1.279   .     S
C1666  O1923   1.280   .     S
C1666  O1927   1.280   .     S
C1667  O908    1.280   1_565 S
C1667  O912    1.280   1_565 S
C1668  O1925   1.280   .     S
C1668  O1930   1.279   .     S
C1669  O1931   1.279   .     A
C1669  O1959   1.279   .     A
C1670  H1862   1.084   .     S
C1670  C1722   1.397   .     A
C1671  O1960   1.279   .     A
C1671  O1932   1.279   .     A
C1672  O1933   1.280   .     A
C1672  O1957   1.281   .     A
C1673  O1934   1.279   .     A
C1673  O1958   1.278   .     A
C1674  O1935   1.280   .     A
C1674  O1964   1.280   .     A
C1675  O1936   1.279   .     A
C1675  O1965   1.279   .     A
C1676  O1937   1.281   .     A
C1676  O1961   1.280   .     A
C1677  O1963   1.279   .     A
C1677  O1938   1.278   .     A
C1678  O1950   1.280   .     A
C1678  O1939   1.280   .     A
C1679  O1941   1.278   .     A
C1679  O1952   1.279   .     A
C1680  O1942   1.279   .     A
C1680  O1948   1.279   .     A
C1681  H1873   1.084   .     S
C1681  C1723   1.397   .     A
C1681  C1106   1.397   1_655 S
C1682  O1949   1.279   .     A
C1682  O1943   1.279   .     A
C1683  O1944   1.280   .     A
C1683  O1955   1.280   .     A
C1684  O1956   1.278   .     A
C1684  O1945   1.279   .     A
C1685  O1946   1.280   .     A
C1685  O1953   1.280   .     A
C1686  O1954   1.279   .     A
C1686  O1947   1.279   .     A
C1687  O1983   1.384   .     S
C1687  C1704   1.397   .     A
C1688  O1985   1.385   .     S
C1688  C1702   1.398   .     A
C1689  O1986   1.386   .     S
C1689  C1701   1.395   .     A
C1690  C1700   1.395   .     A
C1690  O1987   1.386   .     S
C1691  O1988   1.384   .     S
C1691  C1699   1.397   .     A
C1692  C1724   1.397   .     A
C1692  H1884   1.083   .     S
C1693  C1698   1.397   .     A
C1693  O1989   1.385   .     S
C1694  O1990   1.384   .     S
C1694  C1697   1.398   .     A
C1695  O1991   1.385   .     S
C1695  C1696   1.398   .     A
C1696  O1992   1.384   .     S
C1697  O1993   1.385   .     S
C1698  O1994   1.384   .     S
C1699  O1996   1.385   .     S
C1700  O1997   1.386   .     S
C1701  O1998   1.386   .     S
C1702  O1999   1.384   .     S
C1703  H1895   1.084   .     S
C1704  O2000   1.385   .     S
C1705  C1721   1.397   .     A
C1705  O2001   1.384   .     S
C1706  C1720   1.397   .     A
C1706  O2002   1.385   .     S
C1707  C1719   1.396   .     A
C1707  O2003   1.386   .     S
C1708  C1718   1.395   .     A
C1708  O2004   1.386   .     S
C1709  O2005   1.384   .     S
C1709  C1717   1.398   .     A
C1710  O2007   1.385   .     S
C1710  C1716   1.397   .     A
C1711  O2008   1.384   .     S
C1711  C1715   1.398   .     A
C1712  O2009   1.385   .     S
C1712  C1713   1.398   .     A
C1713  O2010   1.384   .     S
C1714  H1906   1.084   .     S
C1715  O2011   1.385   .     S
C1716  O2012   1.384   .     S
C1717  O2013   1.385   .     S
C1718  O2014   1.386   .     S
C1719  O2015   1.386   .     S
C1720  O2016   1.384   .     S
C1721  O1919   1.385   .     S
C1723  C1052   1.415   1_655 A
H1874  C570    1.111   1_565 S
H1903  C1090   1.114   1_655 S
H1904  C1090   1.115   1_655 S
H1907  C1091   1.111   1_655 S
O1917  Zn2020  1.946   .     S
O1917  Zn2028  1.946   .     S
O1917  Zn2017  1.946   .     S
O1918  Zn2019  1.948   .     S
O1920  Zn2022  1.948   .     S
O1920  C1155   1.280   1_655 S
O1921  Zn2021  1.948   .     S
O1922  Zn2031  1.948   .     S
O1923  Zn2030  1.948   .     S
O1924  Zn2025  1.948   .     S
O1925  Zn2017  1.948   .     S
O1926  Zn2027  1.948   .     S
O1927  Zn2026  1.948   .     S
O1928  Zn2029  1.948   .     S
O1929  Zn2029  1.946   .     S
O1929  Zn2025  1.946   .     S
O1929  Zn2023  1.946   .     S
O1930  Zn2028  1.948   .     S
O1931  Zn2020  1.935   .     S
O1932  Zn2019  1.935   .     S
O1933  Zn2022  1.934   .     S
O1934  Zn2021  1.934   .     S
O1935  Zn2024  1.935   .     S
O1936  Zn2023  1.935   .     S
O1937  Zn2018  1.934   .     S
O1938  Zn2032  1.934   .     S
O1939  Zn2019  1.934   .     S
O1940  Zn2026  1.946   .     S
O1940  Zn2018  1.946   .     S
O1940  Zn2030  1.946   .     S
O1941  Zn2020  1.934   .     S
O1942  Zn2032  1.935   .     S
O1943  Zn2018  1.935   .     S
O1944  Zn2023  1.934   .     S
O1945  Zn2024  1.934   .     S
O1946  Zn2021  1.934   .     S
O1947  Zn2022  1.934   .     S
O1948  Zn1519  1.935   1_655 S
O1949  Zn2026  1.935   .     S
O1950  Zn1013  1.934   1_565 S
O1951  Zn2031  1.946   .     S
O1951  Zn2021  1.946   .     S
O1951  Zn2027  1.946   .     S
O1952  Zn2028  1.934   .     S
O1953  Zn2031  1.935   .     S
O1954  Zn1522  1.935   1_655 S
O1955  Zn2025  1.934   .     S
O1956  Zn1001  1.934   1_565 S
O1957  Zn1518  1.934   1_655 S
O1958  Zn2027  1.934   .     S
O1959  Zn2017  1.935   .     S
O1960  Zn1009  1.935   1_565 S
O1961  Zn2030  1.934   .     S
O1962  Zn2024  1.948   .     S
O1963  Zn1523  1.934   1_655 S
O1964  Zn1012  1.934   1_565 S
O1965  Zn2029  1.934   .     S
O1973  Zn2023  1.948   .     S
O1982  C1092   1.413   1_655 S
O1984  Zn2018  1.948   .     S
O1995  Zn2032  1.948   .     S
O1995  C1156   1.279   1_655 S
O2006  Zn2020  1.948   .     S
Zn2019 O913    1.946   1_565 S
Zn2022 O1432   1.946   1_655 S
Zn2024 O901    1.946   1_565 S
Zn2032 O1443   1.946   1_655 S
