data_str_m2_o2_o5_pcu_sym.94
_audit_creation_date              2020-01-03
_audit_creation_method            'Materials Studio'
_symmetry_space_group_name_H-M    'P1'
_symmetry_Int_Tables_number       1
_symmetry_cell_setting            triclinic
loop_
_symmetry_equiv_pos_as_xyz
  x,y,z
_cell_length_a                    30.1950
_cell_length_b                    28.0507
_cell_length_c                    27.4547
_cell_angle_alpha                 89.8910
_cell_angle_beta                  96.8681
_cell_angle_gamma                 90.2400
loop_
_atom_site_label
_atom_site_type_symbol
_atom_site_fract_x
_atom_site_fract_y
_atom_site_fract_z
_atom_site_U_iso_or_equiv
_atom_site_adp_type
_atom_site_occupancy
C1     C     0.16562   0.24992   0.17105   0.00000  Uiso   1.00
C2     C     0.28955   0.44528   0.18394   0.00000  Uiso   1.00
C3     C     0.24962   0.25003   0.07352   0.00000  Uiso   1.00
C4     C     0.25034   0.24998   0.25980   0.00000  Uiso   1.00
C5     C     0.25140   0.02767   0.16738   0.00000  Uiso   1.00
C6     C     0.25082   0.47264   0.16812   0.00000  Uiso   1.00
C7     C     0.24986   0.25005   0.02179   0.00000  Uiso   1.00
C8     C     0.25010   0.24997   0.31153   0.00000  Uiso   1.00
C9     C     0.04937   0.29426   0.16251   0.00000  Uiso   1.00
C10    C     0.45123   0.21385   0.14022   0.00000  Uiso   1.00
C11    C     0.45087   0.29142   0.18108   0.00000  Uiso   1.00
C12    C     0.33440   0.25007   0.16275   0.00000  Uiso   1.00
C13    C     0.04835   0.21129   0.19018   0.00000  Uiso   1.00
C14    C     0.09523   0.29416   0.17542   0.00000  Uiso   1.00
C15    C     0.40399   0.21110   0.13934   0.00000  Uiso   1.00
C16    C     0.40574   0.29367   0.16485   0.00000  Uiso   1.00
C17    C     0.09528   0.20950   0.19173   0.00000  Uiso   1.00
C18    C     0.11797   0.25050   0.17832   0.00000  Uiso   1.00
C19    C     0.38218   0.25075   0.15683   0.00000  Uiso   1.00
C20    C     0.02480   0.25241   0.17137   0.00000  Uiso   1.00
C21    C     0.47512   0.25211   0.16567   0.00000  Uiso   1.00
C22    C     0.34231   0.13179   0.24304   0.00000  Uiso   1.00
C23    C     0.27458   0.10576   0.20413   0.00000  Uiso   1.00
C24    C     0.36251   0.17178   0.27610   0.00000  Uiso   1.00
C25    C     0.17028   0.37606   0.07545   0.00000  Uiso   1.00
C26    C     0.12343   0.35946   0.05654   0.00000  Uiso   1.00
C27    C     0.16331   0.12846   0.08039   0.00000  Uiso   1.00
C28    C     0.14687   0.13027   0.02587   0.00000  Uiso   1.00
C29    C     0.32885   0.37629   0.26095   0.00000  Uiso   1.00
C30    C     0.37855   0.38026   0.27780   0.00000  Uiso   1.00
C31    C     0.01189   0.33631   0.09891   0.00000  Uiso   1.00
C32    C     0.49439   0.38565   0.08394   0.00000  Uiso   1.00
C33    C     0.48681   0.19482   0.07366   0.00000  Uiso   1.00
C34    C     0.21343   0.39573   0.14677   0.00000  Uiso   1.00
C35    C     0.02777   0.16736   0.06271   0.00000  Uiso   1.00
C36    C     0.48746   0.31808   0.25385   0.00000  Uiso   1.00
C37    C     0.00531   0.36266   0.28100   0.00000  Uiso   1.00
C38    C     0.01646   0.17654   0.25260   0.00000  Uiso   1.00
C39    C     0.49114   0.13250   0.26644   0.00000  Uiso   1.00
C40    C     0.12902   0.33404   0.24192   0.00000  Uiso   1.00
C41    C     0.15712   0.37706   0.26006   0.00000  Uiso   1.00
C42    C     0.39358   0.13074   0.11475   0.00000  Uiso   1.00
C43    C     0.35494   0.09649   0.10060   0.00000  Uiso   1.00
C44    C     0.37607   0.33658   0.09831   0.00000  Uiso   1.00
C45    C     0.22757   0.10459   0.12850   0.00000  Uiso   1.00
C46    C     0.35005   0.38069   0.07998   0.00000  Uiso   1.00
C47    C     0.11313   0.12920   0.19732   0.00000  Uiso   1.00
C48    C     0.15227   0.09777   0.21699   0.00000  Uiso   1.00
C49    C     0.28091   0.01882   0.28086   0.00000  Uiso   1.00
C50    C     0.31550   0.00085   0.32180   0.00000  Uiso   1.00
C51    C     0.14099   0.46340   0.17106   0.00000  Uiso   1.00
C52    C     0.09733   0.48732   0.15134   0.00000  Uiso   1.00
C53    C     0.22887   0.01386   0.05517   0.00000  Uiso   1.00
C54    C     0.19790   0.49574   0.01090   0.00000  Uiso   1.00
C55    C     0.35873   0.46712   0.16527   0.00000  Uiso   1.00
C56    C     0.28655   0.39496   0.18812   0.00000  Uiso   1.00
C57    C     0.39719   0.00101   0.18120   0.00000  Uiso   1.00
C58    C     0.27495   0.05537   0.20593   0.00000  Uiso   1.00
C59    C     0.21133   0.44613   0.15244   0.00000  Uiso   1.00
C60    C     0.22842   0.05415   0.12761   0.00000  Uiso   1.00
Cu61   Cu    0.25000   0.29822   0.16667   0.00000  Uiso   1.00
Cu62   Cu    0.25000   0.20179   0.16667   0.00000  Uiso   1.00
H63    H     0.35199   0.13748   0.20571   0.00000  Uiso   1.00
H64    H     0.11927   0.32123   0.06569   0.00000  Uiso   1.00
H65    H     0.15097   0.16082   0.09734   0.00000  Uiso   1.00
H66    H     0.14831   0.09650   0.09622   0.00000  Uiso   1.00
H67    H     0.15905   0.09864   0.00744   0.00000  Uiso   1.00
H68    H     0.10985   0.13025   0.02023   0.00000  Uiso   1.00
H69    H     0.15936   0.16306   0.00922   0.00000  Uiso   1.00
H70    H     0.31559   0.34457   0.27873   0.00000  Uiso   1.00
H71    H     0.31186   0.40821   0.27394   0.00000  Uiso   1.00
H72    H     0.39305   0.41081   0.25934   0.00000  Uiso   1.00
H73    H     0.38474   0.38573   0.31798   0.00000  Uiso   1.00
H74    H     0.35719   0.09790   0.25788   0.00000  Uiso   1.00
H75    H     0.39526   0.34701   0.26836   0.00000  Uiso   1.00
H76    H     0.48345   0.31116   0.09261   0.00000  Uiso   1.00
H77    H     0.03756   0.32587   0.07513   0.00000  Uiso   1.00
H78    H     0.02239   0.41156   0.08560   0.00000  Uiso   1.00
H79    H     0.47693   0.38471   0.04604   0.00000  Uiso   1.00
H80    H     0.47038   0.39758   0.10904   0.00000  Uiso   1.00
H81    H     0.49561   0.23333   0.07358   0.00000  Uiso   1.00
H82    H     0.45910   0.18833   0.04391   0.00000  Uiso   1.00
H83    H     0.01983   0.12877   0.05869   0.00000  Uiso   1.00
H84    H     0.03915   0.18095   0.02840   0.00000  Uiso   1.00
H85    H     0.35568   0.16540   0.31446   0.00000  Uiso   1.00
H86    H     0.05530   0.17228   0.09288   0.00000  Uiso   1.00
H87    H     0.01556   0.29265   0.25464   0.00000  Uiso   1.00
H88    H     0.46104   0.30192   0.27374   0.00000  Uiso   1.00
H89    H     0.47764   0.38770   0.28503   0.00000  Uiso   1.00
H90    H     0.02191   0.35279   0.31788   0.00000  Uiso   1.00
H91    H     0.03006   0.38074   0.26037   0.00000  Uiso   1.00
H92    H     0.49526   0.20822   0.25697   0.00000  Uiso   1.00
H93    H     0.04809   0.17951   0.27780   0.00000  Uiso   1.00
H94    H     0.01270   0.10054   0.26621   0.00000  Uiso   1.00
H95    H     0.48071   0.13680   0.30354   0.00000  Uiso   1.00
H96    H     0.39913   0.17330   0.27524   0.00000  Uiso   1.00
H97    H     0.46084   0.12718   0.23978   0.00000  Uiso   1.00
H98    H     0.14950   0.30199   0.25284   0.00000  Uiso   1.00
H99    H     0.09875   0.33291   0.26136   0.00000  Uiso   1.00
H100   H     0.13586   0.40922   0.26011   0.00000  Uiso   1.00
H101   H     0.17296   0.37068   0.29805   0.00000  Uiso   1.00
H102   H     0.18426   0.38300   0.23692   0.00000  Uiso   1.00
H103   H     0.40987   0.12148   0.15212   0.00000  Uiso   1.00
H104   H     0.41705   0.12567   0.08707   0.00000  Uiso   1.00
H105   H     0.33646   0.10723   0.06486   0.00000  Uiso   1.00
H106   H     0.36778   0.05985   0.09693   0.00000  Uiso   1.00
H107   H     0.34802   0.20661   0.26351   0.00000  Uiso   1.00
H108   H     0.33165   0.09655   0.12883   0.00000  Uiso   1.00
H109   H     0.35476   0.30554   0.08543   0.00000  Uiso   1.00
H110   H     0.40703   0.33509   0.08020   0.00000  Uiso   1.00
H111   H     0.33474   0.37505   0.04165   0.00000  Uiso   1.00
H112   H     0.32254   0.38736   0.10231   0.00000  Uiso   1.00
H113   H     0.37266   0.41202   0.08063   0.00000  Uiso   1.00
H114   H     0.11079   0.13079   0.15675   0.00000  Uiso   1.00
H115   H     0.08238   0.11221   0.20771   0.00000  Uiso   1.00
H116   H     0.18366   0.11872   0.22088   0.00000  Uiso   1.00
H117   H     0.14705   0.08339   0.25354   0.00000  Uiso   1.00
H118   H     0.19482   0.35371   0.05892   0.00000  Uiso   1.00
H119   H     0.15585   0.06765   0.19184   0.00000  Uiso   1.00
H120   H     0.25830   0.48889   0.26804   0.00000  Uiso   1.00
H121   H     0.26161   0.04835   0.29505   0.00000  Uiso   1.00
H122   H     0.33077   0.03143   0.01001   0.00000  Uiso   1.00
H123   H     0.30003   0.47615   0.01309   0.00000  Uiso   1.00
H124   H     0.34244   0.48125   0.30630   0.00000  Uiso   1.00
H125   H     0.15397   0.47965   0.20695   0.00000  Uiso   1.00
H126   H     0.13317   0.42528   0.17584   0.00000  Uiso   1.00
H127   H     0.08259   0.46903   0.11736   0.00000  Uiso   1.00
H128   H     0.07346   0.48513   0.17906   0.00000  Uiso   1.00
H129   H     0.17390   0.41348   0.06352   0.00000  Uiso   1.00
H130   H     0.10293   0.02528   0.14248   0.00000  Uiso   1.00
H131   H     0.24904   0.48346   0.07135   0.00000  Uiso   1.00
H132   H     0.25146   0.04184   0.04323   0.00000  Uiso   1.00
H133   H     0.19070   0.02462   0.31682   0.00000  Uiso   1.00
H134   H     0.21333   0.46527   0.32694   0.00000  Uiso   1.00
H135   H     0.16555   0.48352   0.02197   0.00000  Uiso   1.00
H136   H     0.34197   0.47905   0.12890   0.00000  Uiso   1.00
H137   H     0.37309   0.43106   0.16281   0.00000  Uiso   1.00
H138   H     0.41601   0.48834   0.21602   0.00000  Uiso   1.00
H139   H     0.42017   0.00266   0.15253   0.00000  Uiso   1.00
H140   H     0.09889   0.38103   0.07389   0.00000  Uiso   1.00
H141   H     0.38427   0.03727   0.18712   0.00000  Uiso   1.00
H142   H     0.11685   0.36414   0.01628   0.00000  Uiso   1.00
N143   N     0.25000   0.12935   0.16667   0.00000  Uiso   1.00
N144   N     0.25000   0.37066   0.16667   0.00000  Uiso   1.00
O145   O     0.18573   0.29072   0.16667   0.00000  Uiso   1.00
O146   O     0.17597   0.37123   0.12689   0.00000  Uiso   1.00
O147   O     0.21045   0.12896   0.08659   0.00000  Uiso   1.00
O148   O     0.32292   0.36978   0.20953   0.00000  Uiso   1.00
O149   O     0.02962   0.33746   0.14884   0.00000  Uiso   1.00
O150   O     0.47423   0.17857   0.11880   0.00000  Uiso   1.00
O151   O     0.47063   0.33071   0.20532   0.00000  Uiso   1.00
O152   O     0.02543   0.17160   0.20372   0.00000  Uiso   1.00
O153   O     0.11675   0.33643   0.19027   0.00000  Uiso   1.00
O154   O     0.37693   0.17769   0.11222   0.00000  Uiso   1.00
O155   O     0.38658   0.33719   0.15038   0.00000  Uiso   1.00
O156   O     0.31427   0.20929   0.16666   0.00000  Uiso   1.00
O157   O     0.11980   0.17468   0.21880   0.00000  Uiso   1.00
O158   O     0.30380   0.03509   0.24266   0.00000  Uiso   1.00
O159   O     0.17177   0.46940   0.13691   0.00000  Uiso   1.00
O160   O     0.20241   0.03239   0.08915   0.00000  Uiso   1.00
O161   O     0.32938   0.46711   0.20125   0.00000  Uiso   1.00
O162   O     0.31427   0.29072   0.16666   0.00000  Uiso   1.00
O163   O     0.18573   0.20929   0.16667   0.00000  Uiso   1.00
O164   O     0.25000   0.29071   0.09613   0.00000  Uiso   1.00
O165   O     0.25000   0.20929   0.23720   0.00000  Uiso   1.00
O166   O     0.25000   0.29071   0.23720   0.00000  Uiso   1.00
O167   O     0.25000   0.20929   0.09613   0.00000  Uiso   1.00
O168   O     0.29549   0.13164   0.24335   0.00000  Uiso   1.00
C169   C     0.66562   0.24992   0.17105   0.00000  Uiso   1.00
C170   C     0.78955   0.44528   0.18394   0.00000  Uiso   1.00
C171   C     0.74962   0.25003   0.07352   0.00000  Uiso   1.00
C172   C     0.75034   0.24998   0.25980   0.00000  Uiso   1.00
C173   C     0.75140   0.02767   0.16738   0.00000  Uiso   1.00
C174   C     0.75082   0.47264   0.16812   0.00000  Uiso   1.00
C175   C     0.74986   0.25005   0.02179   0.00000  Uiso   1.00
C176   C     0.75010   0.24997   0.31153   0.00000  Uiso   1.00
C177   C     0.54937   0.29426   0.16251   0.00000  Uiso   1.00
C178   C     0.95123   0.21385   0.14022   0.00000  Uiso   1.00
C179   C     0.95087   0.29142   0.18108   0.00000  Uiso   1.00
C180   C     0.83440   0.25007   0.16275   0.00000  Uiso   1.00
C181   C     0.54835   0.21129   0.19018   0.00000  Uiso   1.00
C182   C     0.59523   0.29416   0.17542   0.00000  Uiso   1.00
C183   C     0.90399   0.21110   0.13934   0.00000  Uiso   1.00
C184   C     0.90574   0.29367   0.16485   0.00000  Uiso   1.00
C185   C     0.59528   0.20950   0.19173   0.00000  Uiso   1.00
C186   C     0.61797   0.25050   0.17832   0.00000  Uiso   1.00
C187   C     0.88218   0.25075   0.15683   0.00000  Uiso   1.00
C188   C     0.52480   0.25241   0.17137   0.00000  Uiso   1.00
C189   C     0.97512   0.25211   0.16567   0.00000  Uiso   1.00
C190   C     0.84231   0.13179   0.24304   0.00000  Uiso   1.00
C191   C     0.77458   0.10576   0.20413   0.00000  Uiso   1.00
C192   C     0.86251   0.17178   0.27610   0.00000  Uiso   1.00
C193   C     0.67028   0.37606   0.07545   0.00000  Uiso   1.00
C194   C     0.62343   0.35946   0.05654   0.00000  Uiso   1.00
C195   C     0.66331   0.12846   0.08039   0.00000  Uiso   1.00
C196   C     0.64687   0.13027   0.02587   0.00000  Uiso   1.00
C197   C     0.82885   0.37629   0.26095   0.00000  Uiso   1.00
C198   C     0.87855   0.38026   0.27780   0.00000  Uiso   1.00
C199   C     0.51189   0.33631   0.09891   0.00000  Uiso   1.00
C200   C     0.99439   0.38565   0.08394   0.00000  Uiso   1.00
C201   C     0.98681   0.19482   0.07366   0.00000  Uiso   1.00
C202   C     0.71343   0.39573   0.14677   0.00000  Uiso   1.00
C203   C     0.52777   0.16736   0.06271   0.00000  Uiso   1.00
C204   C     0.98746   0.31808   0.25385   0.00000  Uiso   1.00
C205   C     0.50531   0.36266   0.28100   0.00000  Uiso   1.00
C206   C     0.51646   0.17654   0.25260   0.00000  Uiso   1.00
C207   C     0.99114   0.13250   0.26644   0.00000  Uiso   1.00
C208   C     0.62902   0.33404   0.24192   0.00000  Uiso   1.00
C209   C     0.65712   0.37706   0.26006   0.00000  Uiso   1.00
C210   C     0.89358   0.13074   0.11475   0.00000  Uiso   1.00
C211   C     0.85494   0.09649   0.10060   0.00000  Uiso   1.00
C212   C     0.87607   0.33658   0.09831   0.00000  Uiso   1.00
C213   C     0.72757   0.10459   0.12850   0.00000  Uiso   1.00
C214   C     0.85005   0.38069   0.07998   0.00000  Uiso   1.00
C215   C     0.61313   0.12920   0.19732   0.00000  Uiso   1.00
C216   C     0.65227   0.09777   0.21699   0.00000  Uiso   1.00
C217   C     0.78091   0.01882   0.28086   0.00000  Uiso   1.00
C218   C     0.81550   0.00085   0.32180   0.00000  Uiso   1.00
C219   C     0.64099   0.46340   0.17106   0.00000  Uiso   1.00
C220   C     0.59733   0.48732   0.15134   0.00000  Uiso   1.00
C221   C     0.72887   0.01386   0.05517   0.00000  Uiso   1.00
C222   C     0.69790   0.49574   0.01090   0.00000  Uiso   1.00
C223   C     0.85873   0.46712   0.16527   0.00000  Uiso   1.00
C224   C     0.78655   0.39496   0.18812   0.00000  Uiso   1.00
C225   C     0.89719   0.00101   0.18120   0.00000  Uiso   1.00
C226   C     0.77495   0.05537   0.20593   0.00000  Uiso   1.00
C227   C     0.71133   0.44613   0.15244   0.00000  Uiso   1.00
C228   C     0.72842   0.05415   0.12761   0.00000  Uiso   1.00
Cu229  Cu    0.75000   0.29822   0.16667   0.00000  Uiso   1.00
Cu230  Cu    0.75000   0.20179   0.16667   0.00000  Uiso   1.00
H231   H     0.85199   0.13748   0.20571   0.00000  Uiso   1.00
H232   H     0.61927   0.32123   0.06569   0.00000  Uiso   1.00
H233   H     0.65097   0.16082   0.09734   0.00000  Uiso   1.00
H234   H     0.64831   0.09650   0.09622   0.00000  Uiso   1.00
H235   H     0.65905   0.09864   0.00744   0.00000  Uiso   1.00
H236   H     0.60985   0.13025   0.02023   0.00000  Uiso   1.00
H237   H     0.65936   0.16306   0.00922   0.00000  Uiso   1.00
H238   H     0.81559   0.34457   0.27873   0.00000  Uiso   1.00
H239   H     0.81186   0.40821   0.27394   0.00000  Uiso   1.00
H240   H     0.89305   0.41081   0.25934   0.00000  Uiso   1.00
H241   H     0.88474   0.38573   0.31798   0.00000  Uiso   1.00
H242   H     0.85719   0.09790   0.25788   0.00000  Uiso   1.00
H243   H     0.89526   0.34701   0.26836   0.00000  Uiso   1.00
H244   H     0.98345   0.31116   0.09261   0.00000  Uiso   1.00
H245   H     0.53756   0.32587   0.07513   0.00000  Uiso   1.00
H246   H     0.52239   0.41156   0.08560   0.00000  Uiso   1.00
H247   H     0.97693   0.38471   0.04604   0.00000  Uiso   1.00
H248   H     0.97038   0.39758   0.10904   0.00000  Uiso   1.00
H249   H     0.99561   0.23333   0.07358   0.00000  Uiso   1.00
H250   H     0.95910   0.18833   0.04391   0.00000  Uiso   1.00
H251   H     0.51983   0.12877   0.05869   0.00000  Uiso   1.00
H252   H     0.53915   0.18095   0.02840   0.00000  Uiso   1.00
H253   H     0.85568   0.16540   0.31446   0.00000  Uiso   1.00
H254   H     0.55530   0.17228   0.09288   0.00000  Uiso   1.00
H255   H     0.51556   0.29265   0.25464   0.00000  Uiso   1.00
H256   H     0.96104   0.30192   0.27374   0.00000  Uiso   1.00
H257   H     0.97764   0.38770   0.28503   0.00000  Uiso   1.00
H258   H     0.52191   0.35279   0.31788   0.00000  Uiso   1.00
H259   H     0.53006   0.38074   0.26037   0.00000  Uiso   1.00
H260   H     0.99526   0.20822   0.25697   0.00000  Uiso   1.00
H261   H     0.54809   0.17951   0.27780   0.00000  Uiso   1.00
H262   H     0.51270   0.10054   0.26621   0.00000  Uiso   1.00
H263   H     0.98071   0.13680   0.30354   0.00000  Uiso   1.00
H264   H     0.89913   0.17330   0.27524   0.00000  Uiso   1.00
H265   H     0.96084   0.12718   0.23978   0.00000  Uiso   1.00
H266   H     0.64950   0.30199   0.25284   0.00000  Uiso   1.00
H267   H     0.59875   0.33291   0.26136   0.00000  Uiso   1.00
H268   H     0.63586   0.40922   0.26011   0.00000  Uiso   1.00
H269   H     0.67296   0.37068   0.29805   0.00000  Uiso   1.00
H270   H     0.68426   0.38300   0.23692   0.00000  Uiso   1.00
H271   H     0.90987   0.12148   0.15212   0.00000  Uiso   1.00
H272   H     0.91705   0.12567   0.08707   0.00000  Uiso   1.00
H273   H     0.83646   0.10723   0.06486   0.00000  Uiso   1.00
H274   H     0.86778   0.05985   0.09693   0.00000  Uiso   1.00
H275   H     0.84802   0.20661   0.26351   0.00000  Uiso   1.00
H276   H     0.83165   0.09655   0.12883   0.00000  Uiso   1.00
H277   H     0.85476   0.30554   0.08543   0.00000  Uiso   1.00
H278   H     0.90703   0.33509   0.08020   0.00000  Uiso   1.00
H279   H     0.83474   0.37505   0.04165   0.00000  Uiso   1.00
H280   H     0.82254   0.38736   0.10231   0.00000  Uiso   1.00
H281   H     0.87266   0.41202   0.08063   0.00000  Uiso   1.00
H282   H     0.61079   0.13079   0.15675   0.00000  Uiso   1.00
H283   H     0.58238   0.11221   0.20771   0.00000  Uiso   1.00
H284   H     0.68366   0.11872   0.22088   0.00000  Uiso   1.00
H285   H     0.64705   0.08339   0.25354   0.00000  Uiso   1.00
H286   H     0.69482   0.35371   0.05892   0.00000  Uiso   1.00
H287   H     0.65585   0.06765   0.19184   0.00000  Uiso   1.00
H288   H     0.75830   0.48889   0.26804   0.00000  Uiso   1.00
H289   H     0.76161   0.04835   0.29505   0.00000  Uiso   1.00
H290   H     0.83077   0.03143   0.01001   0.00000  Uiso   1.00
H291   H     0.80003   0.47615   0.01309   0.00000  Uiso   1.00
H292   H     0.84244   0.48125   0.30630   0.00000  Uiso   1.00
H293   H     0.65397   0.47965   0.20695   0.00000  Uiso   1.00
H294   H     0.63317   0.42528   0.17584   0.00000  Uiso   1.00
H295   H     0.58259   0.46903   0.11736   0.00000  Uiso   1.00
H296   H     0.57346   0.48513   0.17906   0.00000  Uiso   1.00
H297   H     0.67390   0.41348   0.06352   0.00000  Uiso   1.00
H298   H     0.60293   0.02528   0.14248   0.00000  Uiso   1.00
H299   H     0.74904   0.48346   0.07135   0.00000  Uiso   1.00
H300   H     0.75146   0.04184   0.04323   0.00000  Uiso   1.00
H301   H     0.69070   0.02462   0.31682   0.00000  Uiso   1.00
H302   H     0.71333   0.46527   0.32694   0.00000  Uiso   1.00
H303   H     0.66555   0.48352   0.02197   0.00000  Uiso   1.00
H304   H     0.84197   0.47905   0.12890   0.00000  Uiso   1.00
H305   H     0.87309   0.43106   0.16281   0.00000  Uiso   1.00
H306   H     0.91601   0.48834   0.21602   0.00000  Uiso   1.00
H307   H     0.92017   0.00266   0.15253   0.00000  Uiso   1.00
H308   H     0.59889   0.38103   0.07389   0.00000  Uiso   1.00
H309   H     0.88427   0.03727   0.18712   0.00000  Uiso   1.00
H310   H     0.61685   0.36414   0.01628   0.00000  Uiso   1.00
N311   N     0.75000   0.12935   0.16667   0.00000  Uiso   1.00
N312   N     0.75000   0.37066   0.16667   0.00000  Uiso   1.00
O313   O     0.68573   0.29072   0.16667   0.00000  Uiso   1.00
O314   O     0.67597   0.37123   0.12689   0.00000  Uiso   1.00
O315   O     0.71045   0.12896   0.08659   0.00000  Uiso   1.00
O316   O     0.82292   0.36978   0.20953   0.00000  Uiso   1.00
O317   O     0.52962   0.33746   0.14884   0.00000  Uiso   1.00
O318   O     0.97423   0.17857   0.11880   0.00000  Uiso   1.00
O319   O     0.97063   0.33071   0.20532   0.00000  Uiso   1.00
O320   O     0.52543   0.17160   0.20372   0.00000  Uiso   1.00
O321   O     0.61675   0.33643   0.19027   0.00000  Uiso   1.00
O322   O     0.87693   0.17769   0.11222   0.00000  Uiso   1.00
O323   O     0.88658   0.33719   0.15038   0.00000  Uiso   1.00
O324   O     0.81427   0.20929   0.16666   0.00000  Uiso   1.00
O325   O     0.61980   0.17468   0.21880   0.00000  Uiso   1.00
O326   O     0.80380   0.03509   0.24266   0.00000  Uiso   1.00
O327   O     0.67177   0.46940   0.13691   0.00000  Uiso   1.00
O328   O     0.70241   0.03239   0.08915   0.00000  Uiso   1.00
O329   O     0.82938   0.46711   0.20125   0.00000  Uiso   1.00
O330   O     0.81427   0.29072   0.16666   0.00000  Uiso   1.00
O331   O     0.68573   0.20929   0.16667   0.00000  Uiso   1.00
O332   O     0.75000   0.29071   0.09613   0.00000  Uiso   1.00
O333   O     0.75000   0.20929   0.23720   0.00000  Uiso   1.00
O334   O     0.75000   0.29071   0.23720   0.00000  Uiso   1.00
O335   O     0.75000   0.20929   0.09613   0.00000  Uiso   1.00
O336   O     0.79549   0.13164   0.24335   0.00000  Uiso   1.00
C337   C     0.16562   0.74992   0.17105   0.00000  Uiso   1.00
C338   C     0.28955   0.94528   0.18394   0.00000  Uiso   1.00
C339   C     0.24962   0.75003   0.07352   0.00000  Uiso   1.00
C340   C     0.25034   0.74998   0.25980   0.00000  Uiso   1.00
C341   C     0.25140   0.52767   0.16738   0.00000  Uiso   1.00
C342   C     0.25082   0.97264   0.16812   0.00000  Uiso   1.00
C343   C     0.24986   0.75005   0.02179   0.00000  Uiso   1.00
C344   C     0.25010   0.74997   0.31153   0.00000  Uiso   1.00
C345   C     0.04937   0.79426   0.16251   0.00000  Uiso   1.00
C346   C     0.45123   0.71385   0.14022   0.00000  Uiso   1.00
C347   C     0.45087   0.79142   0.18108   0.00000  Uiso   1.00
C348   C     0.33440   0.75007   0.16275   0.00000  Uiso   1.00
C349   C     0.04835   0.71129   0.19018   0.00000  Uiso   1.00
C350   C     0.09523   0.79416   0.17542   0.00000  Uiso   1.00
C351   C     0.40399   0.71110   0.13934   0.00000  Uiso   1.00
C352   C     0.40574   0.79367   0.16485   0.00000  Uiso   1.00
C353   C     0.09528   0.70950   0.19173   0.00000  Uiso   1.00
C354   C     0.11797   0.75050   0.17832   0.00000  Uiso   1.00
C355   C     0.38218   0.75075   0.15683   0.00000  Uiso   1.00
C356   C     0.02480   0.75241   0.17137   0.00000  Uiso   1.00
C357   C     0.47512   0.75211   0.16567   0.00000  Uiso   1.00
C358   C     0.34231   0.63179   0.24304   0.00000  Uiso   1.00
C359   C     0.27458   0.60576   0.20413   0.00000  Uiso   1.00
C360   C     0.36251   0.67178   0.27610   0.00000  Uiso   1.00
C361   C     0.17028   0.87606   0.07545   0.00000  Uiso   1.00
C362   C     0.12343   0.85946   0.05654   0.00000  Uiso   1.00
C363   C     0.16331   0.62846   0.08039   0.00000  Uiso   1.00
C364   C     0.14687   0.63027   0.02587   0.00000  Uiso   1.00
C365   C     0.32885   0.87629   0.26095   0.00000  Uiso   1.00
C366   C     0.37855   0.88026   0.27780   0.00000  Uiso   1.00
C367   C     0.01189   0.83631   0.09891   0.00000  Uiso   1.00
C368   C     0.49439   0.88565   0.08394   0.00000  Uiso   1.00
C369   C     0.48681   0.69482   0.07366   0.00000  Uiso   1.00
C370   C     0.21343   0.89573   0.14677   0.00000  Uiso   1.00
C371   C     0.02777   0.66736   0.06271   0.00000  Uiso   1.00
C372   C     0.48746   0.81808   0.25385   0.00000  Uiso   1.00
C373   C     0.00531   0.86266   0.28100   0.00000  Uiso   1.00
C374   C     0.01646   0.67654   0.25260   0.00000  Uiso   1.00
C375   C     0.49114   0.63250   0.26644   0.00000  Uiso   1.00
C376   C     0.12902   0.83404   0.24192   0.00000  Uiso   1.00
C377   C     0.15712   0.87706   0.26006   0.00000  Uiso   1.00
C378   C     0.39358   0.63074   0.11475   0.00000  Uiso   1.00
C379   C     0.35494   0.59649   0.10060   0.00000  Uiso   1.00
C380   C     0.37607   0.83658   0.09831   0.00000  Uiso   1.00
C381   C     0.22757   0.60459   0.12850   0.00000  Uiso   1.00
C382   C     0.35005   0.88069   0.07998   0.00000  Uiso   1.00
C383   C     0.11313   0.62920   0.19732   0.00000  Uiso   1.00
C384   C     0.15227   0.59777   0.21699   0.00000  Uiso   1.00
C385   C     0.28091   0.51882   0.28086   0.00000  Uiso   1.00
C386   C     0.31550   0.50085   0.32180   0.00000  Uiso   1.00
C387   C     0.14099   0.96340   0.17106   0.00000  Uiso   1.00
C388   C     0.09733   0.98732   0.15134   0.00000  Uiso   1.00
C389   C     0.22887   0.51386   0.05517   0.00000  Uiso   1.00
C390   C     0.19790   0.99574   0.01090   0.00000  Uiso   1.00
C391   C     0.35873   0.96712   0.16527   0.00000  Uiso   1.00
C392   C     0.28655   0.89496   0.18812   0.00000  Uiso   1.00
C393   C     0.39719   0.50101   0.18120   0.00000  Uiso   1.00
C394   C     0.27495   0.55537   0.20593   0.00000  Uiso   1.00
C395   C     0.21133   0.94613   0.15244   0.00000  Uiso   1.00
C396   C     0.22842   0.55415   0.12761   0.00000  Uiso   1.00
Cu397  Cu    0.25000   0.79822   0.16667   0.00000  Uiso   1.00
Cu398  Cu    0.25000   0.70179   0.16667   0.00000  Uiso   1.00
H399   H     0.35199   0.63748   0.20571   0.00000  Uiso   1.00
H400   H     0.11927   0.82123   0.06569   0.00000  Uiso   1.00
H401   H     0.15097   0.66082   0.09734   0.00000  Uiso   1.00
H402   H     0.14831   0.59650   0.09622   0.00000  Uiso   1.00
H403   H     0.15905   0.59864   0.00744   0.00000  Uiso   1.00
H404   H     0.10985   0.63025   0.02023   0.00000  Uiso   1.00
H405   H     0.15936   0.66306   0.00922   0.00000  Uiso   1.00
H406   H     0.31559   0.84457   0.27873   0.00000  Uiso   1.00
H407   H     0.31186   0.90821   0.27394   0.00000  Uiso   1.00
H408   H     0.39305   0.91081   0.25934   0.00000  Uiso   1.00
H409   H     0.38474   0.88573   0.31798   0.00000  Uiso   1.00
H410   H     0.35719   0.59790   0.25788   0.00000  Uiso   1.00
H411   H     0.39526   0.84701   0.26836   0.00000  Uiso   1.00
H412   H     0.48345   0.81116   0.09261   0.00000  Uiso   1.00
H413   H     0.03756   0.82587   0.07513   0.00000  Uiso   1.00
H414   H     0.02239   0.91156   0.08560   0.00000  Uiso   1.00
H415   H     0.47693   0.88471   0.04604   0.00000  Uiso   1.00
H416   H     0.47038   0.89758   0.10904   0.00000  Uiso   1.00
H417   H     0.49561   0.73333   0.07358   0.00000  Uiso   1.00
H418   H     0.45910   0.68833   0.04391   0.00000  Uiso   1.00
H419   H     0.01983   0.62877   0.05869   0.00000  Uiso   1.00
H420   H     0.03915   0.68095   0.02840   0.00000  Uiso   1.00
H421   H     0.35568   0.66540   0.31446   0.00000  Uiso   1.00
H422   H     0.05530   0.67228   0.09288   0.00000  Uiso   1.00
H423   H     0.01556   0.79265   0.25464   0.00000  Uiso   1.00
H424   H     0.46104   0.80192   0.27374   0.00000  Uiso   1.00
H425   H     0.47764   0.88770   0.28503   0.00000  Uiso   1.00
H426   H     0.02191   0.85279   0.31788   0.00000  Uiso   1.00
H427   H     0.03006   0.88074   0.26037   0.00000  Uiso   1.00
H428   H     0.49526   0.70822   0.25697   0.00000  Uiso   1.00
H429   H     0.04809   0.67951   0.27780   0.00000  Uiso   1.00
H430   H     0.01270   0.60054   0.26621   0.00000  Uiso   1.00
H431   H     0.48071   0.63680   0.30354   0.00000  Uiso   1.00
H432   H     0.39913   0.67330   0.27524   0.00000  Uiso   1.00
H433   H     0.46084   0.62718   0.23978   0.00000  Uiso   1.00
H434   H     0.14950   0.80199   0.25284   0.00000  Uiso   1.00
H435   H     0.09875   0.83291   0.26136   0.00000  Uiso   1.00
H436   H     0.13586   0.90922   0.26011   0.00000  Uiso   1.00
H437   H     0.17296   0.87068   0.29805   0.00000  Uiso   1.00
H438   H     0.18426   0.88300   0.23692   0.00000  Uiso   1.00
H439   H     0.40987   0.62148   0.15212   0.00000  Uiso   1.00
H440   H     0.41705   0.62567   0.08707   0.00000  Uiso   1.00
H441   H     0.33646   0.60723   0.06486   0.00000  Uiso   1.00
H442   H     0.36778   0.55985   0.09693   0.00000  Uiso   1.00
H443   H     0.34802   0.70661   0.26351   0.00000  Uiso   1.00
H444   H     0.33165   0.59655   0.12883   0.00000  Uiso   1.00
H445   H     0.35476   0.80554   0.08543   0.00000  Uiso   1.00
H446   H     0.40703   0.83509   0.08020   0.00000  Uiso   1.00
H447   H     0.33474   0.87505   0.04165   0.00000  Uiso   1.00
H448   H     0.32254   0.88736   0.10231   0.00000  Uiso   1.00
H449   H     0.37266   0.91202   0.08063   0.00000  Uiso   1.00
H450   H     0.11079   0.63079   0.15675   0.00000  Uiso   1.00
H451   H     0.08238   0.61221   0.20771   0.00000  Uiso   1.00
H452   H     0.18366   0.61872   0.22088   0.00000  Uiso   1.00
H453   H     0.14705   0.58339   0.25354   0.00000  Uiso   1.00
H454   H     0.19482   0.85371   0.05892   0.00000  Uiso   1.00
H455   H     0.15585   0.56765   0.19184   0.00000  Uiso   1.00
H456   H     0.25830   0.98889   0.26804   0.00000  Uiso   1.00
H457   H     0.26161   0.54835   0.29505   0.00000  Uiso   1.00
H458   H     0.33077   0.53143   0.01001   0.00000  Uiso   1.00
H459   H     0.30003   0.97615   0.01309   0.00000  Uiso   1.00
H460   H     0.34244   0.98125   0.30630   0.00000  Uiso   1.00
H461   H     0.15397   0.97965   0.20695   0.00000  Uiso   1.00
H462   H     0.13317   0.92528   0.17584   0.00000  Uiso   1.00
H463   H     0.08259   0.96903   0.11736   0.00000  Uiso   1.00
H464   H     0.07346   0.98513   0.17906   0.00000  Uiso   1.00
H465   H     0.17390   0.91348   0.06352   0.00000  Uiso   1.00
H466   H     0.10293   0.52528   0.14248   0.00000  Uiso   1.00
H467   H     0.24904   0.98346   0.07135   0.00000  Uiso   1.00
H468   H     0.25146   0.54184   0.04323   0.00000  Uiso   1.00
H469   H     0.19070   0.52462   0.31682   0.00000  Uiso   1.00
H470   H     0.21333   0.96527   0.32694   0.00000  Uiso   1.00
H471   H     0.16555   0.98352   0.02197   0.00000  Uiso   1.00
H472   H     0.34197   0.97905   0.12890   0.00000  Uiso   1.00
H473   H     0.37309   0.93106   0.16281   0.00000  Uiso   1.00
H474   H     0.41601   0.98834   0.21602   0.00000  Uiso   1.00
H475   H     0.42017   0.50266   0.15253   0.00000  Uiso   1.00
H476   H     0.09889   0.88103   0.07389   0.00000  Uiso   1.00
H477   H     0.38427   0.53727   0.18712   0.00000  Uiso   1.00
H478   H     0.11685   0.86414   0.01628   0.00000  Uiso   1.00
N479   N     0.25000   0.62935   0.16667   0.00000  Uiso   1.00
N480   N     0.25000   0.87066   0.16667   0.00000  Uiso   1.00
O481   O     0.18573   0.79072   0.16667   0.00000  Uiso   1.00
O482   O     0.17597   0.87123   0.12689   0.00000  Uiso   1.00
O483   O     0.21045   0.62896   0.08659   0.00000  Uiso   1.00
O484   O     0.32292   0.86978   0.20953   0.00000  Uiso   1.00
O485   O     0.02962   0.83746   0.14884   0.00000  Uiso   1.00
O486   O     0.47423   0.67857   0.11880   0.00000  Uiso   1.00
O487   O     0.47063   0.83071   0.20532   0.00000  Uiso   1.00
O488   O     0.02543   0.67160   0.20372   0.00000  Uiso   1.00
O489   O     0.11675   0.83643   0.19027   0.00000  Uiso   1.00
O490   O     0.37693   0.67769   0.11222   0.00000  Uiso   1.00
O491   O     0.38658   0.83719   0.15038   0.00000  Uiso   1.00
O492   O     0.31427   0.70929   0.16666   0.00000  Uiso   1.00
O493   O     0.11980   0.67468   0.21880   0.00000  Uiso   1.00
O494   O     0.30380   0.53509   0.24266   0.00000  Uiso   1.00
O495   O     0.17177   0.96940   0.13691   0.00000  Uiso   1.00
O496   O     0.20241   0.53239   0.08915   0.00000  Uiso   1.00
O497   O     0.32938   0.96711   0.20125   0.00000  Uiso   1.00
O498   O     0.31427   0.79072   0.16666   0.00000  Uiso   1.00
O499   O     0.18573   0.70929   0.16667   0.00000  Uiso   1.00
O500   O     0.25000   0.79071   0.09613   0.00000  Uiso   1.00
O501   O     0.25000   0.70929   0.23720   0.00000  Uiso   1.00
O502   O     0.25000   0.79071   0.23720   0.00000  Uiso   1.00
O503   O     0.25000   0.70929   0.09613   0.00000  Uiso   1.00
O504   O     0.29549   0.63164   0.24335   0.00000  Uiso   1.00
C505   C     0.66562   0.74992   0.17105   0.00000  Uiso   1.00
C506   C     0.78955   0.94528   0.18394   0.00000  Uiso   1.00
C507   C     0.74962   0.75003   0.07352   0.00000  Uiso   1.00
C508   C     0.75034   0.74998   0.25980   0.00000  Uiso   1.00
C509   C     0.75140   0.52767   0.16738   0.00000  Uiso   1.00
C510   C     0.75082   0.97264   0.16812   0.00000  Uiso   1.00
C511   C     0.74986   0.75005   0.02179   0.00000  Uiso   1.00
C512   C     0.75010   0.74997   0.31153   0.00000  Uiso   1.00
C513   C     0.54937   0.79426   0.16251   0.00000  Uiso   1.00
C514   C     0.95123   0.71385   0.14022   0.00000  Uiso   1.00
C515   C     0.95087   0.79142   0.18108   0.00000  Uiso   1.00
C516   C     0.83440   0.75007   0.16275   0.00000  Uiso   1.00
C517   C     0.54835   0.71129   0.19018   0.00000  Uiso   1.00
C518   C     0.59523   0.79416   0.17542   0.00000  Uiso   1.00
C519   C     0.90399   0.71110   0.13934   0.00000  Uiso   1.00
C520   C     0.90574   0.79367   0.16485   0.00000  Uiso   1.00
C521   C     0.59528   0.70950   0.19173   0.00000  Uiso   1.00
C522   C     0.61797   0.75050   0.17832   0.00000  Uiso   1.00
C523   C     0.88218   0.75075   0.15683   0.00000  Uiso   1.00
C524   C     0.52480   0.75241   0.17137   0.00000  Uiso   1.00
C525   C     0.97512   0.75211   0.16567   0.00000  Uiso   1.00
C526   C     0.84231   0.63179   0.24304   0.00000  Uiso   1.00
C527   C     0.77458   0.60576   0.20413   0.00000  Uiso   1.00
C528   C     0.86251   0.67178   0.27610   0.00000  Uiso   1.00
C529   C     0.67028   0.87606   0.07545   0.00000  Uiso   1.00
C530   C     0.62343   0.85946   0.05654   0.00000  Uiso   1.00
C531   C     0.66331   0.62846   0.08039   0.00000  Uiso   1.00
C532   C     0.64687   0.63027   0.02587   0.00000  Uiso   1.00
C533   C     0.82885   0.87629   0.26095   0.00000  Uiso   1.00
C534   C     0.87855   0.88026   0.27780   0.00000  Uiso   1.00
C535   C     0.51189   0.83631   0.09891   0.00000  Uiso   1.00
C536   C     0.99439   0.88565   0.08394   0.00000  Uiso   1.00
C537   C     0.98681   0.69482   0.07366   0.00000  Uiso   1.00
C538   C     0.71343   0.89573   0.14677   0.00000  Uiso   1.00
C539   C     0.52777   0.66736   0.06271   0.00000  Uiso   1.00
C540   C     0.98746   0.81808   0.25385   0.00000  Uiso   1.00
C541   C     0.50531   0.86266   0.28100   0.00000  Uiso   1.00
C542   C     0.51646   0.67654   0.25260   0.00000  Uiso   1.00
C543   C     0.99114   0.63250   0.26644   0.00000  Uiso   1.00
C544   C     0.62902   0.83404   0.24192   0.00000  Uiso   1.00
C545   C     0.65712   0.87706   0.26006   0.00000  Uiso   1.00
C546   C     0.89358   0.63074   0.11475   0.00000  Uiso   1.00
C547   C     0.85494   0.59649   0.10060   0.00000  Uiso   1.00
C548   C     0.87607   0.83658   0.09831   0.00000  Uiso   1.00
C549   C     0.72757   0.60459   0.12850   0.00000  Uiso   1.00
C550   C     0.85005   0.88069   0.07998   0.00000  Uiso   1.00
C551   C     0.61313   0.62920   0.19732   0.00000  Uiso   1.00
C552   C     0.65227   0.59777   0.21699   0.00000  Uiso   1.00
C553   C     0.78091   0.51882   0.28086   0.00000  Uiso   1.00
C554   C     0.81550   0.50085   0.32180   0.00000  Uiso   1.00
C555   C     0.64099   0.96340   0.17106   0.00000  Uiso   1.00
C556   C     0.59733   0.98732   0.15134   0.00000  Uiso   1.00
C557   C     0.72887   0.51386   0.05517   0.00000  Uiso   1.00
C558   C     0.69790   0.99574   0.01090   0.00000  Uiso   1.00
C559   C     0.85873   0.96712   0.16527   0.00000  Uiso   1.00
C560   C     0.78655   0.89496   0.18812   0.00000  Uiso   1.00
C561   C     0.89719   0.50101   0.18120   0.00000  Uiso   1.00
C562   C     0.77495   0.55537   0.20593   0.00000  Uiso   1.00
C563   C     0.71133   0.94613   0.15244   0.00000  Uiso   1.00
C564   C     0.72842   0.55415   0.12761   0.00000  Uiso   1.00
Cu565  Cu    0.75000   0.79822   0.16667   0.00000  Uiso   1.00
Cu566  Cu    0.75000   0.70179   0.16667   0.00000  Uiso   1.00
H567   H     0.85199   0.63748   0.20571   0.00000  Uiso   1.00
H568   H     0.61927   0.82123   0.06569   0.00000  Uiso   1.00
H569   H     0.65097   0.66082   0.09734   0.00000  Uiso   1.00
H570   H     0.64831   0.59650   0.09622   0.00000  Uiso   1.00
H571   H     0.65905   0.59864   0.00744   0.00000  Uiso   1.00
H572   H     0.60985   0.63025   0.02023   0.00000  Uiso   1.00
H573   H     0.65936   0.66306   0.00922   0.00000  Uiso   1.00
H574   H     0.81559   0.84457   0.27873   0.00000  Uiso   1.00
H575   H     0.81186   0.90821   0.27394   0.00000  Uiso   1.00
H576   H     0.89305   0.91081   0.25934   0.00000  Uiso   1.00
H577   H     0.88474   0.88573   0.31798   0.00000  Uiso   1.00
H578   H     0.85719   0.59790   0.25788   0.00000  Uiso   1.00
H579   H     0.89526   0.84701   0.26836   0.00000  Uiso   1.00
H580   H     0.98345   0.81116   0.09261   0.00000  Uiso   1.00
H581   H     0.53756   0.82587   0.07513   0.00000  Uiso   1.00
H582   H     0.52239   0.91156   0.08560   0.00000  Uiso   1.00
H583   H     0.97693   0.88471   0.04604   0.00000  Uiso   1.00
H584   H     0.97038   0.89758   0.10904   0.00000  Uiso   1.00
H585   H     0.99561   0.73333   0.07358   0.00000  Uiso   1.00
H586   H     0.95910   0.68833   0.04391   0.00000  Uiso   1.00
H587   H     0.51983   0.62877   0.05869   0.00000  Uiso   1.00
H588   H     0.53915   0.68095   0.02840   0.00000  Uiso   1.00
H589   H     0.85568   0.66540   0.31446   0.00000  Uiso   1.00
H590   H     0.55530   0.67228   0.09288   0.00000  Uiso   1.00
H591   H     0.51556   0.79265   0.25464   0.00000  Uiso   1.00
H592   H     0.96104   0.80192   0.27374   0.00000  Uiso   1.00
H593   H     0.97764   0.88770   0.28503   0.00000  Uiso   1.00
H594   H     0.52191   0.85279   0.31788   0.00000  Uiso   1.00
H595   H     0.53006   0.88074   0.26037   0.00000  Uiso   1.00
H596   H     0.99526   0.70822   0.25697   0.00000  Uiso   1.00
H597   H     0.54809   0.67951   0.27780   0.00000  Uiso   1.00
H598   H     0.51270   0.60054   0.26621   0.00000  Uiso   1.00
H599   H     0.98071   0.63680   0.30354   0.00000  Uiso   1.00
H600   H     0.89913   0.67330   0.27524   0.00000  Uiso   1.00
H601   H     0.96084   0.62718   0.23978   0.00000  Uiso   1.00
H602   H     0.64950   0.80199   0.25284   0.00000  Uiso   1.00
H603   H     0.59875   0.83291   0.26136   0.00000  Uiso   1.00
H604   H     0.63586   0.90922   0.26011   0.00000  Uiso   1.00
H605   H     0.67296   0.87068   0.29805   0.00000  Uiso   1.00
H606   H     0.68426   0.88300   0.23692   0.00000  Uiso   1.00
H607   H     0.90987   0.62148   0.15212   0.00000  Uiso   1.00
H608   H     0.91705   0.62567   0.08707   0.00000  Uiso   1.00
H609   H     0.83646   0.60723   0.06486   0.00000  Uiso   1.00
H610   H     0.86778   0.55985   0.09693   0.00000  Uiso   1.00
H611   H     0.84802   0.70661   0.26351   0.00000  Uiso   1.00
H612   H     0.83165   0.59655   0.12883   0.00000  Uiso   1.00
H613   H     0.85476   0.80554   0.08543   0.00000  Uiso   1.00
H614   H     0.90703   0.83509   0.08020   0.00000  Uiso   1.00
H615   H     0.83474   0.87505   0.04165   0.00000  Uiso   1.00
H616   H     0.82254   0.88736   0.10231   0.00000  Uiso   1.00
H617   H     0.87266   0.91202   0.08063   0.00000  Uiso   1.00
H618   H     0.61079   0.63079   0.15675   0.00000  Uiso   1.00
H619   H     0.58238   0.61221   0.20771   0.00000  Uiso   1.00
H620   H     0.68366   0.61872   0.22088   0.00000  Uiso   1.00
H621   H     0.64705   0.58339   0.25354   0.00000  Uiso   1.00
H622   H     0.69482   0.85371   0.05892   0.00000  Uiso   1.00
H623   H     0.65585   0.56765   0.19184   0.00000  Uiso   1.00
H624   H     0.75830   0.98889   0.26804   0.00000  Uiso   1.00
H625   H     0.76161   0.54835   0.29505   0.00000  Uiso   1.00
H626   H     0.83077   0.53143   0.01001   0.00000  Uiso   1.00
H627   H     0.80003   0.97615   0.01309   0.00000  Uiso   1.00
H628   H     0.84244   0.98125   0.30630   0.00000  Uiso   1.00
H629   H     0.65397   0.97965   0.20695   0.00000  Uiso   1.00
H630   H     0.63317   0.92528   0.17584   0.00000  Uiso   1.00
H631   H     0.58259   0.96903   0.11736   0.00000  Uiso   1.00
H632   H     0.57346   0.98513   0.17906   0.00000  Uiso   1.00
H633   H     0.67390   0.91348   0.06352   0.00000  Uiso   1.00
H634   H     0.60293   0.52528   0.14248   0.00000  Uiso   1.00
H635   H     0.74904   0.98346   0.07135   0.00000  Uiso   1.00
H636   H     0.75146   0.54184   0.04323   0.00000  Uiso   1.00
H637   H     0.69070   0.52462   0.31682   0.00000  Uiso   1.00
H638   H     0.71333   0.96527   0.32694   0.00000  Uiso   1.00
H639   H     0.66555   0.98352   0.02197   0.00000  Uiso   1.00
H640   H     0.84197   0.97905   0.12890   0.00000  Uiso   1.00
H641   H     0.87309   0.93106   0.16281   0.00000  Uiso   1.00
H642   H     0.91601   0.98834   0.21602   0.00000  Uiso   1.00
H643   H     0.92017   0.50266   0.15253   0.00000  Uiso   1.00
H644   H     0.59889   0.88103   0.07389   0.00000  Uiso   1.00
H645   H     0.88427   0.53727   0.18712   0.00000  Uiso   1.00
H646   H     0.61685   0.86414   0.01628   0.00000  Uiso   1.00
N647   N     0.75000   0.62935   0.16667   0.00000  Uiso   1.00
N648   N     0.75000   0.87066   0.16667   0.00000  Uiso   1.00
O649   O     0.68573   0.79072   0.16667   0.00000  Uiso   1.00
O650   O     0.67597   0.87123   0.12689   0.00000  Uiso   1.00
O651   O     0.71045   0.62896   0.08659   0.00000  Uiso   1.00
O652   O     0.82292   0.86978   0.20953   0.00000  Uiso   1.00
O653   O     0.52962   0.83746   0.14884   0.00000  Uiso   1.00
O654   O     0.97423   0.67857   0.11880   0.00000  Uiso   1.00
O655   O     0.97063   0.83071   0.20532   0.00000  Uiso   1.00
O656   O     0.52543   0.67160   0.20372   0.00000  Uiso   1.00
O657   O     0.61675   0.83643   0.19027   0.00000  Uiso   1.00
O658   O     0.87693   0.67769   0.11222   0.00000  Uiso   1.00
O659   O     0.88658   0.83719   0.15038   0.00000  Uiso   1.00
O660   O     0.81427   0.70929   0.16666   0.00000  Uiso   1.00
O661   O     0.61980   0.67468   0.21880   0.00000  Uiso   1.00
O662   O     0.80380   0.53509   0.24266   0.00000  Uiso   1.00
O663   O     0.67177   0.96940   0.13691   0.00000  Uiso   1.00
O664   O     0.70241   0.53239   0.08915   0.00000  Uiso   1.00
O665   O     0.82938   0.96711   0.20125   0.00000  Uiso   1.00
O666   O     0.81427   0.79072   0.16666   0.00000  Uiso   1.00
O667   O     0.68573   0.70929   0.16667   0.00000  Uiso   1.00
O668   O     0.75000   0.79071   0.09613   0.00000  Uiso   1.00
O669   O     0.75000   0.70929   0.23720   0.00000  Uiso   1.00
O670   O     0.75000   0.79071   0.23720   0.00000  Uiso   1.00
O671   O     0.75000   0.70929   0.09613   0.00000  Uiso   1.00
O672   O     0.79549   0.63164   0.24335   0.00000  Uiso   1.00
C673   C     0.16562   0.24992   0.50438   0.00000  Uiso   1.00
C674   C     0.28955   0.44528   0.51727   0.00000  Uiso   1.00
C675   C     0.24962   0.25003   0.40686   0.00000  Uiso   1.00
C676   C     0.25034   0.24998   0.59314   0.00000  Uiso   1.00
C677   C     0.25140   0.02767   0.50072   0.00000  Uiso   1.00
C678   C     0.25082   0.47264   0.50145   0.00000  Uiso   1.00
C679   C     0.24986   0.25005   0.35512   0.00000  Uiso   1.00
C680   C     0.25010   0.24997   0.64487   0.00000  Uiso   1.00
C681   C     0.04937   0.29426   0.49585   0.00000  Uiso   1.00
C682   C     0.45123   0.21385   0.47356   0.00000  Uiso   1.00
C683   C     0.45087   0.29142   0.51442   0.00000  Uiso   1.00
C684   C     0.33440   0.25007   0.49609   0.00000  Uiso   1.00
C685   C     0.04835   0.21129   0.52351   0.00000  Uiso   1.00
C686   C     0.09523   0.29416   0.50876   0.00000  Uiso   1.00
C687   C     0.40399   0.21110   0.47268   0.00000  Uiso   1.00
C688   C     0.40574   0.29367   0.49818   0.00000  Uiso   1.00
C689   C     0.09528   0.20950   0.52506   0.00000  Uiso   1.00
C690   C     0.11797   0.25050   0.51165   0.00000  Uiso   1.00
C691   C     0.38218   0.25075   0.49017   0.00000  Uiso   1.00
C692   C     0.02480   0.25241   0.50470   0.00000  Uiso   1.00
C693   C     0.47512   0.25211   0.49901   0.00000  Uiso   1.00
C694   C     0.34231   0.13179   0.57638   0.00000  Uiso   1.00
C695   C     0.27458   0.10576   0.53747   0.00000  Uiso   1.00
C696   C     0.36251   0.17178   0.60943   0.00000  Uiso   1.00
C697   C     0.17028   0.37606   0.40879   0.00000  Uiso   1.00
C698   C     0.12343   0.35946   0.38988   0.00000  Uiso   1.00
C699   C     0.16331   0.12846   0.41372   0.00000  Uiso   1.00
C700   C     0.14687   0.13027   0.35921   0.00000  Uiso   1.00
C701   C     0.32885   0.37629   0.59429   0.00000  Uiso   1.00
C702   C     0.37855   0.38026   0.61113   0.00000  Uiso   1.00
C703   C     0.01189   0.33631   0.43225   0.00000  Uiso   1.00
C704   C     0.49439   0.38565   0.41728   0.00000  Uiso   1.00
C705   C     0.48681   0.19482   0.40699   0.00000  Uiso   1.00
C706   C     0.21343   0.39573   0.48010   0.00000  Uiso   1.00
C707   C     0.02777   0.16736   0.39605   0.00000  Uiso   1.00
C708   C     0.48746   0.31808   0.58718   0.00000  Uiso   1.00
C709   C     0.00531   0.36266   0.61434   0.00000  Uiso   1.00
C710   C     0.01646   0.17654   0.58594   0.00000  Uiso   1.00
C711   C     0.49114   0.13250   0.59978   0.00000  Uiso   1.00
C712   C     0.12902   0.33404   0.57525   0.00000  Uiso   1.00
C713   C     0.15712   0.37706   0.59339   0.00000  Uiso   1.00
C714   C     0.39358   0.13074   0.44809   0.00000  Uiso   1.00
C715   C     0.35494   0.09649   0.43393   0.00000  Uiso   1.00
C716   C     0.37607   0.33658   0.43165   0.00000  Uiso   1.00
C717   C     0.22757   0.10459   0.46183   0.00000  Uiso   1.00
C718   C     0.35005   0.38069   0.41331   0.00000  Uiso   1.00
C719   C     0.11313   0.12920   0.53065   0.00000  Uiso   1.00
C720   C     0.15227   0.09777   0.55032   0.00000  Uiso   1.00
C721   C     0.28091   0.01882   0.61419   0.00000  Uiso   1.00
C722   C     0.31550   0.00085   0.65513   0.00000  Uiso   1.00
C723   C     0.14099   0.46340   0.50440   0.00000  Uiso   1.00
C724   C     0.09733   0.48732   0.48468   0.00000  Uiso   1.00
C725   C     0.22887   0.01386   0.38850   0.00000  Uiso   1.00
C726   C     0.19790   0.49574   0.34423   0.00000  Uiso   1.00
C727   C     0.35873   0.46712   0.49861   0.00000  Uiso   1.00
C728   C     0.28655   0.39496   0.52145   0.00000  Uiso   1.00
C729   C     0.39719   0.00101   0.51453   0.00000  Uiso   1.00
C730   C     0.27495   0.05537   0.53926   0.00000  Uiso   1.00
C731   C     0.21133   0.44613   0.48578   0.00000  Uiso   1.00
C732   C     0.22842   0.05415   0.46094   0.00000  Uiso   1.00
Cu733  Cu    0.25000   0.29822   0.50000   0.00000  Uiso   1.00
Cu734  Cu    0.25000   0.20179   0.50000   0.00000  Uiso   1.00
H735   H     0.35199   0.13748   0.53904   0.00000  Uiso   1.00
H736   H     0.11927   0.32123   0.39902   0.00000  Uiso   1.00
H737   H     0.15097   0.16082   0.43067   0.00000  Uiso   1.00
H738   H     0.14831   0.09650   0.42955   0.00000  Uiso   1.00
H739   H     0.15905   0.09864   0.34077   0.00000  Uiso   1.00
H740   H     0.10985   0.13025   0.35357   0.00000  Uiso   1.00
H741   H     0.15936   0.16306   0.34256   0.00000  Uiso   1.00
H742   H     0.31559   0.34457   0.61206   0.00000  Uiso   1.00
H743   H     0.31186   0.40821   0.60728   0.00000  Uiso   1.00
H744   H     0.39305   0.41081   0.59268   0.00000  Uiso   1.00
H745   H     0.38474   0.38573   0.65131   0.00000  Uiso   1.00
H746   H     0.35719   0.09790   0.59121   0.00000  Uiso   1.00
H747   H     0.39526   0.34701   0.60169   0.00000  Uiso   1.00
H748   H     0.48345   0.31116   0.42595   0.00000  Uiso   1.00
H749   H     0.03756   0.32587   0.40846   0.00000  Uiso   1.00
H750   H     0.02239   0.41156   0.41893   0.00000  Uiso   1.00
H751   H     0.47693   0.38471   0.37937   0.00000  Uiso   1.00
H752   H     0.47038   0.39758   0.44237   0.00000  Uiso   1.00
H753   H     0.49561   0.23333   0.40692   0.00000  Uiso   1.00
H754   H     0.45910   0.18833   0.37724   0.00000  Uiso   1.00
H755   H     0.01983   0.12877   0.39202   0.00000  Uiso   1.00
H756   H     0.03915   0.18095   0.36173   0.00000  Uiso   1.00
H757   H     0.35568   0.16540   0.64779   0.00000  Uiso   1.00
H758   H     0.05530   0.17228   0.42621   0.00000  Uiso   1.00
H759   H     0.01556   0.29265   0.58797   0.00000  Uiso   1.00
H760   H     0.46104   0.30192   0.60708   0.00000  Uiso   1.00
H761   H     0.47764   0.38770   0.61837   0.00000  Uiso   1.00
H762   H     0.02191   0.35279   0.65121   0.00000  Uiso   1.00
H763   H     0.03006   0.38074   0.59370   0.00000  Uiso   1.00
H764   H     0.49526   0.20822   0.59031   0.00000  Uiso   1.00
H765   H     0.04809   0.17951   0.61114   0.00000  Uiso   1.00
H766   H     0.01270   0.10054   0.59954   0.00000  Uiso   1.00
H767   H     0.48071   0.13680   0.63688   0.00000  Uiso   1.00
H768   H     0.39913   0.17330   0.60857   0.00000  Uiso   1.00
H769   H     0.46084   0.12718   0.57311   0.00000  Uiso   1.00
H770   H     0.14950   0.30199   0.58618   0.00000  Uiso   1.00
H771   H     0.09875   0.33291   0.59469   0.00000  Uiso   1.00
H772   H     0.13586   0.40922   0.59345   0.00000  Uiso   1.00
H773   H     0.17296   0.37068   0.63139   0.00000  Uiso   1.00
H774   H     0.18426   0.38300   0.57025   0.00000  Uiso   1.00
H775   H     0.40987   0.12148   0.48546   0.00000  Uiso   1.00
H776   H     0.41705   0.12567   0.42041   0.00000  Uiso   1.00
H777   H     0.33646   0.10723   0.39819   0.00000  Uiso   1.00
H778   H     0.36778   0.05985   0.43026   0.00000  Uiso   1.00
H779   H     0.34802   0.20661   0.59684   0.00000  Uiso   1.00
H780   H     0.33165   0.09655   0.46217   0.00000  Uiso   1.00
H781   H     0.35476   0.30554   0.41876   0.00000  Uiso   1.00
H782   H     0.40703   0.33509   0.41353   0.00000  Uiso   1.00
H783   H     0.33474   0.37505   0.37498   0.00000  Uiso   1.00
H784   H     0.32254   0.38736   0.43564   0.00000  Uiso   1.00
H785   H     0.37266   0.41202   0.41397   0.00000  Uiso   1.00
H786   H     0.11079   0.13079   0.49008   0.00000  Uiso   1.00
H787   H     0.08238   0.11221   0.54104   0.00000  Uiso   1.00
H788   H     0.18366   0.11872   0.55422   0.00000  Uiso   1.00
H789   H     0.14705   0.08339   0.58687   0.00000  Uiso   1.00
H790   H     0.19482   0.35371   0.39225   0.00000  Uiso   1.00
H791   H     0.15585   0.06765   0.52517   0.00000  Uiso   1.00
H792   H     0.25830   0.48889   0.60138   0.00000  Uiso   1.00
H793   H     0.26161   0.04835   0.62838   0.00000  Uiso   1.00
H794   H     0.33077   0.03143   0.34334   0.00000  Uiso   1.00
H795   H     0.30003   0.47615   0.34643   0.00000  Uiso   1.00
H796   H     0.34244   0.48125   0.63963   0.00000  Uiso   1.00
H797   H     0.15397   0.47965   0.54029   0.00000  Uiso   1.00
H798   H     0.13317   0.42528   0.50917   0.00000  Uiso   1.00
H799   H     0.08259   0.46903   0.45069   0.00000  Uiso   1.00
H800   H     0.07346   0.48513   0.51239   0.00000  Uiso   1.00
H801   H     0.17390   0.41348   0.39685   0.00000  Uiso   1.00
H802   H     0.10293   0.02528   0.47581   0.00000  Uiso   1.00
H803   H     0.24904   0.48346   0.40468   0.00000  Uiso   1.00
H804   H     0.25146   0.04184   0.37656   0.00000  Uiso   1.00
H805   H     0.19070   0.02462   0.65015   0.00000  Uiso   1.00
H806   H     0.21333   0.46527   0.66028   0.00000  Uiso   1.00
H807   H     0.16555   0.48352   0.35530   0.00000  Uiso   1.00
H808   H     0.34197   0.47905   0.46224   0.00000  Uiso   1.00
H809   H     0.37309   0.43106   0.49614   0.00000  Uiso   1.00
H810   H     0.41601   0.48834   0.54935   0.00000  Uiso   1.00
H811   H     0.42017   0.00266   0.48587   0.00000  Uiso   1.00
H812   H     0.09889   0.38103   0.40723   0.00000  Uiso   1.00
H813   H     0.38427   0.03727   0.52046   0.00000  Uiso   1.00
H814   H     0.11685   0.36414   0.34962   0.00000  Uiso   1.00
N815   N     0.25000   0.12935   0.50000   0.00000  Uiso   1.00
N816   N     0.25000   0.37066   0.50000   0.00000  Uiso   1.00
O817   O     0.18573   0.29072   0.50000   0.00000  Uiso   1.00
O818   O     0.17597   0.37123   0.46023   0.00000  Uiso   1.00
O819   O     0.21045   0.12896   0.41993   0.00000  Uiso   1.00
O820   O     0.32292   0.36978   0.54287   0.00000  Uiso   1.00
O821   O     0.02962   0.33746   0.48217   0.00000  Uiso   1.00
O822   O     0.47423   0.17857   0.45213   0.00000  Uiso   1.00
O823   O     0.47063   0.33071   0.53865   0.00000  Uiso   1.00
O824   O     0.02543   0.17160   0.53705   0.00000  Uiso   1.00
O825   O     0.11675   0.33643   0.52360   0.00000  Uiso   1.00
O826   O     0.37693   0.17769   0.44555   0.00000  Uiso   1.00
O827   O     0.38658   0.33719   0.48371   0.00000  Uiso   1.00
O828   O     0.31427   0.20929   0.50000   0.00000  Uiso   1.00
O829   O     0.11980   0.17468   0.55213   0.00000  Uiso   1.00
O830   O     0.30380   0.03509   0.57600   0.00000  Uiso   1.00
O831   O     0.17177   0.46940   0.47025   0.00000  Uiso   1.00
O832   O     0.20241   0.03239   0.42248   0.00000  Uiso   1.00
O833   O     0.32938   0.46711   0.53459   0.00000  Uiso   1.00
O834   O     0.31427   0.29072   0.50000   0.00000  Uiso   1.00
O835   O     0.18573   0.20929   0.50000   0.00000  Uiso   1.00
O836   O     0.25000   0.29071   0.42946   0.00000  Uiso   1.00
O837   O     0.25000   0.20929   0.57054   0.00000  Uiso   1.00
O838   O     0.25000   0.29071   0.57054   0.00000  Uiso   1.00
O839   O     0.25000   0.20929   0.42946   0.00000  Uiso   1.00
O840   O     0.29549   0.13164   0.57668   0.00000  Uiso   1.00
C841   C     0.66562   0.24992   0.50438   0.00000  Uiso   1.00
C842   C     0.78955   0.44528   0.51727   0.00000  Uiso   1.00
C843   C     0.74962   0.25003   0.40686   0.00000  Uiso   1.00
C844   C     0.75034   0.24998   0.59314   0.00000  Uiso   1.00
C845   C     0.75140   0.02767   0.50072   0.00000  Uiso   1.00
C846   C     0.75082   0.47264   0.50145   0.00000  Uiso   1.00
C847   C     0.74986   0.25005   0.35512   0.00000  Uiso   1.00
C848   C     0.75010   0.24997   0.64487   0.00000  Uiso   1.00
C849   C     0.54937   0.29426   0.49585   0.00000  Uiso   1.00
C850   C     0.95123   0.21385   0.47356   0.00000  Uiso   1.00
C851   C     0.95087   0.29142   0.51442   0.00000  Uiso   1.00
C852   C     0.83440   0.25007   0.49609   0.00000  Uiso   1.00
C853   C     0.54835   0.21129   0.52351   0.00000  Uiso   1.00
C854   C     0.59523   0.29416   0.50876   0.00000  Uiso   1.00
C855   C     0.90399   0.21110   0.47268   0.00000  Uiso   1.00
C856   C     0.90574   0.29367   0.49818   0.00000  Uiso   1.00
C857   C     0.59528   0.20950   0.52506   0.00000  Uiso   1.00
C858   C     0.61797   0.25050   0.51165   0.00000  Uiso   1.00
C859   C     0.88218   0.25075   0.49017   0.00000  Uiso   1.00
C860   C     0.52480   0.25241   0.50470   0.00000  Uiso   1.00
C861   C     0.97512   0.25211   0.49901   0.00000  Uiso   1.00
C862   C     0.84231   0.13179   0.57638   0.00000  Uiso   1.00
C863   C     0.77458   0.10576   0.53747   0.00000  Uiso   1.00
C864   C     0.86251   0.17178   0.60943   0.00000  Uiso   1.00
C865   C     0.67028   0.37606   0.40879   0.00000  Uiso   1.00
C866   C     0.62343   0.35946   0.38988   0.00000  Uiso   1.00
C867   C     0.66331   0.12846   0.41372   0.00000  Uiso   1.00
C868   C     0.64687   0.13027   0.35921   0.00000  Uiso   1.00
C869   C     0.82885   0.37629   0.59429   0.00000  Uiso   1.00
C870   C     0.87855   0.38026   0.61113   0.00000  Uiso   1.00
C871   C     0.51189   0.33631   0.43225   0.00000  Uiso   1.00
C872   C     0.99439   0.38565   0.41728   0.00000  Uiso   1.00
C873   C     0.98681   0.19482   0.40699   0.00000  Uiso   1.00
C874   C     0.71343   0.39573   0.48010   0.00000  Uiso   1.00
C875   C     0.52777   0.16736   0.39605   0.00000  Uiso   1.00
C876   C     0.98746   0.31808   0.58718   0.00000  Uiso   1.00
C877   C     0.50531   0.36266   0.61434   0.00000  Uiso   1.00
C878   C     0.51646   0.17654   0.58594   0.00000  Uiso   1.00
C879   C     0.99114   0.13250   0.59978   0.00000  Uiso   1.00
C880   C     0.62902   0.33404   0.57525   0.00000  Uiso   1.00
C881   C     0.65712   0.37706   0.59339   0.00000  Uiso   1.00
C882   C     0.89358   0.13074   0.44809   0.00000  Uiso   1.00
C883   C     0.85494   0.09649   0.43393   0.00000  Uiso   1.00
C884   C     0.87607   0.33658   0.43165   0.00000  Uiso   1.00
C885   C     0.72757   0.10459   0.46183   0.00000  Uiso   1.00
C886   C     0.85005   0.38069   0.41331   0.00000  Uiso   1.00
C887   C     0.61313   0.12920   0.53065   0.00000  Uiso   1.00
C888   C     0.65227   0.09777   0.55032   0.00000  Uiso   1.00
C889   C     0.78091   0.01882   0.61419   0.00000  Uiso   1.00
C890   C     0.81550   0.00085   0.65513   0.00000  Uiso   1.00
C891   C     0.64099   0.46340   0.50440   0.00000  Uiso   1.00
C892   C     0.59733   0.48732   0.48468   0.00000  Uiso   1.00
C893   C     0.72887   0.01386   0.38850   0.00000  Uiso   1.00
C894   C     0.69790   0.49574   0.34423   0.00000  Uiso   1.00
C895   C     0.85873   0.46712   0.49861   0.00000  Uiso   1.00
C896   C     0.78655   0.39496   0.52145   0.00000  Uiso   1.00
C897   C     0.89719   0.00101   0.51453   0.00000  Uiso   1.00
C898   C     0.77495   0.05537   0.53926   0.00000  Uiso   1.00
C899   C     0.71133   0.44613   0.48578   0.00000  Uiso   1.00
C900   C     0.72842   0.05415   0.46094   0.00000  Uiso   1.00
Cu901  Cu    0.75000   0.29822   0.50000   0.00000  Uiso   1.00
Cu902  Cu    0.75000   0.20179   0.50000   0.00000  Uiso   1.00
H903   H     0.85199   0.13748   0.53904   0.00000  Uiso   1.00
H904   H     0.61927   0.32123   0.39902   0.00000  Uiso   1.00
H905   H     0.65097   0.16082   0.43067   0.00000  Uiso   1.00
H906   H     0.64831   0.09650   0.42955   0.00000  Uiso   1.00
H907   H     0.65905   0.09864   0.34077   0.00000  Uiso   1.00
H908   H     0.60985   0.13025   0.35357   0.00000  Uiso   1.00
H909   H     0.65936   0.16306   0.34256   0.00000  Uiso   1.00
H910   H     0.81559   0.34457   0.61206   0.00000  Uiso   1.00
H911   H     0.81186   0.40821   0.60728   0.00000  Uiso   1.00
H912   H     0.89305   0.41081   0.59268   0.00000  Uiso   1.00
H913   H     0.88474   0.38573   0.65131   0.00000  Uiso   1.00
H914   H     0.85719   0.09790   0.59121   0.00000  Uiso   1.00
H915   H     0.89526   0.34701   0.60169   0.00000  Uiso   1.00
H916   H     0.98345   0.31116   0.42595   0.00000  Uiso   1.00
H917   H     0.53756   0.32587   0.40846   0.00000  Uiso   1.00
H918   H     0.52239   0.41156   0.41893   0.00000  Uiso   1.00
H919   H     0.97693   0.38471   0.37937   0.00000  Uiso   1.00
H920   H     0.97038   0.39758   0.44237   0.00000  Uiso   1.00
H921   H     0.99561   0.23333   0.40692   0.00000  Uiso   1.00
H922   H     0.95910   0.18833   0.37724   0.00000  Uiso   1.00
H923   H     0.51983   0.12877   0.39202   0.00000  Uiso   1.00
H924   H     0.53915   0.18095   0.36173   0.00000  Uiso   1.00
H925   H     0.85568   0.16540   0.64779   0.00000  Uiso   1.00
H926   H     0.55530   0.17228   0.42621   0.00000  Uiso   1.00
H927   H     0.51556   0.29265   0.58797   0.00000  Uiso   1.00
H928   H     0.96104   0.30192   0.60708   0.00000  Uiso   1.00
H929   H     0.97764   0.38770   0.61837   0.00000  Uiso   1.00
H930   H     0.52191   0.35279   0.65121   0.00000  Uiso   1.00
H931   H     0.53006   0.38074   0.59370   0.00000  Uiso   1.00
H932   H     0.99526   0.20822   0.59031   0.00000  Uiso   1.00
H933   H     0.54809   0.17951   0.61114   0.00000  Uiso   1.00
H934   H     0.51270   0.10054   0.59954   0.00000  Uiso   1.00
H935   H     0.98071   0.13680   0.63688   0.00000  Uiso   1.00
H936   H     0.89913   0.17330   0.60857   0.00000  Uiso   1.00
H937   H     0.96084   0.12718   0.57311   0.00000  Uiso   1.00
H938   H     0.64950   0.30199   0.58618   0.00000  Uiso   1.00
H939   H     0.59875   0.33291   0.59469   0.00000  Uiso   1.00
H940   H     0.63586   0.40922   0.59345   0.00000  Uiso   1.00
H941   H     0.67296   0.37068   0.63139   0.00000  Uiso   1.00
H942   H     0.68426   0.38300   0.57025   0.00000  Uiso   1.00
H943   H     0.90987   0.12148   0.48546   0.00000  Uiso   1.00
H944   H     0.91705   0.12567   0.42041   0.00000  Uiso   1.00
H945   H     0.83646   0.10723   0.39819   0.00000  Uiso   1.00
H946   H     0.86778   0.05985   0.43026   0.00000  Uiso   1.00
H947   H     0.84802   0.20661   0.59684   0.00000  Uiso   1.00
H948   H     0.83165   0.09655   0.46217   0.00000  Uiso   1.00
H949   H     0.85476   0.30554   0.41876   0.00000  Uiso   1.00
H950   H     0.90703   0.33509   0.41353   0.00000  Uiso   1.00
H951   H     0.83474   0.37505   0.37498   0.00000  Uiso   1.00
H952   H     0.82254   0.38736   0.43564   0.00000  Uiso   1.00
H953   H     0.87266   0.41202   0.41397   0.00000  Uiso   1.00
H954   H     0.61079   0.13079   0.49008   0.00000  Uiso   1.00
H955   H     0.58238   0.11221   0.54104   0.00000  Uiso   1.00
H956   H     0.68366   0.11872   0.55422   0.00000  Uiso   1.00
H957   H     0.64705   0.08339   0.58687   0.00000  Uiso   1.00
H958   H     0.69482   0.35371   0.39225   0.00000  Uiso   1.00
H959   H     0.65585   0.06765   0.52517   0.00000  Uiso   1.00
H960   H     0.75830   0.48889   0.60138   0.00000  Uiso   1.00
H961   H     0.76161   0.04835   0.62838   0.00000  Uiso   1.00
H962   H     0.83077   0.03143   0.34334   0.00000  Uiso   1.00
H963   H     0.80003   0.47615   0.34643   0.00000  Uiso   1.00
H964   H     0.84244   0.48125   0.63963   0.00000  Uiso   1.00
H965   H     0.65397   0.47965   0.54029   0.00000  Uiso   1.00
H966   H     0.63317   0.42528   0.50917   0.00000  Uiso   1.00
H967   H     0.58259   0.46903   0.45069   0.00000  Uiso   1.00
H968   H     0.57346   0.48513   0.51239   0.00000  Uiso   1.00
H969   H     0.67390   0.41348   0.39685   0.00000  Uiso   1.00
H970   H     0.60293   0.02528   0.47581   0.00000  Uiso   1.00
H971   H     0.74904   0.48346   0.40468   0.00000  Uiso   1.00
H972   H     0.75146   0.04184   0.37656   0.00000  Uiso   1.00
H973   H     0.69070   0.02462   0.65015   0.00000  Uiso   1.00
H974   H     0.71333   0.46527   0.66028   0.00000  Uiso   1.00
H975   H     0.66555   0.48352   0.35530   0.00000  Uiso   1.00
H976   H     0.84197   0.47905   0.46224   0.00000  Uiso   1.00
H977   H     0.87309   0.43106   0.49614   0.00000  Uiso   1.00
H978   H     0.91601   0.48834   0.54935   0.00000  Uiso   1.00
H979   H     0.92017   0.00266   0.48587   0.00000  Uiso   1.00
H980   H     0.59889   0.38103   0.40723   0.00000  Uiso   1.00
H981   H     0.88427   0.03727   0.52046   0.00000  Uiso   1.00
H982   H     0.61685   0.36414   0.34962   0.00000  Uiso   1.00
N983   N     0.75000   0.12935   0.50000   0.00000  Uiso   1.00
N984   N     0.75000   0.37066   0.50000   0.00000  Uiso   1.00
O985   O     0.68573   0.29072   0.50000   0.00000  Uiso   1.00
O986   O     0.67597   0.37123   0.46023   0.00000  Uiso   1.00
O987   O     0.71045   0.12896   0.41993   0.00000  Uiso   1.00
O988   O     0.82292   0.36978   0.54287   0.00000  Uiso   1.00
O989   O     0.52962   0.33746   0.48217   0.00000  Uiso   1.00
O990   O     0.97423   0.17857   0.45213   0.00000  Uiso   1.00
O991   O     0.97063   0.33071   0.53865   0.00000  Uiso   1.00
O992   O     0.52543   0.17160   0.53705   0.00000  Uiso   1.00
O993   O     0.61675   0.33643   0.52360   0.00000  Uiso   1.00
O994   O     0.87693   0.17769   0.44555   0.00000  Uiso   1.00
O995   O     0.88658   0.33719   0.48371   0.00000  Uiso   1.00
O996   O     0.81427   0.20929   0.50000   0.00000  Uiso   1.00
O997   O     0.61980   0.17468   0.55213   0.00000  Uiso   1.00
O998   O     0.80380   0.03509   0.57600   0.00000  Uiso   1.00
O999   O     0.67177   0.46940   0.47025   0.00000  Uiso   1.00
O1000  O     0.70241   0.03239   0.42248   0.00000  Uiso   1.00
O1001  O     0.82938   0.46711   0.53459   0.00000  Uiso   1.00
O1002  O     0.81427   0.29072   0.50000   0.00000  Uiso   1.00
O1003  O     0.68573   0.20929   0.50000   0.00000  Uiso   1.00
O1004  O     0.75000   0.29071   0.42946   0.00000  Uiso   1.00
O1005  O     0.75000   0.20929   0.57054   0.00000  Uiso   1.00
O1006  O     0.75000   0.29071   0.57054   0.00000  Uiso   1.00
O1007  O     0.75000   0.20929   0.42946   0.00000  Uiso   1.00
O1008  O     0.79549   0.13164   0.57668   0.00000  Uiso   1.00
C1009  C     0.16562   0.74992   0.50438   0.00000  Uiso   1.00
C1010  C     0.28955   0.94528   0.51727   0.00000  Uiso   1.00
C1011  C     0.24962   0.75003   0.40686   0.00000  Uiso   1.00
C1012  C     0.25034   0.74998   0.59314   0.00000  Uiso   1.00
C1013  C     0.25140   0.52767   0.50072   0.00000  Uiso   1.00
C1014  C     0.25082   0.97264   0.50145   0.00000  Uiso   1.00
C1015  C     0.24986   0.75005   0.35512   0.00000  Uiso   1.00
C1016  C     0.25010   0.74997   0.64487   0.00000  Uiso   1.00
C1017  C     0.04937   0.79426   0.49585   0.00000  Uiso   1.00
C1018  C     0.45123   0.71385   0.47356   0.00000  Uiso   1.00
C1019  C     0.45087   0.79142   0.51442   0.00000  Uiso   1.00
C1020  C     0.33440   0.75007   0.49609   0.00000  Uiso   1.00
C1021  C     0.04835   0.71129   0.52351   0.00000  Uiso   1.00
C1022  C     0.09523   0.79416   0.50876   0.00000  Uiso   1.00
C1023  C     0.40399   0.71110   0.47268   0.00000  Uiso   1.00
C1024  C     0.40574   0.79367   0.49818   0.00000  Uiso   1.00
C1025  C     0.09528   0.70950   0.52506   0.00000  Uiso   1.00
C1026  C     0.11797   0.75050   0.51165   0.00000  Uiso   1.00
C1027  C     0.38218   0.75075   0.49017   0.00000  Uiso   1.00
C1028  C     0.02480   0.75241   0.50470   0.00000  Uiso   1.00
C1029  C     0.47512   0.75211   0.49901   0.00000  Uiso   1.00
C1030  C     0.34231   0.63179   0.57638   0.00000  Uiso   1.00
C1031  C     0.27458   0.60576   0.53747   0.00000  Uiso   1.00
C1032  C     0.36251   0.67178   0.60943   0.00000  Uiso   1.00
C1033  C     0.17028   0.87606   0.40879   0.00000  Uiso   1.00
C1034  C     0.12343   0.85946   0.38988   0.00000  Uiso   1.00
C1035  C     0.16331   0.62846   0.41372   0.00000  Uiso   1.00
C1036  C     0.14687   0.63027   0.35921   0.00000  Uiso   1.00
C1037  C     0.32885   0.87629   0.59429   0.00000  Uiso   1.00
C1038  C     0.37855   0.88026   0.61113   0.00000  Uiso   1.00
C1039  C     0.01189   0.83631   0.43225   0.00000  Uiso   1.00
C1040  C     0.49439   0.88565   0.41728   0.00000  Uiso   1.00
C1041  C     0.48681   0.69482   0.40699   0.00000  Uiso   1.00
C1042  C     0.21343   0.89573   0.48010   0.00000  Uiso   1.00
C1043  C     0.02777   0.66736   0.39605   0.00000  Uiso   1.00
C1044  C     0.48746   0.81808   0.58718   0.00000  Uiso   1.00
C1045  C     0.00531   0.86266   0.61434   0.00000  Uiso   1.00
C1046  C     0.01646   0.67654   0.58594   0.00000  Uiso   1.00
C1047  C     0.49114   0.63250   0.59978   0.00000  Uiso   1.00
C1048  C     0.12902   0.83404   0.57525   0.00000  Uiso   1.00
C1049  C     0.15712   0.87706   0.59339   0.00000  Uiso   1.00
C1050  C     0.39358   0.63074   0.44809   0.00000  Uiso   1.00
C1051  C     0.35494   0.59649   0.43393   0.00000  Uiso   1.00
C1052  C     0.37607   0.83658   0.43165   0.00000  Uiso   1.00
C1053  C     0.22757   0.60459   0.46183   0.00000  Uiso   1.00
C1054  C     0.35005   0.88069   0.41331   0.00000  Uiso   1.00
C1055  C     0.11313   0.62920   0.53065   0.00000  Uiso   1.00
C1056  C     0.15227   0.59777   0.55032   0.00000  Uiso   1.00
C1057  C     0.28091   0.51882   0.61419   0.00000  Uiso   1.00
C1058  C     0.31550   0.50085   0.65513   0.00000  Uiso   1.00
C1059  C     0.14099   0.96340   0.50440   0.00000  Uiso   1.00
C1060  C     0.09733   0.98732   0.48468   0.00000  Uiso   1.00
C1061  C     0.22887   0.51386   0.38850   0.00000  Uiso   1.00
C1062  C     0.19790   0.99574   0.34423   0.00000  Uiso   1.00
C1063  C     0.35873   0.96712   0.49861   0.00000  Uiso   1.00
C1064  C     0.28655   0.89496   0.52145   0.00000  Uiso   1.00
C1065  C     0.39719   0.50101   0.51453   0.00000  Uiso   1.00
C1066  C     0.27495   0.55537   0.53926   0.00000  Uiso   1.00
C1067  C     0.21133   0.94613   0.48578   0.00000  Uiso   1.00
C1068  C     0.22842   0.55415   0.46094   0.00000  Uiso   1.00
Cu1069 Cu    0.25000   0.79822   0.50000   0.00000  Uiso   1.00
Cu1070 Cu    0.25000   0.70179   0.50000   0.00000  Uiso   1.00
H1071  H     0.35199   0.63748   0.53904   0.00000  Uiso   1.00
H1072  H     0.11927   0.82123   0.39902   0.00000  Uiso   1.00
H1073  H     0.15097   0.66082   0.43067   0.00000  Uiso   1.00
H1074  H     0.14831   0.59650   0.42955   0.00000  Uiso   1.00
H1075  H     0.15905   0.59864   0.34077   0.00000  Uiso   1.00
H1076  H     0.10985   0.63025   0.35357   0.00000  Uiso   1.00
H1077  H     0.15936   0.66306   0.34256   0.00000  Uiso   1.00
H1078  H     0.31559   0.84457   0.61206   0.00000  Uiso   1.00
H1079  H     0.31186   0.90821   0.60728   0.00000  Uiso   1.00
H1080  H     0.39305   0.91081   0.59268   0.00000  Uiso   1.00
H1081  H     0.38474   0.88573   0.65131   0.00000  Uiso   1.00
H1082  H     0.35719   0.59790   0.59121   0.00000  Uiso   1.00
H1083  H     0.39526   0.84701   0.60169   0.00000  Uiso   1.00
H1084  H     0.48345   0.81116   0.42595   0.00000  Uiso   1.00
H1085  H     0.03756   0.82587   0.40846   0.00000  Uiso   1.00
H1086  H     0.02239   0.91156   0.41893   0.00000  Uiso   1.00
H1087  H     0.47693   0.88471   0.37937   0.00000  Uiso   1.00
H1088  H     0.47038   0.89758   0.44237   0.00000  Uiso   1.00
H1089  H     0.49561   0.73333   0.40692   0.00000  Uiso   1.00
H1090  H     0.45910   0.68833   0.37724   0.00000  Uiso   1.00
H1091  H     0.01983   0.62877   0.39202   0.00000  Uiso   1.00
H1092  H     0.03915   0.68095   0.36173   0.00000  Uiso   1.00
H1093  H     0.35568   0.66540   0.64779   0.00000  Uiso   1.00
H1094  H     0.05530   0.67228   0.42621   0.00000  Uiso   1.00
H1095  H     0.01556   0.79265   0.58797   0.00000  Uiso   1.00
H1096  H     0.46104   0.80192   0.60708   0.00000  Uiso   1.00
H1097  H     0.47764   0.88770   0.61837   0.00000  Uiso   1.00
H1098  H     0.02191   0.85279   0.65121   0.00000  Uiso   1.00
H1099  H     0.03006   0.88074   0.59370   0.00000  Uiso   1.00
H1100  H     0.49526   0.70822   0.59031   0.00000  Uiso   1.00
H1101  H     0.04809   0.67951   0.61114   0.00000  Uiso   1.00
H1102  H     0.01270   0.60054   0.59954   0.00000  Uiso   1.00
H1103  H     0.48071   0.63680   0.63688   0.00000  Uiso   1.00
H1104  H     0.39913   0.67330   0.60857   0.00000  Uiso   1.00
H1105  H     0.46084   0.62718   0.57311   0.00000  Uiso   1.00
H1106  H     0.14950   0.80199   0.58618   0.00000  Uiso   1.00
H1107  H     0.09875   0.83291   0.59469   0.00000  Uiso   1.00
H1108  H     0.13586   0.90922   0.59345   0.00000  Uiso   1.00
H1109  H     0.17296   0.87068   0.63139   0.00000  Uiso   1.00
H1110  H     0.18426   0.88300   0.57025   0.00000  Uiso   1.00
H1111  H     0.40987   0.62148   0.48546   0.00000  Uiso   1.00
H1112  H     0.41705   0.62567   0.42041   0.00000  Uiso   1.00
H1113  H     0.33646   0.60723   0.39819   0.00000  Uiso   1.00
H1114  H     0.36778   0.55985   0.43026   0.00000  Uiso   1.00
H1115  H     0.34802   0.70661   0.59684   0.00000  Uiso   1.00
H1116  H     0.33165   0.59655   0.46217   0.00000  Uiso   1.00
H1117  H     0.35476   0.80554   0.41876   0.00000  Uiso   1.00
H1118  H     0.40703   0.83509   0.41353   0.00000  Uiso   1.00
H1119  H     0.33474   0.87505   0.37498   0.00000  Uiso   1.00
H1120  H     0.32254   0.88736   0.43564   0.00000  Uiso   1.00
H1121  H     0.37266   0.91202   0.41397   0.00000  Uiso   1.00
H1122  H     0.11079   0.63079   0.49008   0.00000  Uiso   1.00
H1123  H     0.08238   0.61221   0.54104   0.00000  Uiso   1.00
H1124  H     0.18366   0.61872   0.55422   0.00000  Uiso   1.00
H1125  H     0.14705   0.58339   0.58687   0.00000  Uiso   1.00
H1126  H     0.19482   0.85371   0.39225   0.00000  Uiso   1.00
H1127  H     0.15585   0.56765   0.52517   0.00000  Uiso   1.00
H1128  H     0.25830   0.98889   0.60138   0.00000  Uiso   1.00
H1129  H     0.26161   0.54835   0.62838   0.00000  Uiso   1.00
H1130  H     0.33077   0.53143   0.34334   0.00000  Uiso   1.00
H1131  H     0.30003   0.97615   0.34643   0.00000  Uiso   1.00
H1132  H     0.34244   0.98125   0.63963   0.00000  Uiso   1.00
H1133  H     0.15397   0.97965   0.54029   0.00000  Uiso   1.00
H1134  H     0.13317   0.92528   0.50917   0.00000  Uiso   1.00
H1135  H     0.08259   0.96903   0.45069   0.00000  Uiso   1.00
H1136  H     0.07346   0.98513   0.51239   0.00000  Uiso   1.00
H1137  H     0.17390   0.91348   0.39685   0.00000  Uiso   1.00
H1138  H     0.10293   0.52528   0.47581   0.00000  Uiso   1.00
H1139  H     0.24904   0.98346   0.40468   0.00000  Uiso   1.00
H1140  H     0.25146   0.54184   0.37656   0.00000  Uiso   1.00
H1141  H     0.19070   0.52462   0.65015   0.00000  Uiso   1.00
H1142  H     0.21333   0.96527   0.66028   0.00000  Uiso   1.00
H1143  H     0.16555   0.98352   0.35530   0.00000  Uiso   1.00
H1144  H     0.34197   0.97905   0.46224   0.00000  Uiso   1.00
H1145  H     0.37309   0.93106   0.49614   0.00000  Uiso   1.00
H1146  H     0.41601   0.98834   0.54935   0.00000  Uiso   1.00
H1147  H     0.42017   0.50266   0.48587   0.00000  Uiso   1.00
H1148  H     0.09889   0.88103   0.40723   0.00000  Uiso   1.00
H1149  H     0.38427   0.53727   0.52046   0.00000  Uiso   1.00
H1150  H     0.11685   0.86414   0.34962   0.00000  Uiso   1.00
N1151  N     0.25000   0.62935   0.50000   0.00000  Uiso   1.00
N1152  N     0.25000   0.87066   0.50000   0.00000  Uiso   1.00
O1153  O     0.18573   0.79072   0.50000   0.00000  Uiso   1.00
O1154  O     0.17597   0.87123   0.46023   0.00000  Uiso   1.00
O1155  O     0.21045   0.62896   0.41993   0.00000  Uiso   1.00
O1156  O     0.32292   0.86978   0.54287   0.00000  Uiso   1.00
O1157  O     0.02962   0.83746   0.48217   0.00000  Uiso   1.00
O1158  O     0.47423   0.67857   0.45213   0.00000  Uiso   1.00
O1159  O     0.47063   0.83071   0.53865   0.00000  Uiso   1.00
O1160  O     0.02543   0.67160   0.53705   0.00000  Uiso   1.00
O1161  O     0.11675   0.83643   0.52360   0.00000  Uiso   1.00
O1162  O     0.37693   0.67769   0.44555   0.00000  Uiso   1.00
O1163  O     0.38658   0.83719   0.48371   0.00000  Uiso   1.00
O1164  O     0.31427   0.70929   0.50000   0.00000  Uiso   1.00
O1165  O     0.11980   0.67468   0.55213   0.00000  Uiso   1.00
O1166  O     0.30380   0.53509   0.57600   0.00000  Uiso   1.00
O1167  O     0.17177   0.96940   0.47025   0.00000  Uiso   1.00
O1168  O     0.20241   0.53239   0.42248   0.00000  Uiso   1.00
O1169  O     0.32938   0.96711   0.53459   0.00000  Uiso   1.00
O1170  O     0.31427   0.79072   0.50000   0.00000  Uiso   1.00
O1171  O     0.18573   0.70929   0.50000   0.00000  Uiso   1.00
O1172  O     0.25000   0.79071   0.42946   0.00000  Uiso   1.00
O1173  O     0.25000   0.70929   0.57054   0.00000  Uiso   1.00
O1174  O     0.25000   0.79071   0.57054   0.00000  Uiso   1.00
O1175  O     0.25000   0.70929   0.42946   0.00000  Uiso   1.00
O1176  O     0.29549   0.63164   0.57668   0.00000  Uiso   1.00
C1177  C     0.66562   0.74992   0.50438   0.00000  Uiso   1.00
C1178  C     0.78955   0.94528   0.51727   0.00000  Uiso   1.00
C1179  C     0.74962   0.75003   0.40686   0.00000  Uiso   1.00
C1180  C     0.75034   0.74998   0.59314   0.00000  Uiso   1.00
C1181  C     0.75140   0.52767   0.50072   0.00000  Uiso   1.00
C1182  C     0.75082   0.97264   0.50145   0.00000  Uiso   1.00
C1183  C     0.74986   0.75005   0.35512   0.00000  Uiso   1.00
C1184  C     0.75010   0.74997   0.64487   0.00000  Uiso   1.00
C1185  C     0.54937   0.79426   0.49585   0.00000  Uiso   1.00
C1186  C     0.95123   0.71385   0.47356   0.00000  Uiso   1.00
C1187  C     0.95087   0.79142   0.51442   0.00000  Uiso   1.00
C1188  C     0.83440   0.75007   0.49609   0.00000  Uiso   1.00
C1189  C     0.54835   0.71129   0.52351   0.00000  Uiso   1.00
C1190  C     0.59523   0.79416   0.50876   0.00000  Uiso   1.00
C1191  C     0.90399   0.71110   0.47268   0.00000  Uiso   1.00
C1192  C     0.90574   0.79367   0.49818   0.00000  Uiso   1.00
C1193  C     0.59528   0.70950   0.52506   0.00000  Uiso   1.00
C1194  C     0.61797   0.75050   0.51165   0.00000  Uiso   1.00
C1195  C     0.88218   0.75075   0.49017   0.00000  Uiso   1.00
C1196  C     0.52480   0.75241   0.50470   0.00000  Uiso   1.00
C1197  C     0.97512   0.75211   0.49901   0.00000  Uiso   1.00
C1198  C     0.84231   0.63179   0.57638   0.00000  Uiso   1.00
C1199  C     0.77458   0.60576   0.53747   0.00000  Uiso   1.00
C1200  C     0.86251   0.67178   0.60943   0.00000  Uiso   1.00
C1201  C     0.67028   0.87606   0.40879   0.00000  Uiso   1.00
C1202  C     0.62343   0.85946   0.38988   0.00000  Uiso   1.00
C1203  C     0.66331   0.62846   0.41372   0.00000  Uiso   1.00
C1204  C     0.64687   0.63027   0.35921   0.00000  Uiso   1.00
C1205  C     0.82885   0.87629   0.59429   0.00000  Uiso   1.00
C1206  C     0.87855   0.88026   0.61113   0.00000  Uiso   1.00
C1207  C     0.51189   0.83631   0.43225   0.00000  Uiso   1.00
C1208  C     0.99439   0.88565   0.41728   0.00000  Uiso   1.00
C1209  C     0.98681   0.69482   0.40699   0.00000  Uiso   1.00
C1210  C     0.71343   0.89573   0.48010   0.00000  Uiso   1.00
C1211  C     0.52777   0.66736   0.39605   0.00000  Uiso   1.00
C1212  C     0.98746   0.81808   0.58718   0.00000  Uiso   1.00
C1213  C     0.50531   0.86266   0.61434   0.00000  Uiso   1.00
C1214  C     0.51646   0.67654   0.58594   0.00000  Uiso   1.00
C1215  C     0.99114   0.63250   0.59978   0.00000  Uiso   1.00
C1216  C     0.62902   0.83404   0.57525   0.00000  Uiso   1.00
C1217  C     0.65712   0.87706   0.59339   0.00000  Uiso   1.00
C1218  C     0.89358   0.63074   0.44809   0.00000  Uiso   1.00
C1219  C     0.85494   0.59649   0.43393   0.00000  Uiso   1.00
C1220  C     0.87607   0.83658   0.43165   0.00000  Uiso   1.00
C1221  C     0.72757   0.60459   0.46183   0.00000  Uiso   1.00
C1222  C     0.85005   0.88069   0.41331   0.00000  Uiso   1.00
C1223  C     0.61313   0.62920   0.53065   0.00000  Uiso   1.00
C1224  C     0.65227   0.59777   0.55032   0.00000  Uiso   1.00
C1225  C     0.78091   0.51882   0.61419   0.00000  Uiso   1.00
C1226  C     0.81550   0.50085   0.65513   0.00000  Uiso   1.00
C1227  C     0.64099   0.96340   0.50440   0.00000  Uiso   1.00
C1228  C     0.59733   0.98732   0.48468   0.00000  Uiso   1.00
C1229  C     0.72887   0.51386   0.38850   0.00000  Uiso   1.00
C1230  C     0.69790   0.99574   0.34423   0.00000  Uiso   1.00
C1231  C     0.85873   0.96712   0.49861   0.00000  Uiso   1.00
C1232  C     0.78655   0.89496   0.52145   0.00000  Uiso   1.00
C1233  C     0.89719   0.50101   0.51453   0.00000  Uiso   1.00
C1234  C     0.77495   0.55537   0.53926   0.00000  Uiso   1.00
C1235  C     0.71133   0.94613   0.48578   0.00000  Uiso   1.00
C1236  C     0.72842   0.55415   0.46094   0.00000  Uiso   1.00
Cu1237 Cu    0.75000   0.79822   0.50000   0.00000  Uiso   1.00
Cu1238 Cu    0.75000   0.70179   0.50000   0.00000  Uiso   1.00
H1239  H     0.85199   0.63748   0.53904   0.00000  Uiso   1.00
H1240  H     0.61927   0.82123   0.39902   0.00000  Uiso   1.00
H1241  H     0.65097   0.66082   0.43067   0.00000  Uiso   1.00
H1242  H     0.64831   0.59650   0.42955   0.00000  Uiso   1.00
H1243  H     0.65905   0.59864   0.34077   0.00000  Uiso   1.00
H1244  H     0.60985   0.63025   0.35357   0.00000  Uiso   1.00
H1245  H     0.65936   0.66306   0.34256   0.00000  Uiso   1.00
H1246  H     0.81559   0.84457   0.61206   0.00000  Uiso   1.00
H1247  H     0.81186   0.90821   0.60728   0.00000  Uiso   1.00
H1248  H     0.89305   0.91081   0.59268   0.00000  Uiso   1.00
H1249  H     0.88474   0.88573   0.65131   0.00000  Uiso   1.00
H1250  H     0.85719   0.59790   0.59121   0.00000  Uiso   1.00
H1251  H     0.89526   0.84701   0.60169   0.00000  Uiso   1.00
H1252  H     0.98345   0.81116   0.42595   0.00000  Uiso   1.00
H1253  H     0.53756   0.82587   0.40846   0.00000  Uiso   1.00
H1254  H     0.52239   0.91156   0.41893   0.00000  Uiso   1.00
H1255  H     0.97693   0.88471   0.37937   0.00000  Uiso   1.00
H1256  H     0.97038   0.89758   0.44237   0.00000  Uiso   1.00
H1257  H     0.99561   0.73333   0.40692   0.00000  Uiso   1.00
H1258  H     0.95910   0.68833   0.37724   0.00000  Uiso   1.00
H1259  H     0.51983   0.62877   0.39202   0.00000  Uiso   1.00
H1260  H     0.53915   0.68095   0.36173   0.00000  Uiso   1.00
H1261  H     0.85568   0.66540   0.64779   0.00000  Uiso   1.00
H1262  H     0.55530   0.67228   0.42621   0.00000  Uiso   1.00
H1263  H     0.51556   0.79265   0.58797   0.00000  Uiso   1.00
H1264  H     0.96104   0.80192   0.60708   0.00000  Uiso   1.00
H1265  H     0.97764   0.88770   0.61837   0.00000  Uiso   1.00
H1266  H     0.52191   0.85279   0.65121   0.00000  Uiso   1.00
H1267  H     0.53006   0.88074   0.59370   0.00000  Uiso   1.00
H1268  H     0.99526   0.70822   0.59031   0.00000  Uiso   1.00
H1269  H     0.54809   0.67951   0.61114   0.00000  Uiso   1.00
H1270  H     0.51270   0.60054   0.59954   0.00000  Uiso   1.00
H1271  H     0.98071   0.63680   0.63688   0.00000  Uiso   1.00
H1272  H     0.89913   0.67330   0.60857   0.00000  Uiso   1.00
H1273  H     0.96084   0.62718   0.57311   0.00000  Uiso   1.00
H1274  H     0.64950   0.80199   0.58618   0.00000  Uiso   1.00
H1275  H     0.59875   0.83291   0.59469   0.00000  Uiso   1.00
H1276  H     0.63586   0.90922   0.59345   0.00000  Uiso   1.00
H1277  H     0.67296   0.87068   0.63139   0.00000  Uiso   1.00
H1278  H     0.68426   0.88300   0.57025   0.00000  Uiso   1.00
H1279  H     0.90987   0.62148   0.48546   0.00000  Uiso   1.00
H1280  H     0.91705   0.62567   0.42041   0.00000  Uiso   1.00
H1281  H     0.83646   0.60723   0.39819   0.00000  Uiso   1.00
H1282  H     0.86778   0.55985   0.43026   0.00000  Uiso   1.00
H1283  H     0.84802   0.70661   0.59684   0.00000  Uiso   1.00
H1284  H     0.83165   0.59655   0.46217   0.00000  Uiso   1.00
H1285  H     0.85476   0.80554   0.41876   0.00000  Uiso   1.00
H1286  H     0.90703   0.83509   0.41353   0.00000  Uiso   1.00
H1287  H     0.83474   0.87505   0.37498   0.00000  Uiso   1.00
H1288  H     0.82254   0.88736   0.43564   0.00000  Uiso   1.00
H1289  H     0.87266   0.91202   0.41397   0.00000  Uiso   1.00
H1290  H     0.61079   0.63079   0.49008   0.00000  Uiso   1.00
H1291  H     0.58238   0.61221   0.54104   0.00000  Uiso   1.00
H1292  H     0.68366   0.61872   0.55422   0.00000  Uiso   1.00
H1293  H     0.64705   0.58339   0.58687   0.00000  Uiso   1.00
H1294  H     0.69482   0.85371   0.39225   0.00000  Uiso   1.00
H1295  H     0.65585   0.56765   0.52517   0.00000  Uiso   1.00
H1296  H     0.75830   0.98889   0.60138   0.00000  Uiso   1.00
H1297  H     0.76161   0.54835   0.62838   0.00000  Uiso   1.00
H1298  H     0.83077   0.53143   0.34334   0.00000  Uiso   1.00
H1299  H     0.80003   0.97615   0.34643   0.00000  Uiso   1.00
H1300  H     0.84244   0.98125   0.63963   0.00000  Uiso   1.00
H1301  H     0.65397   0.97965   0.54029   0.00000  Uiso   1.00
H1302  H     0.63317   0.92528   0.50917   0.00000  Uiso   1.00
H1303  H     0.58259   0.96903   0.45069   0.00000  Uiso   1.00
H1304  H     0.57346   0.98513   0.51239   0.00000  Uiso   1.00
H1305  H     0.67390   0.91348   0.39685   0.00000  Uiso   1.00
H1306  H     0.60293   0.52528   0.47581   0.00000  Uiso   1.00
H1307  H     0.74904   0.98346   0.40468   0.00000  Uiso   1.00
H1308  H     0.75146   0.54184   0.37656   0.00000  Uiso   1.00
H1309  H     0.69070   0.52462   0.65015   0.00000  Uiso   1.00
H1310  H     0.71333   0.96527   0.66028   0.00000  Uiso   1.00
H1311  H     0.66555   0.98352   0.35530   0.00000  Uiso   1.00
H1312  H     0.84197   0.97905   0.46224   0.00000  Uiso   1.00
H1313  H     0.87309   0.93106   0.49614   0.00000  Uiso   1.00
H1314  H     0.91601   0.98834   0.54935   0.00000  Uiso   1.00
H1315  H     0.92017   0.50266   0.48587   0.00000  Uiso   1.00
H1316  H     0.59889   0.88103   0.40723   0.00000  Uiso   1.00
H1317  H     0.88427   0.53727   0.52046   0.00000  Uiso   1.00
H1318  H     0.61685   0.86414   0.34962   0.00000  Uiso   1.00
N1319  N     0.75000   0.62935   0.50000   0.00000  Uiso   1.00
N1320  N     0.75000   0.87066   0.50000   0.00000  Uiso   1.00
O1321  O     0.68573   0.79072   0.50000   0.00000  Uiso   1.00
O1322  O     0.67597   0.87123   0.46023   0.00000  Uiso   1.00
O1323  O     0.71045   0.62896   0.41993   0.00000  Uiso   1.00
O1324  O     0.82292   0.86978   0.54287   0.00000  Uiso   1.00
O1325  O     0.52962   0.83746   0.48217   0.00000  Uiso   1.00
O1326  O     0.97423   0.67857   0.45213   0.00000  Uiso   1.00
O1327  O     0.97063   0.83071   0.53865   0.00000  Uiso   1.00
O1328  O     0.52543   0.67160   0.53705   0.00000  Uiso   1.00
O1329  O     0.61675   0.83643   0.52360   0.00000  Uiso   1.00
O1330  O     0.87693   0.67769   0.44555   0.00000  Uiso   1.00
O1331  O     0.88658   0.83719   0.48371   0.00000  Uiso   1.00
O1332  O     0.81427   0.70929   0.50000   0.00000  Uiso   1.00
O1333  O     0.61980   0.67468   0.55213   0.00000  Uiso   1.00
O1334  O     0.80380   0.53509   0.57600   0.00000  Uiso   1.00
O1335  O     0.67177   0.96940   0.47025   0.00000  Uiso   1.00
O1336  O     0.70241   0.53239   0.42248   0.00000  Uiso   1.00
O1337  O     0.82938   0.96711   0.53459   0.00000  Uiso   1.00
O1338  O     0.81427   0.79072   0.50000   0.00000  Uiso   1.00
O1339  O     0.68573   0.70929   0.50000   0.00000  Uiso   1.00
O1340  O     0.75000   0.79071   0.42946   0.00000  Uiso   1.00
O1341  O     0.75000   0.70929   0.57054   0.00000  Uiso   1.00
O1342  O     0.75000   0.79071   0.57054   0.00000  Uiso   1.00
O1343  O     0.75000   0.70929   0.42946   0.00000  Uiso   1.00
O1344  O     0.79549   0.63164   0.57668   0.00000  Uiso   1.00
C1345  C     0.16562   0.24992   0.83772   0.00000  Uiso   1.00
C1346  C     0.28955   0.44528   0.85060   0.00000  Uiso   1.00
C1347  C     0.24962   0.25003   0.74019   0.00000  Uiso   1.00
C1348  C     0.25034   0.24998   0.92647   0.00000  Uiso   1.00
C1349  C     0.25140   0.02767   0.83405   0.00000  Uiso   1.00
C1350  C     0.25082   0.47264   0.83479   0.00000  Uiso   1.00
C1351  C     0.24986   0.25005   0.68846   0.00000  Uiso   1.00
C1352  C     0.25010   0.24997   0.97820   0.00000  Uiso   1.00
C1353  C     0.04937   0.29426   0.82918   0.00000  Uiso   1.00
C1354  C     0.45123   0.21385   0.80689   0.00000  Uiso   1.00
C1355  C     0.45087   0.29142   0.84775   0.00000  Uiso   1.00
C1356  C     0.33440   0.25007   0.82942   0.00000  Uiso   1.00
C1357  C     0.04835   0.21129   0.85684   0.00000  Uiso   1.00
C1358  C     0.09523   0.29416   0.84209   0.00000  Uiso   1.00
C1359  C     0.40399   0.21110   0.80601   0.00000  Uiso   1.00
C1360  C     0.40574   0.29367   0.83152   0.00000  Uiso   1.00
C1361  C     0.09528   0.20950   0.85840   0.00000  Uiso   1.00
C1362  C     0.11797   0.25050   0.84499   0.00000  Uiso   1.00
C1363  C     0.38218   0.25075   0.82350   0.00000  Uiso   1.00
C1364  C     0.02480   0.25241   0.83804   0.00000  Uiso   1.00
C1365  C     0.47512   0.25211   0.83234   0.00000  Uiso   1.00
C1366  C     0.34231   0.13179   0.90971   0.00000  Uiso   1.00
C1367  C     0.27458   0.10576   0.87080   0.00000  Uiso   1.00
C1368  C     0.36251   0.17178   0.94277   0.00000  Uiso   1.00
C1369  C     0.17028   0.37606   0.74212   0.00000  Uiso   1.00
C1370  C     0.12343   0.35946   0.72321   0.00000  Uiso   1.00
C1371  C     0.16331   0.12846   0.74706   0.00000  Uiso   1.00
C1372  C     0.14687   0.13027   0.69254   0.00000  Uiso   1.00
C1373  C     0.32885   0.37629   0.92762   0.00000  Uiso   1.00
C1374  C     0.37855   0.38026   0.94447   0.00000  Uiso   1.00
C1375  C     0.01189   0.33631   0.76558   0.00000  Uiso   1.00
C1376  C     0.49439   0.38565   0.75061   0.00000  Uiso   1.00
C1377  C     0.48681   0.19482   0.74033   0.00000  Uiso   1.00
C1378  C     0.21343   0.39573   0.81344   0.00000  Uiso   1.00
C1379  C     0.02777   0.16736   0.72938   0.00000  Uiso   1.00
C1380  C     0.48746   0.31808   0.92052   0.00000  Uiso   1.00
C1381  C     0.00531   0.36266   0.94767   0.00000  Uiso   1.00
C1382  C     0.01646   0.17654   0.91927   0.00000  Uiso   1.00
C1383  C     0.49114   0.13250   0.93311   0.00000  Uiso   1.00
C1384  C     0.12902   0.33404   0.90858   0.00000  Uiso   1.00
C1385  C     0.15712   0.37706   0.92673   0.00000  Uiso   1.00
C1386  C     0.39358   0.13074   0.78142   0.00000  Uiso   1.00
C1387  C     0.35494   0.09649   0.76727   0.00000  Uiso   1.00
C1388  C     0.37607   0.33658   0.76498   0.00000  Uiso   1.00
C1389  C     0.22757   0.10459   0.79517   0.00000  Uiso   1.00
C1390  C     0.35005   0.38069   0.74665   0.00000  Uiso   1.00
C1391  C     0.11313   0.12920   0.86398   0.00000  Uiso   1.00
C1392  C     0.15227   0.09777   0.88366   0.00000  Uiso   1.00
C1393  C     0.28091   0.01882   0.94753   0.00000  Uiso   1.00
C1394  C     0.31550   0.00085   0.98847   0.00000  Uiso   1.00
C1395  C     0.14099   0.46340   0.83773   0.00000  Uiso   1.00
C1396  C     0.09733   0.48732   0.81801   0.00000  Uiso   1.00
C1397  C     0.22887   0.01386   0.72183   0.00000  Uiso   1.00
C1398  C     0.19790   0.49574   0.67756   0.00000  Uiso   1.00
C1399  C     0.35873   0.46712   0.83194   0.00000  Uiso   1.00
C1400  C     0.28655   0.39496   0.85478   0.00000  Uiso   1.00
C1401  C     0.39719   0.00101   0.84787   0.00000  Uiso   1.00
C1402  C     0.27495   0.05537   0.87259   0.00000  Uiso   1.00
C1403  C     0.21133   0.44613   0.81911   0.00000  Uiso   1.00
C1404  C     0.22842   0.05415   0.79428   0.00000  Uiso   1.00
Cu1405 Cu    0.25000   0.29822   0.83333   0.00000  Uiso   1.00
Cu1406 Cu    0.25000   0.20179   0.83333   0.00000  Uiso   1.00
H1407  H     0.35199   0.13748   0.87238   0.00000  Uiso   1.00
H1408  H     0.11927   0.32123   0.73235   0.00000  Uiso   1.00
H1409  H     0.15097   0.16082   0.76400   0.00000  Uiso   1.00
H1410  H     0.14831   0.09650   0.76289   0.00000  Uiso   1.00
H1411  H     0.15905   0.09864   0.67411   0.00000  Uiso   1.00
H1412  H     0.10985   0.13025   0.68690   0.00000  Uiso   1.00
H1413  H     0.15936   0.16306   0.67589   0.00000  Uiso   1.00
H1414  H     0.31559   0.34457   0.94540   0.00000  Uiso   1.00
H1415  H     0.31186   0.40821   0.94061   0.00000  Uiso   1.00
H1416  H     0.39305   0.41081   0.92601   0.00000  Uiso   1.00
H1417  H     0.38474   0.38573   0.98465   0.00000  Uiso   1.00
H1418  H     0.35719   0.09790   0.92454   0.00000  Uiso   1.00
H1419  H     0.39526   0.34701   0.93503   0.00000  Uiso   1.00
H1420  H     0.48345   0.31116   0.75928   0.00000  Uiso   1.00
H1421  H     0.03756   0.32587   0.74180   0.00000  Uiso   1.00
H1422  H     0.02239   0.41156   0.75226   0.00000  Uiso   1.00
H1423  H     0.47693   0.38471   0.71271   0.00000  Uiso   1.00
H1424  H     0.47038   0.39758   0.77571   0.00000  Uiso   1.00
H1425  H     0.49561   0.23333   0.74025   0.00000  Uiso   1.00
H1426  H     0.45910   0.18833   0.71057   0.00000  Uiso   1.00
H1427  H     0.01983   0.12877   0.72536   0.00000  Uiso   1.00
H1428  H     0.03915   0.18095   0.69506   0.00000  Uiso   1.00
H1429  H     0.35568   0.16540   0.98112   0.00000  Uiso   1.00
H1430  H     0.05530   0.17228   0.75955   0.00000  Uiso   1.00
H1431  H     0.01556   0.29265   0.92131   0.00000  Uiso   1.00
H1432  H     0.46104   0.30192   0.94041   0.00000  Uiso   1.00
H1433  H     0.47764   0.38770   0.95170   0.00000  Uiso   1.00
H1434  H     0.02191   0.35279   0.98454   0.00000  Uiso   1.00
H1435  H     0.03006   0.38074   0.92704   0.00000  Uiso   1.00
H1436  H     0.49526   0.20822   0.92364   0.00000  Uiso   1.00
H1437  H     0.04809   0.17951   0.94447   0.00000  Uiso   1.00
H1438  H     0.01270   0.10054   0.93288   0.00000  Uiso   1.00
H1439  H     0.48071   0.13680   0.97021   0.00000  Uiso   1.00
H1440  H     0.39913   0.17330   0.94190   0.00000  Uiso   1.00
H1441  H     0.46084   0.12718   0.90644   0.00000  Uiso   1.00
H1442  H     0.14950   0.30199   0.91951   0.00000  Uiso   1.00
H1443  H     0.09875   0.33291   0.92803   0.00000  Uiso   1.00
H1444  H     0.13586   0.40922   0.92678   0.00000  Uiso   1.00
H1445  H     0.17296   0.37068   0.96472   0.00000  Uiso   1.00
H1446  H     0.18426   0.38300   0.90358   0.00000  Uiso   1.00
H1447  H     0.40987   0.12148   0.81879   0.00000  Uiso   1.00
H1448  H     0.41705   0.12567   0.75374   0.00000  Uiso   1.00
H1449  H     0.33646   0.10723   0.73152   0.00000  Uiso   1.00
H1450  H     0.36778   0.05985   0.76360   0.00000  Uiso   1.00
H1451  H     0.34802   0.20661   0.93017   0.00000  Uiso   1.00
H1452  H     0.33165   0.09655   0.79550   0.00000  Uiso   1.00
H1453  H     0.35476   0.30554   0.75209   0.00000  Uiso   1.00
H1454  H     0.40703   0.33509   0.74686   0.00000  Uiso   1.00
H1455  H     0.33474   0.37505   0.70831   0.00000  Uiso   1.00
H1456  H     0.32254   0.38736   0.76898   0.00000  Uiso   1.00
H1457  H     0.37266   0.41202   0.74730   0.00000  Uiso   1.00
H1458  H     0.11079   0.13079   0.82342   0.00000  Uiso   1.00
H1459  H     0.08238   0.11221   0.87438   0.00000  Uiso   1.00
H1460  H     0.18366   0.11872   0.88755   0.00000  Uiso   1.00
H1461  H     0.14705   0.08339   0.92021   0.00000  Uiso   1.00
H1462  H     0.19482   0.35371   0.72559   0.00000  Uiso   1.00
H1463  H     0.15585   0.06765   0.85850   0.00000  Uiso   1.00
H1464  H     0.25830   0.48889   0.93471   0.00000  Uiso   1.00
H1465  H     0.26161   0.04835   0.96171   0.00000  Uiso   1.00
H1466  H     0.33077   0.03143   0.67667   0.00000  Uiso   1.00
H1467  H     0.30003   0.47615   0.67976   0.00000  Uiso   1.00
H1468  H     0.34244   0.48125   0.97297   0.00000  Uiso   1.00
H1469  H     0.15397   0.47965   0.87362   0.00000  Uiso   1.00
H1470  H     0.13317   0.42528   0.84250   0.00000  Uiso   1.00
H1471  H     0.08259   0.46903   0.78402   0.00000  Uiso   1.00
H1472  H     0.07346   0.48513   0.84573   0.00000  Uiso   1.00
H1473  H     0.17390   0.41348   0.73018   0.00000  Uiso   1.00
H1474  H     0.10293   0.02528   0.80914   0.00000  Uiso   1.00
H1475  H     0.24904   0.48346   0.73801   0.00000  Uiso   1.00
H1476  H     0.25146   0.04184   0.70989   0.00000  Uiso   1.00
H1477  H     0.19070   0.02462   0.98349   0.00000  Uiso   1.00
H1478  H     0.21333   0.46527   0.99361   0.00000  Uiso   1.00
H1479  H     0.16555   0.48352   0.68863   0.00000  Uiso   1.00
H1480  H     0.34197   0.47905   0.79557   0.00000  Uiso   1.00
H1481  H     0.37309   0.43106   0.82947   0.00000  Uiso   1.00
H1482  H     0.41601   0.48834   0.88269   0.00000  Uiso   1.00
H1483  H     0.42017   0.00266   0.81920   0.00000  Uiso   1.00
H1484  H     0.09889   0.38103   0.74056   0.00000  Uiso   1.00
H1485  H     0.38427   0.03727   0.85379   0.00000  Uiso   1.00
H1486  H     0.11685   0.36414   0.68295   0.00000  Uiso   1.00
N1487  N     0.25000   0.12935   0.83333   0.00000  Uiso   1.00
N1488  N     0.25000   0.37066   0.83333   0.00000  Uiso   1.00
O1489  O     0.18573   0.29072   0.83334   0.00000  Uiso   1.00
O1490  O     0.17597   0.37123   0.79356   0.00000  Uiso   1.00
O1491  O     0.21045   0.12896   0.75326   0.00000  Uiso   1.00
O1492  O     0.32292   0.36978   0.87620   0.00000  Uiso   1.00
O1493  O     0.02962   0.33746   0.81551   0.00000  Uiso   1.00
O1494  O     0.47423   0.17857   0.78546   0.00000  Uiso   1.00
O1495  O     0.47063   0.33071   0.87198   0.00000  Uiso   1.00
O1496  O     0.02543   0.17160   0.87038   0.00000  Uiso   1.00
O1497  O     0.11675   0.33643   0.85693   0.00000  Uiso   1.00
O1498  O     0.37693   0.17769   0.77888   0.00000  Uiso   1.00
O1499  O     0.38658   0.33719   0.81705   0.00000  Uiso   1.00
O1500  O     0.31427   0.20929   0.83333   0.00000  Uiso   1.00
O1501  O     0.11980   0.17468   0.88547   0.00000  Uiso   1.00
O1502  O     0.30380   0.03509   0.90933   0.00000  Uiso   1.00
O1503  O     0.17177   0.46940   0.80358   0.00000  Uiso   1.00
O1504  O     0.20241   0.03239   0.75582   0.00000  Uiso   1.00
O1505  O     0.32938   0.46711   0.86792   0.00000  Uiso   1.00
O1506  O     0.31427   0.29072   0.83333   0.00000  Uiso   1.00
O1507  O     0.18573   0.20929   0.83334   0.00000  Uiso   1.00
O1508  O     0.25000   0.29071   0.76280   0.00000  Uiso   1.00
O1509  O     0.25000   0.20929   0.90387   0.00000  Uiso   1.00
O1510  O     0.25000   0.29071   0.90387   0.00000  Uiso   1.00
O1511  O     0.25000   0.20929   0.76280   0.00000  Uiso   1.00
O1512  O     0.29549   0.13164   0.91002   0.00000  Uiso   1.00
C1513  C     0.66562   0.24992   0.83772   0.00000  Uiso   1.00
C1514  C     0.78955   0.44528   0.85060   0.00000  Uiso   1.00
C1515  C     0.74962   0.25003   0.74019   0.00000  Uiso   1.00
C1516  C     0.75034   0.24998   0.92647   0.00000  Uiso   1.00
C1517  C     0.75140   0.02767   0.83405   0.00000  Uiso   1.00
C1518  C     0.75082   0.47264   0.83479   0.00000  Uiso   1.00
C1519  C     0.74986   0.25005   0.68846   0.00000  Uiso   1.00
C1520  C     0.75010   0.24997   0.97820   0.00000  Uiso   1.00
C1521  C     0.54937   0.29426   0.82918   0.00000  Uiso   1.00
C1522  C     0.95123   0.21385   0.80689   0.00000  Uiso   1.00
C1523  C     0.95087   0.29142   0.84775   0.00000  Uiso   1.00
C1524  C     0.83440   0.25007   0.82942   0.00000  Uiso   1.00
C1525  C     0.54835   0.21129   0.85684   0.00000  Uiso   1.00
C1526  C     0.59523   0.29416   0.84209   0.00000  Uiso   1.00
C1527  C     0.90399   0.21110   0.80601   0.00000  Uiso   1.00
C1528  C     0.90574   0.29367   0.83152   0.00000  Uiso   1.00
C1529  C     0.59528   0.20950   0.85840   0.00000  Uiso   1.00
C1530  C     0.61797   0.25050   0.84499   0.00000  Uiso   1.00
C1531  C     0.88218   0.25075   0.82350   0.00000  Uiso   1.00
C1532  C     0.52480   0.25241   0.83804   0.00000  Uiso   1.00
C1533  C     0.97512   0.25211   0.83234   0.00000  Uiso   1.00
C1534  C     0.84231   0.13179   0.90971   0.00000  Uiso   1.00
C1535  C     0.77458   0.10576   0.87080   0.00000  Uiso   1.00
C1536  C     0.86251   0.17178   0.94277   0.00000  Uiso   1.00
C1537  C     0.67028   0.37606   0.74212   0.00000  Uiso   1.00
C1538  C     0.62343   0.35946   0.72321   0.00000  Uiso   1.00
C1539  C     0.66331   0.12846   0.74706   0.00000  Uiso   1.00
C1540  C     0.64687   0.13027   0.69254   0.00000  Uiso   1.00
C1541  C     0.82885   0.37629   0.92762   0.00000  Uiso   1.00
C1542  C     0.87855   0.38026   0.94447   0.00000  Uiso   1.00
C1543  C     0.51189   0.33631   0.76558   0.00000  Uiso   1.00
C1544  C     0.99439   0.38565   0.75061   0.00000  Uiso   1.00
C1545  C     0.98681   0.19482   0.74033   0.00000  Uiso   1.00
C1546  C     0.71343   0.39573   0.81344   0.00000  Uiso   1.00
C1547  C     0.52777   0.16736   0.72938   0.00000  Uiso   1.00
C1548  C     0.98746   0.31808   0.92052   0.00000  Uiso   1.00
C1549  C     0.50531   0.36266   0.94767   0.00000  Uiso   1.00
C1550  C     0.51646   0.17654   0.91927   0.00000  Uiso   1.00
C1551  C     0.99114   0.13250   0.93311   0.00000  Uiso   1.00
C1552  C     0.62902   0.33404   0.90858   0.00000  Uiso   1.00
C1553  C     0.65712   0.37706   0.92673   0.00000  Uiso   1.00
C1554  C     0.89358   0.13074   0.78142   0.00000  Uiso   1.00
C1555  C     0.85494   0.09649   0.76727   0.00000  Uiso   1.00
C1556  C     0.87607   0.33658   0.76498   0.00000  Uiso   1.00
C1557  C     0.72757   0.10459   0.79517   0.00000  Uiso   1.00
C1558  C     0.85005   0.38069   0.74665   0.00000  Uiso   1.00
C1559  C     0.61313   0.12920   0.86398   0.00000  Uiso   1.00
C1560  C     0.65227   0.09777   0.88366   0.00000  Uiso   1.00
C1561  C     0.78091   0.01882   0.94753   0.00000  Uiso   1.00
C1562  C     0.81550   0.00085   0.98847   0.00000  Uiso   1.00
C1563  C     0.64099   0.46340   0.83773   0.00000  Uiso   1.00
C1564  C     0.59733   0.48732   0.81801   0.00000  Uiso   1.00
C1565  C     0.72887   0.01386   0.72183   0.00000  Uiso   1.00
C1566  C     0.69790   0.49574   0.67756   0.00000  Uiso   1.00
C1567  C     0.85873   0.46712   0.83194   0.00000  Uiso   1.00
C1568  C     0.78655   0.39496   0.85478   0.00000  Uiso   1.00
C1569  C     0.89719   0.00101   0.84787   0.00000  Uiso   1.00
C1570  C     0.77495   0.05537   0.87259   0.00000  Uiso   1.00
C1571  C     0.71133   0.44613   0.81911   0.00000  Uiso   1.00
C1572  C     0.72842   0.05415   0.79428   0.00000  Uiso   1.00
Cu1573 Cu    0.75000   0.29822   0.83333   0.00000  Uiso   1.00
Cu1574 Cu    0.75000   0.20179   0.83333   0.00000  Uiso   1.00
H1575  H     0.85199   0.13748   0.87238   0.00000  Uiso   1.00
H1576  H     0.61927   0.32123   0.73235   0.00000  Uiso   1.00
H1577  H     0.65097   0.16082   0.76400   0.00000  Uiso   1.00
H1578  H     0.64831   0.09650   0.76289   0.00000  Uiso   1.00
H1579  H     0.65905   0.09864   0.67411   0.00000  Uiso   1.00
H1580  H     0.60985   0.13025   0.68690   0.00000  Uiso   1.00
H1581  H     0.65936   0.16306   0.67589   0.00000  Uiso   1.00
H1582  H     0.81559   0.34457   0.94540   0.00000  Uiso   1.00
H1583  H     0.81186   0.40821   0.94061   0.00000  Uiso   1.00
H1584  H     0.89305   0.41081   0.92601   0.00000  Uiso   1.00
H1585  H     0.88474   0.38573   0.98465   0.00000  Uiso   1.00
H1586  H     0.85719   0.09790   0.92454   0.00000  Uiso   1.00
H1587  H     0.89526   0.34701   0.93503   0.00000  Uiso   1.00
H1588  H     0.98345   0.31116   0.75928   0.00000  Uiso   1.00
H1589  H     0.53756   0.32587   0.74180   0.00000  Uiso   1.00
H1590  H     0.52239   0.41156   0.75226   0.00000  Uiso   1.00
H1591  H     0.97693   0.38471   0.71271   0.00000  Uiso   1.00
H1592  H     0.97038   0.39758   0.77571   0.00000  Uiso   1.00
H1593  H     0.99561   0.23333   0.74025   0.00000  Uiso   1.00
H1594  H     0.95910   0.18833   0.71057   0.00000  Uiso   1.00
H1595  H     0.51983   0.12877   0.72536   0.00000  Uiso   1.00
H1596  H     0.53915   0.18095   0.69506   0.00000  Uiso   1.00
H1597  H     0.85568   0.16540   0.98112   0.00000  Uiso   1.00
H1598  H     0.55530   0.17228   0.75955   0.00000  Uiso   1.00
H1599  H     0.51556   0.29265   0.92131   0.00000  Uiso   1.00
H1600  H     0.96104   0.30192   0.94041   0.00000  Uiso   1.00
H1601  H     0.97764   0.38770   0.95170   0.00000  Uiso   1.00
H1602  H     0.52191   0.35279   0.98454   0.00000  Uiso   1.00
H1603  H     0.53006   0.38074   0.92704   0.00000  Uiso   1.00
H1604  H     0.99526   0.20822   0.92364   0.00000  Uiso   1.00
H1605  H     0.54809   0.17951   0.94447   0.00000  Uiso   1.00
H1606  H     0.51270   0.10054   0.93288   0.00000  Uiso   1.00
H1607  H     0.98071   0.13680   0.97021   0.00000  Uiso   1.00
H1608  H     0.89913   0.17330   0.94190   0.00000  Uiso   1.00
H1609  H     0.96084   0.12718   0.90644   0.00000  Uiso   1.00
H1610  H     0.64950   0.30199   0.91951   0.00000  Uiso   1.00
H1611  H     0.59875   0.33291   0.92803   0.00000  Uiso   1.00
H1612  H     0.63586   0.40922   0.92678   0.00000  Uiso   1.00
H1613  H     0.67296   0.37068   0.96472   0.00000  Uiso   1.00
H1614  H     0.68426   0.38300   0.90358   0.00000  Uiso   1.00
H1615  H     0.90987   0.12148   0.81879   0.00000  Uiso   1.00
H1616  H     0.91705   0.12567   0.75374   0.00000  Uiso   1.00
H1617  H     0.83646   0.10723   0.73152   0.00000  Uiso   1.00
H1618  H     0.86778   0.05985   0.76360   0.00000  Uiso   1.00
H1619  H     0.84802   0.20661   0.93017   0.00000  Uiso   1.00
H1620  H     0.83165   0.09655   0.79550   0.00000  Uiso   1.00
H1621  H     0.85476   0.30554   0.75209   0.00000  Uiso   1.00
H1622  H     0.90703   0.33509   0.74686   0.00000  Uiso   1.00
H1623  H     0.83474   0.37505   0.70831   0.00000  Uiso   1.00
H1624  H     0.82254   0.38736   0.76898   0.00000  Uiso   1.00
H1625  H     0.87266   0.41202   0.74730   0.00000  Uiso   1.00
H1626  H     0.61079   0.13079   0.82342   0.00000  Uiso   1.00
H1627  H     0.58238   0.11221   0.87438   0.00000  Uiso   1.00
H1628  H     0.68366   0.11872   0.88755   0.00000  Uiso   1.00
H1629  H     0.64705   0.08339   0.92021   0.00000  Uiso   1.00
H1630  H     0.69482   0.35371   0.72559   0.00000  Uiso   1.00
H1631  H     0.65585   0.06765   0.85850   0.00000  Uiso   1.00
H1632  H     0.75830   0.48889   0.93471   0.00000  Uiso   1.00
H1633  H     0.76161   0.04835   0.96171   0.00000  Uiso   1.00
H1634  H     0.83077   0.03143   0.67667   0.00000  Uiso   1.00
H1635  H     0.80003   0.47615   0.67976   0.00000  Uiso   1.00
H1636  H     0.84244   0.48125   0.97297   0.00000  Uiso   1.00
H1637  H     0.65397   0.47965   0.87362   0.00000  Uiso   1.00
H1638  H     0.63317   0.42528   0.84250   0.00000  Uiso   1.00
H1639  H     0.58259   0.46903   0.78402   0.00000  Uiso   1.00
H1640  H     0.57346   0.48513   0.84573   0.00000  Uiso   1.00
H1641  H     0.67390   0.41348   0.73018   0.00000  Uiso   1.00
H1642  H     0.60293   0.02528   0.80914   0.00000  Uiso   1.00
H1643  H     0.74904   0.48346   0.73801   0.00000  Uiso   1.00
H1644  H     0.75146   0.04184   0.70989   0.00000  Uiso   1.00
H1645  H     0.69070   0.02462   0.98349   0.00000  Uiso   1.00
H1646  H     0.71333   0.46527   0.99361   0.00000  Uiso   1.00
H1647  H     0.66555   0.48352   0.68863   0.00000  Uiso   1.00
H1648  H     0.84197   0.47905   0.79557   0.00000  Uiso   1.00
H1649  H     0.87309   0.43106   0.82947   0.00000  Uiso   1.00
H1650  H     0.91601   0.48834   0.88269   0.00000  Uiso   1.00
H1651  H     0.92017   0.00266   0.81920   0.00000  Uiso   1.00
H1652  H     0.59889   0.38103   0.74056   0.00000  Uiso   1.00
H1653  H     0.88427   0.03727   0.85379   0.00000  Uiso   1.00
H1654  H     0.61685   0.36414   0.68295   0.00000  Uiso   1.00
N1655  N     0.75000   0.12935   0.83333   0.00000  Uiso   1.00
N1656  N     0.75000   0.37066   0.83333   0.00000  Uiso   1.00
O1657  O     0.68573   0.29072   0.83334   0.00000  Uiso   1.00
O1658  O     0.67597   0.37123   0.79356   0.00000  Uiso   1.00
O1659  O     0.71045   0.12896   0.75326   0.00000  Uiso   1.00
O1660  O     0.82292   0.36978   0.87620   0.00000  Uiso   1.00
O1661  O     0.52962   0.33746   0.81551   0.00000  Uiso   1.00
O1662  O     0.97423   0.17857   0.78546   0.00000  Uiso   1.00
O1663  O     0.97063   0.33071   0.87198   0.00000  Uiso   1.00
O1664  O     0.52543   0.17160   0.87038   0.00000  Uiso   1.00
O1665  O     0.61675   0.33643   0.85693   0.00000  Uiso   1.00
O1666  O     0.87693   0.17769   0.77888   0.00000  Uiso   1.00
O1667  O     0.88658   0.33719   0.81705   0.00000  Uiso   1.00
O1668  O     0.81427   0.20929   0.83333   0.00000  Uiso   1.00
O1669  O     0.61980   0.17468   0.88547   0.00000  Uiso   1.00
O1670  O     0.80380   0.03509   0.90933   0.00000  Uiso   1.00
O1671  O     0.67177   0.46940   0.80358   0.00000  Uiso   1.00
O1672  O     0.70241   0.03239   0.75582   0.00000  Uiso   1.00
O1673  O     0.82938   0.46711   0.86792   0.00000  Uiso   1.00
O1674  O     0.81427   0.29072   0.83333   0.00000  Uiso   1.00
O1675  O     0.68573   0.20929   0.83334   0.00000  Uiso   1.00
O1676  O     0.75000   0.29071   0.76280   0.00000  Uiso   1.00
O1677  O     0.75000   0.20929   0.90387   0.00000  Uiso   1.00
O1678  O     0.75000   0.29071   0.90387   0.00000  Uiso   1.00
O1679  O     0.75000   0.20929   0.76280   0.00000  Uiso   1.00
O1680  O     0.79549   0.13164   0.91002   0.00000  Uiso   1.00
C1681  C     0.16562   0.74992   0.83772   0.00000  Uiso   1.00
C1682  C     0.28955   0.94528   0.85060   0.00000  Uiso   1.00
C1683  C     0.24962   0.75003   0.74019   0.00000  Uiso   1.00
C1684  C     0.25034   0.74998   0.92647   0.00000  Uiso   1.00
C1685  C     0.25140   0.52767   0.83405   0.00000  Uiso   1.00
C1686  C     0.25082   0.97264   0.83479   0.00000  Uiso   1.00
C1687  C     0.24986   0.75005   0.68846   0.00000  Uiso   1.00
C1688  C     0.25010   0.74997   0.97820   0.00000  Uiso   1.00
C1689  C     0.04937   0.79426   0.82918   0.00000  Uiso   1.00
C1690  C     0.45123   0.71385   0.80689   0.00000  Uiso   1.00
C1691  C     0.45087   0.79142   0.84775   0.00000  Uiso   1.00
C1692  C     0.33440   0.75007   0.82942   0.00000  Uiso   1.00
C1693  C     0.04835   0.71129   0.85684   0.00000  Uiso   1.00
C1694  C     0.09523   0.79416   0.84209   0.00000  Uiso   1.00
C1695  C     0.40399   0.71110   0.80601   0.00000  Uiso   1.00
C1696  C     0.40574   0.79367   0.83152   0.00000  Uiso   1.00
C1697  C     0.09528   0.70950   0.85840   0.00000  Uiso   1.00
C1698  C     0.11797   0.75050   0.84499   0.00000  Uiso   1.00
C1699  C     0.38218   0.75075   0.82350   0.00000  Uiso   1.00
C1700  C     0.02480   0.75241   0.83804   0.00000  Uiso   1.00
C1701  C     0.47512   0.75211   0.83234   0.00000  Uiso   1.00
C1702  C     0.34231   0.63179   0.90971   0.00000  Uiso   1.00
C1703  C     0.27458   0.60576   0.87080   0.00000  Uiso   1.00
C1704  C     0.36251   0.67178   0.94277   0.00000  Uiso   1.00
C1705  C     0.17028   0.87606   0.74212   0.00000  Uiso   1.00
C1706  C     0.12343   0.85946   0.72321   0.00000  Uiso   1.00
C1707  C     0.16331   0.62846   0.74706   0.00000  Uiso   1.00
C1708  C     0.14687   0.63027   0.69254   0.00000  Uiso   1.00
C1709  C     0.32885   0.87629   0.92762   0.00000  Uiso   1.00
C1710  C     0.37855   0.88026   0.94447   0.00000  Uiso   1.00
C1711  C     0.01189   0.83631   0.76558   0.00000  Uiso   1.00
C1712  C     0.49439   0.88565   0.75061   0.00000  Uiso   1.00
C1713  C     0.48681   0.69482   0.74033   0.00000  Uiso   1.00
C1714  C     0.21343   0.89573   0.81344   0.00000  Uiso   1.00
C1715  C     0.02777   0.66736   0.72938   0.00000  Uiso   1.00
C1716  C     0.48746   0.81808   0.92052   0.00000  Uiso   1.00
C1717  C     0.00531   0.86266   0.94767   0.00000  Uiso   1.00
C1718  C     0.01646   0.67654   0.91927   0.00000  Uiso   1.00
C1719  C     0.49114   0.63250   0.93311   0.00000  Uiso   1.00
C1720  C     0.12902   0.83404   0.90858   0.00000  Uiso   1.00
C1721  C     0.15712   0.87706   0.92673   0.00000  Uiso   1.00
C1722  C     0.39358   0.63074   0.78142   0.00000  Uiso   1.00
C1723  C     0.35494   0.59649   0.76727   0.00000  Uiso   1.00
C1724  C     0.37607   0.83658   0.76498   0.00000  Uiso   1.00
C1725  C     0.22757   0.60459   0.79517   0.00000  Uiso   1.00
C1726  C     0.35005   0.88069   0.74665   0.00000  Uiso   1.00
C1727  C     0.11313   0.62920   0.86398   0.00000  Uiso   1.00
C1728  C     0.15227   0.59777   0.88366   0.00000  Uiso   1.00
C1729  C     0.28091   0.51882   0.94753   0.00000  Uiso   1.00
C1730  C     0.31550   0.50085   0.98847   0.00000  Uiso   1.00
C1731  C     0.14099   0.96340   0.83773   0.00000  Uiso   1.00
C1732  C     0.09733   0.98732   0.81801   0.00000  Uiso   1.00
C1733  C     0.22887   0.51386   0.72183   0.00000  Uiso   1.00
C1734  C     0.19790   0.99574   0.67756   0.00000  Uiso   1.00
C1735  C     0.35873   0.96712   0.83194   0.00000  Uiso   1.00
C1736  C     0.28655   0.89496   0.85478   0.00000  Uiso   1.00
C1737  C     0.39719   0.50101   0.84787   0.00000  Uiso   1.00
C1738  C     0.27495   0.55537   0.87259   0.00000  Uiso   1.00
C1739  C     0.21133   0.94613   0.81911   0.00000  Uiso   1.00
C1740  C     0.22842   0.55415   0.79428   0.00000  Uiso   1.00
Cu1741 Cu    0.25000   0.79822   0.83333   0.00000  Uiso   1.00
Cu1742 Cu    0.25000   0.70179   0.83333   0.00000  Uiso   1.00
H1743  H     0.35199   0.63748   0.87238   0.00000  Uiso   1.00
H1744  H     0.11927   0.82123   0.73235   0.00000  Uiso   1.00
H1745  H     0.15097   0.66082   0.76400   0.00000  Uiso   1.00
H1746  H     0.14831   0.59650   0.76289   0.00000  Uiso   1.00
H1747  H     0.15905   0.59864   0.67411   0.00000  Uiso   1.00
H1748  H     0.10985   0.63025   0.68690   0.00000  Uiso   1.00
H1749  H     0.15936   0.66306   0.67589   0.00000  Uiso   1.00
H1750  H     0.31559   0.84457   0.94540   0.00000  Uiso   1.00
H1751  H     0.31186   0.90821   0.94061   0.00000  Uiso   1.00
H1752  H     0.39305   0.91081   0.92601   0.00000  Uiso   1.00
H1753  H     0.38474   0.88573   0.98465   0.00000  Uiso   1.00
H1754  H     0.35719   0.59790   0.92454   0.00000  Uiso   1.00
H1755  H     0.39526   0.84701   0.93503   0.00000  Uiso   1.00
H1756  H     0.48345   0.81116   0.75928   0.00000  Uiso   1.00
H1757  H     0.03756   0.82587   0.74180   0.00000  Uiso   1.00
H1758  H     0.02239   0.91156   0.75226   0.00000  Uiso   1.00
H1759  H     0.47693   0.88471   0.71271   0.00000  Uiso   1.00
H1760  H     0.47038   0.89758   0.77571   0.00000  Uiso   1.00
H1761  H     0.49561   0.73333   0.74025   0.00000  Uiso   1.00
H1762  H     0.45910   0.68833   0.71057   0.00000  Uiso   1.00
H1763  H     0.01983   0.62877   0.72536   0.00000  Uiso   1.00
H1764  H     0.03915   0.68095   0.69506   0.00000  Uiso   1.00
H1765  H     0.35568   0.66540   0.98112   0.00000  Uiso   1.00
H1766  H     0.05530   0.67228   0.75955   0.00000  Uiso   1.00
H1767  H     0.01556   0.79265   0.92131   0.00000  Uiso   1.00
H1768  H     0.46104   0.80192   0.94041   0.00000  Uiso   1.00
H1769  H     0.47764   0.88770   0.95170   0.00000  Uiso   1.00
H1770  H     0.02191   0.85279   0.98454   0.00000  Uiso   1.00
H1771  H     0.03006   0.88074   0.92704   0.00000  Uiso   1.00
H1772  H     0.49526   0.70822   0.92364   0.00000  Uiso   1.00
H1773  H     0.04809   0.67951   0.94447   0.00000  Uiso   1.00
H1774  H     0.01270   0.60054   0.93288   0.00000  Uiso   1.00
H1775  H     0.48071   0.63680   0.97021   0.00000  Uiso   1.00
H1776  H     0.39913   0.67330   0.94190   0.00000  Uiso   1.00
H1777  H     0.46084   0.62718   0.90644   0.00000  Uiso   1.00
H1778  H     0.14950   0.80199   0.91951   0.00000  Uiso   1.00
H1779  H     0.09875   0.83291   0.92803   0.00000  Uiso   1.00
H1780  H     0.13586   0.90922   0.92678   0.00000  Uiso   1.00
H1781  H     0.17296   0.87068   0.96472   0.00000  Uiso   1.00
H1782  H     0.18426   0.88300   0.90358   0.00000  Uiso   1.00
H1783  H     0.40987   0.62148   0.81879   0.00000  Uiso   1.00
H1784  H     0.41705   0.62567   0.75374   0.00000  Uiso   1.00
H1785  H     0.33646   0.60723   0.73152   0.00000  Uiso   1.00
H1786  H     0.36778   0.55985   0.76360   0.00000  Uiso   1.00
H1787  H     0.34802   0.70661   0.93017   0.00000  Uiso   1.00
H1788  H     0.33165   0.59655   0.79550   0.00000  Uiso   1.00
H1789  H     0.35476   0.80554   0.75209   0.00000  Uiso   1.00
H1790  H     0.40703   0.83509   0.74686   0.00000  Uiso   1.00
H1791  H     0.33474   0.87505   0.70831   0.00000  Uiso   1.00
H1792  H     0.32254   0.88736   0.76898   0.00000  Uiso   1.00
H1793  H     0.37266   0.91202   0.74730   0.00000  Uiso   1.00
H1794  H     0.11079   0.63079   0.82342   0.00000  Uiso   1.00
H1795  H     0.08238   0.61221   0.87438   0.00000  Uiso   1.00
H1796  H     0.18366   0.61872   0.88755   0.00000  Uiso   1.00
H1797  H     0.14705   0.58339   0.92021   0.00000  Uiso   1.00
H1798  H     0.19482   0.85371   0.72559   0.00000  Uiso   1.00
H1799  H     0.15585   0.56765   0.85850   0.00000  Uiso   1.00
H1800  H     0.25830   0.98889   0.93471   0.00000  Uiso   1.00
H1801  H     0.26161   0.54835   0.96171   0.00000  Uiso   1.00
H1802  H     0.33077   0.53143   0.67667   0.00000  Uiso   1.00
H1803  H     0.30003   0.97615   0.67976   0.00000  Uiso   1.00
H1804  H     0.34244   0.98125   0.97297   0.00000  Uiso   1.00
H1805  H     0.15397   0.97965   0.87362   0.00000  Uiso   1.00
H1806  H     0.13317   0.92528   0.84250   0.00000  Uiso   1.00
H1807  H     0.08259   0.96903   0.78402   0.00000  Uiso   1.00
H1808  H     0.07346   0.98513   0.84573   0.00000  Uiso   1.00
H1809  H     0.17390   0.91348   0.73018   0.00000  Uiso   1.00
H1810  H     0.10293   0.52528   0.80914   0.00000  Uiso   1.00
H1811  H     0.24904   0.98346   0.73801   0.00000  Uiso   1.00
H1812  H     0.25146   0.54184   0.70989   0.00000  Uiso   1.00
H1813  H     0.19070   0.52462   0.98349   0.00000  Uiso   1.00
H1814  H     0.21333   0.96527   0.99361   0.00000  Uiso   1.00
H1815  H     0.16555   0.98352   0.68863   0.00000  Uiso   1.00
H1816  H     0.34197   0.97905   0.79557   0.00000  Uiso   1.00
H1817  H     0.37309   0.93106   0.82947   0.00000  Uiso   1.00
H1818  H     0.41601   0.98834   0.88269   0.00000  Uiso   1.00
H1819  H     0.42017   0.50266   0.81920   0.00000  Uiso   1.00
H1820  H     0.09889   0.88103   0.74056   0.00000  Uiso   1.00
H1821  H     0.38427   0.53727   0.85379   0.00000  Uiso   1.00
H1822  H     0.11685   0.86414   0.68295   0.00000  Uiso   1.00
N1823  N     0.25000   0.62935   0.83333   0.00000  Uiso   1.00
N1824  N     0.25000   0.87066   0.83333   0.00000  Uiso   1.00
O1825  O     0.18573   0.79072   0.83334   0.00000  Uiso   1.00
O1826  O     0.17597   0.87123   0.79356   0.00000  Uiso   1.00
O1827  O     0.21045   0.62896   0.75326   0.00000  Uiso   1.00
O1828  O     0.32292   0.86978   0.87620   0.00000  Uiso   1.00
O1829  O     0.02962   0.83746   0.81551   0.00000  Uiso   1.00
O1830  O     0.47423   0.67857   0.78546   0.00000  Uiso   1.00
O1831  O     0.47063   0.83071   0.87198   0.00000  Uiso   1.00
O1832  O     0.02543   0.67160   0.87038   0.00000  Uiso   1.00
O1833  O     0.11675   0.83643   0.85693   0.00000  Uiso   1.00
O1834  O     0.37693   0.67769   0.77888   0.00000  Uiso   1.00
O1835  O     0.38658   0.83719   0.81705   0.00000  Uiso   1.00
O1836  O     0.31427   0.70929   0.83333   0.00000  Uiso   1.00
O1837  O     0.11980   0.67468   0.88547   0.00000  Uiso   1.00
O1838  O     0.30380   0.53509   0.90933   0.00000  Uiso   1.00
O1839  O     0.17177   0.96940   0.80358   0.00000  Uiso   1.00
O1840  O     0.20241   0.53239   0.75582   0.00000  Uiso   1.00
O1841  O     0.32938   0.96711   0.86792   0.00000  Uiso   1.00
O1842  O     0.31427   0.79072   0.83333   0.00000  Uiso   1.00
O1843  O     0.18573   0.70929   0.83334   0.00000  Uiso   1.00
O1844  O     0.25000   0.79071   0.76280   0.00000  Uiso   1.00
O1845  O     0.25000   0.70929   0.90387   0.00000  Uiso   1.00
O1846  O     0.25000   0.79071   0.90387   0.00000  Uiso   1.00
O1847  O     0.25000   0.70929   0.76280   0.00000  Uiso   1.00
O1848  O     0.29549   0.63164   0.91002   0.00000  Uiso   1.00
C1849  C     0.66562   0.74992   0.83772   0.00000  Uiso   1.00
C1850  C     0.78955   0.94528   0.85060   0.00000  Uiso   1.00
C1851  C     0.74962   0.75003   0.74019   0.00000  Uiso   1.00
C1852  C     0.75034   0.74998   0.92647   0.00000  Uiso   1.00
C1853  C     0.75140   0.52767   0.83405   0.00000  Uiso   1.00
C1854  C     0.75082   0.97264   0.83479   0.00000  Uiso   1.00
C1855  C     0.74986   0.75005   0.68846   0.00000  Uiso   1.00
C1856  C     0.75010   0.74997   0.97820   0.00000  Uiso   1.00
C1857  C     0.54937   0.79426   0.82918   0.00000  Uiso   1.00
C1858  C     0.95123   0.71385   0.80689   0.00000  Uiso   1.00
C1859  C     0.95087   0.79142   0.84775   0.00000  Uiso   1.00
C1860  C     0.83440   0.75007   0.82942   0.00000  Uiso   1.00
C1861  C     0.54835   0.71129   0.85684   0.00000  Uiso   1.00
C1862  C     0.59523   0.79416   0.84209   0.00000  Uiso   1.00
C1863  C     0.90399   0.71110   0.80601   0.00000  Uiso   1.00
C1864  C     0.90574   0.79367   0.83152   0.00000  Uiso   1.00
C1865  C     0.59528   0.70950   0.85840   0.00000  Uiso   1.00
C1866  C     0.61797   0.75050   0.84499   0.00000  Uiso   1.00
C1867  C     0.88218   0.75075   0.82350   0.00000  Uiso   1.00
C1868  C     0.52480   0.75241   0.83804   0.00000  Uiso   1.00
C1869  C     0.97512   0.75211   0.83234   0.00000  Uiso   1.00
C1870  C     0.84231   0.63179   0.90971   0.00000  Uiso   1.00
C1871  C     0.77458   0.60576   0.87080   0.00000  Uiso   1.00
C1872  C     0.86251   0.67178   0.94277   0.00000  Uiso   1.00
C1873  C     0.67028   0.87606   0.74212   0.00000  Uiso   1.00
C1874  C     0.62343   0.85946   0.72321   0.00000  Uiso   1.00
C1875  C     0.66331   0.62846   0.74706   0.00000  Uiso   1.00
C1876  C     0.64687   0.63027   0.69254   0.00000  Uiso   1.00
C1877  C     0.82885   0.87629   0.92762   0.00000  Uiso   1.00
C1878  C     0.87855   0.88026   0.94447   0.00000  Uiso   1.00
C1879  C     0.51189   0.83631   0.76558   0.00000  Uiso   1.00
C1880  C     0.99439   0.88565   0.75061   0.00000  Uiso   1.00
C1881  C     0.98681   0.69482   0.74033   0.00000  Uiso   1.00
C1882  C     0.71343   0.89573   0.81344   0.00000  Uiso   1.00
C1883  C     0.52777   0.66736   0.72938   0.00000  Uiso   1.00
C1884  C     0.98746   0.81808   0.92052   0.00000  Uiso   1.00
C1885  C     0.50531   0.86266   0.94767   0.00000  Uiso   1.00
C1886  C     0.51646   0.67654   0.91927   0.00000  Uiso   1.00
C1887  C     0.99114   0.63250   0.93311   0.00000  Uiso   1.00
C1888  C     0.62902   0.83404   0.90858   0.00000  Uiso   1.00
C1889  C     0.65712   0.87706   0.92673   0.00000  Uiso   1.00
C1890  C     0.89358   0.63074   0.78142   0.00000  Uiso   1.00
C1891  C     0.85494   0.59649   0.76727   0.00000  Uiso   1.00
C1892  C     0.87607   0.83658   0.76498   0.00000  Uiso   1.00
C1893  C     0.72757   0.60459   0.79517   0.00000  Uiso   1.00
C1894  C     0.85005   0.88069   0.74665   0.00000  Uiso   1.00
C1895  C     0.61313   0.62920   0.86398   0.00000  Uiso   1.00
C1896  C     0.65227   0.59777   0.88366   0.00000  Uiso   1.00
C1897  C     0.78091   0.51882   0.94753   0.00000  Uiso   1.00
C1898  C     0.81550   0.50085   0.98847   0.00000  Uiso   1.00
C1899  C     0.64099   0.96340   0.83773   0.00000  Uiso   1.00
C1900  C     0.59733   0.98732   0.81801   0.00000  Uiso   1.00
C1901  C     0.72887   0.51386   0.72183   0.00000  Uiso   1.00
C1902  C     0.69790   0.99574   0.67756   0.00000  Uiso   1.00
C1903  C     0.85873   0.96712   0.83194   0.00000  Uiso   1.00
C1904  C     0.78655   0.89496   0.85478   0.00000  Uiso   1.00
C1905  C     0.89719   0.50101   0.84787   0.00000  Uiso   1.00
C1906  C     0.77495   0.55537   0.87259   0.00000  Uiso   1.00
C1907  C     0.71133   0.94613   0.81911   0.00000  Uiso   1.00
C1908  C     0.72842   0.55415   0.79428   0.00000  Uiso   1.00
Cu1909 Cu    0.75000   0.79822   0.83333   0.00000  Uiso   1.00
Cu1910 Cu    0.75000   0.70179   0.83333   0.00000  Uiso   1.00
H1911  H     0.85199   0.63748   0.87238   0.00000  Uiso   1.00
H1912  H     0.61927   0.82123   0.73235   0.00000  Uiso   1.00
H1913  H     0.65097   0.66082   0.76400   0.00000  Uiso   1.00
H1914  H     0.64831   0.59650   0.76289   0.00000  Uiso   1.00
H1915  H     0.65905   0.59864   0.67411   0.00000  Uiso   1.00
H1916  H     0.60985   0.63025   0.68690   0.00000  Uiso   1.00
H1917  H     0.65936   0.66306   0.67589   0.00000  Uiso   1.00
H1918  H     0.81559   0.84457   0.94540   0.00000  Uiso   1.00
H1919  H     0.81186   0.90821   0.94061   0.00000  Uiso   1.00
H1920  H     0.89305   0.91081   0.92601   0.00000  Uiso   1.00
H1921  H     0.88474   0.88573   0.98465   0.00000  Uiso   1.00
H1922  H     0.85719   0.59790   0.92454   0.00000  Uiso   1.00
H1923  H     0.89526   0.84701   0.93503   0.00000  Uiso   1.00
H1924  H     0.98345   0.81116   0.75928   0.00000  Uiso   1.00
H1925  H     0.53756   0.82587   0.74180   0.00000  Uiso   1.00
H1926  H     0.52239   0.91156   0.75226   0.00000  Uiso   1.00
H1927  H     0.97693   0.88471   0.71271   0.00000  Uiso   1.00
H1928  H     0.97038   0.89758   0.77571   0.00000  Uiso   1.00
H1929  H     0.99561   0.73333   0.74025   0.00000  Uiso   1.00
H1930  H     0.95910   0.68833   0.71057   0.00000  Uiso   1.00
H1931  H     0.51983   0.62877   0.72536   0.00000  Uiso   1.00
H1932  H     0.53915   0.68095   0.69506   0.00000  Uiso   1.00
H1933  H     0.85568   0.66540   0.98112   0.00000  Uiso   1.00
H1934  H     0.55530   0.67228   0.75955   0.00000  Uiso   1.00
H1935  H     0.51556   0.79265   0.92131   0.00000  Uiso   1.00
H1936  H     0.96104   0.80192   0.94041   0.00000  Uiso   1.00
H1937  H     0.97764   0.88770   0.95170   0.00000  Uiso   1.00
H1938  H     0.52191   0.85279   0.98454   0.00000  Uiso   1.00
H1939  H     0.53006   0.88074   0.92704   0.00000  Uiso   1.00
H1940  H     0.99526   0.70822   0.92364   0.00000  Uiso   1.00
H1941  H     0.54809   0.67951   0.94447   0.00000  Uiso   1.00
H1942  H     0.51270   0.60054   0.93288   0.00000  Uiso   1.00
H1943  H     0.98071   0.63680   0.97021   0.00000  Uiso   1.00
H1944  H     0.89913   0.67330   0.94190   0.00000  Uiso   1.00
H1945  H     0.96084   0.62718   0.90644   0.00000  Uiso   1.00
H1946  H     0.64950   0.80199   0.91951   0.00000  Uiso   1.00
H1947  H     0.59875   0.83291   0.92803   0.00000  Uiso   1.00
H1948  H     0.63586   0.90922   0.92678   0.00000  Uiso   1.00
H1949  H     0.67296   0.87068   0.96472   0.00000  Uiso   1.00
H1950  H     0.68426   0.88300   0.90358   0.00000  Uiso   1.00
H1951  H     0.90987   0.62148   0.81879   0.00000  Uiso   1.00
H1952  H     0.91705   0.62567   0.75374   0.00000  Uiso   1.00
H1953  H     0.83646   0.60723   0.73152   0.00000  Uiso   1.00
H1954  H     0.86778   0.55985   0.76360   0.00000  Uiso   1.00
H1955  H     0.84802   0.70661   0.93017   0.00000  Uiso   1.00
H1956  H     0.83165   0.59655   0.79550   0.00000  Uiso   1.00
H1957  H     0.85476   0.80554   0.75209   0.00000  Uiso   1.00
H1958  H     0.90703   0.83509   0.74686   0.00000  Uiso   1.00
H1959  H     0.83474   0.87505   0.70831   0.00000  Uiso   1.00
H1960  H     0.82254   0.88736   0.76898   0.00000  Uiso   1.00
H1961  H     0.87266   0.91202   0.74730   0.00000  Uiso   1.00
H1962  H     0.61079   0.63079   0.82342   0.00000  Uiso   1.00
H1963  H     0.58238   0.61221   0.87438   0.00000  Uiso   1.00
H1964  H     0.68366   0.61872   0.88755   0.00000  Uiso   1.00
H1965  H     0.64705   0.58339   0.92021   0.00000  Uiso   1.00
H1966  H     0.69482   0.85371   0.72559   0.00000  Uiso   1.00
H1967  H     0.65585   0.56765   0.85850   0.00000  Uiso   1.00
H1968  H     0.75830   0.98889   0.93471   0.00000  Uiso   1.00
H1969  H     0.76161   0.54835   0.96171   0.00000  Uiso   1.00
H1970  H     0.83077   0.53143   0.67667   0.00000  Uiso   1.00
H1971  H     0.80003   0.97615   0.67976   0.00000  Uiso   1.00
H1972  H     0.84244   0.98125   0.97297   0.00000  Uiso   1.00
H1973  H     0.65397   0.97965   0.87362   0.00000  Uiso   1.00
H1974  H     0.63317   0.92528   0.84250   0.00000  Uiso   1.00
H1975  H     0.58259   0.96903   0.78402   0.00000  Uiso   1.00
H1976  H     0.57346   0.98513   0.84573   0.00000  Uiso   1.00
H1977  H     0.67390   0.91348   0.73018   0.00000  Uiso   1.00
H1978  H     0.60293   0.52528   0.80914   0.00000  Uiso   1.00
H1979  H     0.74904   0.98346   0.73801   0.00000  Uiso   1.00
H1980  H     0.75146   0.54184   0.70989   0.00000  Uiso   1.00
H1981  H     0.69070   0.52462   0.98349   0.00000  Uiso   1.00
H1982  H     0.71333   0.96527   0.99361   0.00000  Uiso   1.00
H1983  H     0.66555   0.98352   0.68863   0.00000  Uiso   1.00
H1984  H     0.84197   0.97905   0.79557   0.00000  Uiso   1.00
H1985  H     0.87309   0.93106   0.82947   0.00000  Uiso   1.00
H1986  H     0.91601   0.98834   0.88269   0.00000  Uiso   1.00
H1987  H     0.92017   0.50266   0.81920   0.00000  Uiso   1.00
H1988  H     0.59889   0.88103   0.74056   0.00000  Uiso   1.00
H1989  H     0.88427   0.53727   0.85379   0.00000  Uiso   1.00
H1990  H     0.61685   0.86414   0.68295   0.00000  Uiso   1.00
N1991  N     0.75000   0.62935   0.83333   0.00000  Uiso   1.00
N1992  N     0.75000   0.87066   0.83333   0.00000  Uiso   1.00
O1993  O     0.68573   0.79072   0.83334   0.00000  Uiso   1.00
O1994  O     0.67597   0.87123   0.79356   0.00000  Uiso   1.00
O1995  O     0.71045   0.62896   0.75326   0.00000  Uiso   1.00
O1996  O     0.82292   0.86978   0.87620   0.00000  Uiso   1.00
O1997  O     0.52962   0.83746   0.81551   0.00000  Uiso   1.00
O1998  O     0.97423   0.67857   0.78546   0.00000  Uiso   1.00
O1999  O     0.97063   0.83071   0.87198   0.00000  Uiso   1.00
O2000  O     0.52543   0.67160   0.87038   0.00000  Uiso   1.00
O2001  O     0.61675   0.83643   0.85693   0.00000  Uiso   1.00
O2002  O     0.87693   0.67769   0.77888   0.00000  Uiso   1.00
O2003  O     0.88658   0.83719   0.81705   0.00000  Uiso   1.00
O2004  O     0.81427   0.70929   0.83333   0.00000  Uiso   1.00
O2005  O     0.61980   0.67468   0.88547   0.00000  Uiso   1.00
O2006  O     0.80380   0.53509   0.90933   0.00000  Uiso   1.00
O2007  O     0.67177   0.96940   0.80358   0.00000  Uiso   1.00
O2008  O     0.70241   0.53239   0.75582   0.00000  Uiso   1.00
O2009  O     0.82938   0.96711   0.86792   0.00000  Uiso   1.00
O2010  O     0.81427   0.79072   0.83333   0.00000  Uiso   1.00
O2011  O     0.68573   0.70929   0.83334   0.00000  Uiso   1.00
O2012  O     0.75000   0.79071   0.76280   0.00000  Uiso   1.00
O2013  O     0.75000   0.70929   0.90387   0.00000  Uiso   1.00
O2014  O     0.75000   0.79071   0.90387   0.00000  Uiso   1.00
O2015  O     0.75000   0.70929   0.76280   0.00000  Uiso   1.00
O2016  O     0.79549   0.63164   0.91002   0.00000  Uiso   1.00
loop_
_geom_bond_atom_site_label_1
_geom_bond_atom_site_label_2
_geom_bond_distance
_geom_bond_site_symmetry_2
_ccdc_geom_bond_type
C1     O145    1.305   .     A
C1     C18     1.476   .     S
C1     O163    1.306   .     A
C2     C6      1.425   .     A
C2     O161    1.381   .     S
C2     C56     1.419   .     A
C3     O167    1.299   .     A
C3     C7      1.421   .     S
C3     O164    1.299   .     A
C4     C8      1.421   .     S
C4     O166    1.299   .     A
C4     O165    1.300   .     A
C5     C58     1.431   .     A
C5     C60     1.430   .     A
C5     C342    1.544   1_545 S
C6     C59     1.425   .     A
C6     C341    1.544   .     S
C7     C1352   1.198   1_554 S
C8     C679    1.198   .     S
C9     O149    1.384   .     S
C9     C14     1.388   .     A
C9     C20     1.422   .     A
C10    C15     1.425   .     A
C10    C21     1.427   .     A
C10    O150    1.383   .     S
C11    C21     1.419   .     A
C11    C16     1.384   .     A
C11    O151    1.384   .     S
C12    O156    1.304   .     A
C12    C19     1.471   .     S
C12    O162    1.305   .     A
C13    C20     1.421   .     A
C13    O152    1.382   .     S
C13    C17     1.414   .     A
C14    C18     1.404   .     A
C14    O153    1.388   .     S
C15    C19     1.409   .     A
C15    O154    1.397   .     S
C16    O155    1.390   .     S
C16    C19     1.400   .     A
C17    O157    1.388   .     S
C17    C18     1.407   .     A
C20    C189    1.489   1_455 S
C21    C188    1.489   .     S
C22    H63     1.110   .     S
C22    O168    1.415   .     S
C22    C24     1.523   .     S
C22    H74     1.109   .     S
C23    C58     1.414   .     A
C23    N143    1.366   .     A
C23    O168    1.386   .     S
C24    H96     1.110   .     S
C24    H85     1.111   .     S
C24    H107    1.110   .     S
C25    H129    1.108   .     S
C25    H118    1.111   .     S
C25    O146    1.408   .     S
C25    C26     1.519   .     S
C26    H64     1.111   .     S
C26    H140    1.110   .     S
C26    H142    1.107   .     S
C27    H65     1.107   .     S
C27    H66     1.114   .     S
C27    O147    1.413   .     S
C27    C28     1.520   .     S
C28    H69     1.111   .     S
C28    H67     1.108   .     S
C28    H68     1.110   .     S
C29    O148    1.414   .     S
C29    C30     1.520   .     S
C29    H70     1.110   .     S
C29    H71     1.114   .     S
C30    H73     1.107   .     S
C30    H72     1.110   .     S
C30    H75     1.108   .     S
C31    O149    1.411   .     S
C31    H77     1.112   .     S
C31    C200    1.522   1_455 S
C31    H244    1.107   1_455 S
C32    H80     1.111   .     S
C32    H79     1.109   .     S
C32    C199    1.522   .     S
C32    H246    1.109   .     S
C33    O150    1.413   .     S
C33    H82     1.112   .     S
C33    H81     1.111   .     S
C33    C203    1.520   .     S
C34    C59     1.425   .     A
C34    N144    1.369   .     A
C34    O146    1.377   .     S
C35    H86     1.109   .     S
C35    H83     1.110   .     S
C35    H84     1.107   .     S
C35    C201    1.520   1_455 S
C36    H88     1.114   .     S
C36    O151    1.413   .     S
C36    C205    1.520   .     S
C36    H255    1.109   .     S
C37    H90     1.110   .     S
C37    H91     1.111   .     S
C37    C204    1.520   1_455 S
C37    H257    1.110   1_455 S
C38    O152    1.408   .     S
C38    H93     1.113   .     S
C38    C207    1.521   1_455 S
C38    H260    1.112   1_455 S
C39    H97     1.111   .     S
C39    H95     1.109   .     S
C39    C206    1.521   .     S
C39    H262    1.111   .     S
C40    H98     1.114   .     S
C40    H99     1.113   .     S
C40    C41     1.522   .     S
C40    O153    1.424   .     S
C41    H102    1.107   .     S
C41    H100    1.109   .     S
C41    H101    1.109   .     S
C42    O154    1.410   .     S
C42    H103    1.114   .     S
C42    C43     1.523   .     S
C42    H104    1.109   .     S
C43    H105    1.111   .     S
C43    H106    1.109   .     S
C43    H108    1.107   .     S
C44    H109    1.113   .     S
C44    O155    1.427   .     S
C44    C46     1.521   .     S
C44    H110    1.111   .     S
C45    C60     1.416   .     A
C45    O147    1.384   .     S
C45    N143    1.367   .     A
C46    H112    1.107   .     S
C46    H113    1.109   .     S
C46    H111    1.109   .     S
C47    H114    1.108   .     S
C47    C48     1.523   .     S
C47    H115    1.109   .     S
C47    O157    1.410   .     S
C48    H116    1.108   .     S
C48    H119    1.106   .     S
C48    H117    1.109   .     S
C49    H121    1.112   .     S
C49    O158    1.398   .     S
C49    C50     1.526   .     S
C49    H456    1.111   1_545 S
C50    H794    1.110   .     S
C50    H1131   1.107   1_545 S
C50    H460    1.110   1_545 S
C51    C52     1.522   .     S
C51    H125    1.114   .     S
C51    H126    1.105   .     S
C51    O159    1.406   .     S
C52    H128    1.110   .     S
C52    H127    1.110   .     S
C52    H466    1.109   .     S
C53    H132    1.112   .     S
C53    O160    1.401   .     S
C53    C390    1.529   1_545 S
C53    H467    1.111   1_545 S
C54    H135    1.110   .     S
C54    C389    1.529   .     S
C54    H1813   1.109   1_554 S
C54    H1478   1.109   1_554 S
C55    H136    1.116   .     S
C55    O161    1.404   .     S
C55    H137    1.108   .     S
C55    C393    1.521   .     S
C56    O148    1.379   .     S
C56    N144    1.367   .     A
C57    H139    1.110   .     S
C57    H141    1.110   .     S
C57    C391    1.521   1_545 S
C57    H474    1.111   1_545 S
C58    O158    1.375   .     S
C59    O159    1.385   .     S
C60    O160    1.380   .     S
Cu61   O164    1.948   .     S
Cu61   O166    1.948   .     S
Cu61   O145    1.951   .     S
Cu61   N144    2.032   .     S
Cu61   O162    1.953   .     S
Cu61   Cu62    2.705   .     S
Cu62   N143    2.032   .     S
Cu62   O167    1.948   .     S
Cu62   O163    1.953   .     S
Cu62   O156    1.951   .     S
Cu62   O165    1.948   .     S
H76    C199    1.107   .     S
H78    C200    1.109   1_455 S
H87    C204    1.109   1_455 S
H89    C205    1.110   .     S
H92    C206    1.112   .     S
H94    C207    1.111   1_455 S
H120   C385    1.111   .     S
H122   C1394   1.110   1_554 S
H123   C1730   1.107   1_554 S
H124   C386    1.110   .     S
H130   C388    1.109   1_545 S
H131   C389    1.111   .     S
H133   C1062   1.109   1_545 S
H134   C726    1.109   .     S
H138   C393    1.111   .     S
C169   O313    1.305   .     A
C169   C186    1.476   .     S
C169   O331    1.306   .     A
C170   C174    1.425   .     A
C170   O329    1.381   .     S
C170   C224    1.419   .     A
C171   O335    1.299   .     A
C171   C175    1.421   .     S
C171   O332    1.299   .     A
C172   C176    1.421   .     S
C172   O334    1.299   .     A
C172   O333    1.300   .     A
C173   C226    1.431   .     A
C173   C228    1.430   .     A
C173   C510    1.544   1_545 S
C174   C227    1.425   .     A
C174   C509    1.544   .     S
C175   C1520   1.198   1_554 S
C176   C847    1.198   .     S
C177   O317    1.384   .     S
C177   C182    1.388   .     A
C177   C188    1.422   .     A
C178   C183    1.425   .     A
C178   C189    1.427   .     A
C178   O318    1.383   .     S
C179   C189    1.419   .     A
C179   C184    1.384   .     A
C179   O319    1.384   .     S
C180   O324    1.304   .     A
C180   C187    1.471   .     S
C180   O330    1.305   .     A
C181   C188    1.421   .     A
C181   O320    1.382   .     S
C181   C185    1.414   .     A
C182   C186    1.404   .     A
C182   O321    1.388   .     S
C183   C187    1.409   .     A
C183   O322    1.397   .     S
C184   O323    1.390   .     S
C184   C187    1.400   .     A
C185   O325    1.388   .     S
C185   C186    1.407   .     A
C189   C20     1.489   1_655 S
C190   H231    1.110   .     S
C190   O336    1.415   .     S
C190   C192    1.523   .     S
C190   H242    1.109   .     S
C191   C226    1.414   .     A
C191   N311    1.366   .     A
C191   O336    1.386   .     S
C192   H264    1.110   .     S
C192   H253    1.111   .     S
C192   H275    1.110   .     S
C193   H297    1.108   .     S
C193   H286    1.111   .     S
C193   O314    1.408   .     S
C193   C194    1.519   .     S
C194   H232    1.111   .     S
C194   H308    1.110   .     S
C194   H310    1.107   .     S
C195   H233    1.107   .     S
C195   H234    1.114   .     S
C195   O315    1.413   .     S
C195   C196    1.520   .     S
C196   H237    1.111   .     S
C196   H235    1.108   .     S
C196   H236    1.110   .     S
C197   O316    1.414   .     S
C197   C198    1.520   .     S
C197   H238    1.110   .     S
C197   H239    1.114   .     S
C198   H241    1.107   .     S
C198   H240    1.110   .     S
C198   H243    1.108   .     S
C199   O317    1.411   .     S
C199   H245    1.112   .     S
C200   H248    1.111   .     S
C200   H247    1.109   .     S
C200   C31     1.522   1_655 S
C200   H78     1.109   1_655 S
C201   O318    1.413   .     S
C201   H250    1.112   .     S
C201   H249    1.111   .     S
C201   C35     1.520   1_655 S
C202   C227    1.425   .     A
C202   N312    1.369   .     A
C202   O314    1.377   .     S
C203   H254    1.109   .     S
C203   H251    1.110   .     S
C203   H252    1.107   .     S
C204   H256    1.114   .     S
C204   O319    1.413   .     S
C204   C37     1.520   1_655 S
C204   H87     1.109   1_655 S
C205   H258    1.110   .     S
C205   H259    1.111   .     S
C206   O320    1.408   .     S
C206   H261    1.113   .     S
C207   H265    1.111   .     S
C207   H263    1.109   .     S
C207   C38     1.521   1_655 S
C207   H94     1.111   1_655 S
C208   H266    1.114   .     S
C208   H267    1.113   .     S
C208   C209    1.522   .     S
C208   O321    1.424   .     S
C209   H270    1.107   .     S
C209   H268    1.109   .     S
C209   H269    1.109   .     S
C210   O322    1.410   .     S
C210   H271    1.114   .     S
C210   C211    1.523   .     S
C210   H272    1.109   .     S
C211   H273    1.111   .     S
C211   H274    1.109   .     S
C211   H276    1.107   .     S
C212   H277    1.113   .     S
C212   O323    1.427   .     S
C212   C214    1.521   .     S
C212   H278    1.111   .     S
C213   C228    1.416   .     A
C213   O315    1.384   .     S
C213   N311    1.367   .     A
C214   H280    1.107   .     S
C214   H281    1.109   .     S
C214   H279    1.109   .     S
C215   H282    1.108   .     S
C215   C216    1.523   .     S
C215   H283    1.109   .     S
C215   O325    1.410   .     S
C216   H284    1.108   .     S
C216   H287    1.106   .     S
C216   H285    1.109   .     S
C217   H289    1.112   .     S
C217   O326    1.398   .     S
C217   C218    1.526   .     S
C217   H624    1.111   1_545 S
C218   H962    1.110   .     S
C218   H1299   1.107   1_545 S
C218   H628    1.110   1_545 S
C219   C220    1.522   .     S
C219   H293    1.114   .     S
C219   H294    1.105   .     S
C219   O327    1.406   .     S
C220   H296    1.110   .     S
C220   H295    1.110   .     S
C220   H634    1.109   .     S
C221   H300    1.112   .     S
C221   O328    1.401   .     S
C221   C558    1.529   1_545 S
C221   H635    1.111   1_545 S
C222   H303    1.110   .     S
C222   C557    1.529   .     S
C222   H1981   1.109   1_554 S
C222   H1646   1.109   1_554 S
C223   H304    1.116   .     S
C223   O329    1.404   .     S
C223   H305    1.108   .     S
C223   C561    1.521   .     S
C224   O316    1.379   .     S
C224   N312    1.367   .     A
C225   H307    1.110   .     S
C225   H309    1.110   .     S
C225   C559    1.521   1_545 S
C225   H642    1.111   1_545 S
C226   O326    1.375   .     S
C227   O327    1.385   .     S
C228   O328    1.380   .     S
Cu229  O332    1.948   .     S
Cu229  O334    1.948   .     S
Cu229  O313    1.951   .     S
Cu229  N312    2.032   .     S
Cu229  O330    1.953   .     S
Cu229  Cu230   2.705   .     S
Cu230  N311    2.032   .     S
Cu230  O335    1.948   .     S
Cu230  O331    1.953   .     S
Cu230  O324    1.951   .     S
Cu230  O333    1.948   .     S
H244   C31     1.107   1_655 S
H257   C37     1.110   1_655 S
H260   C38     1.112   1_655 S
H288   C553    1.111   .     S
H290   C1562   1.110   1_554 S
H291   C1898   1.107   1_554 S
H292   C554    1.110   .     S
H298   C556    1.109   1_545 S
H299   C557    1.111   .     S
H301   C1230   1.109   1_545 S
H302   C894    1.109   .     S
H306   C561    1.111   .     S
C337   O481    1.305   .     A
C337   C354    1.476   .     S
C337   O499    1.306   .     A
C338   C342    1.425   .     A
C338   O497    1.381   .     S
C338   C392    1.419   .     A
C339   O503    1.299   .     A
C339   C343    1.421   .     S
C339   O500    1.299   .     A
C340   C344    1.421   .     S
C340   O502    1.299   .     A
C340   O501    1.300   .     A
C341   C394    1.431   .     A
C341   C396    1.430   .     A
C342   C395    1.425   .     A
C342   C5      1.544   1_565 S
C343   C1688   1.198   1_554 S
C344   C1015   1.198   .     S
C345   O485    1.384   .     S
C345   C350    1.388   .     A
C345   C356    1.422   .     A
C346   C351    1.425   .     A
C346   C357    1.427   .     A
C346   O486    1.383   .     S
C347   C357    1.419   .     A
C347   C352    1.384   .     A
C347   O487    1.384   .     S
C348   O492    1.304   .     A
C348   C355    1.471   .     S
C348   O498    1.305   .     A
C349   C356    1.421   .     A
C349   O488    1.382   .     S
C349   C353    1.414   .     A
C350   C354    1.404   .     A
C350   O489    1.388   .     S
C351   C355    1.409   .     A
C351   O490    1.397   .     S
C352   O491    1.390   .     S
C352   C355    1.400   .     A
C353   O493    1.388   .     S
C353   C354    1.407   .     A
C356   C525    1.489   1_455 S
C357   C524    1.489   .     S
C358   H399    1.110   .     S
C358   O504    1.415   .     S
C358   C360    1.523   .     S
C358   H410    1.109   .     S
C359   C394    1.414   .     A
C359   N479    1.366   .     A
C359   O504    1.386   .     S
C360   H432    1.110   .     S
C360   H421    1.111   .     S
C360   H443    1.110   .     S
C361   H465    1.108   .     S
C361   H454    1.111   .     S
C361   O482    1.408   .     S
C361   C362    1.519   .     S
C362   H400    1.111   .     S
C362   H476    1.110   .     S
C362   H478    1.107   .     S
C363   H401    1.107   .     S
C363   H402    1.114   .     S
C363   O483    1.413   .     S
C363   C364    1.520   .     S
C364   H405    1.111   .     S
C364   H403    1.108   .     S
C364   H404    1.110   .     S
C365   O484    1.414   .     S
C365   C366    1.520   .     S
C365   H406    1.110   .     S
C365   H407    1.114   .     S
C366   H409    1.107   .     S
C366   H408    1.110   .     S
C366   H411    1.108   .     S
C367   O485    1.411   .     S
C367   H413    1.112   .     S
C367   C536    1.522   1_455 S
C367   H580    1.107   1_455 S
C368   H416    1.111   .     S
C368   H415    1.109   .     S
C368   C535    1.522   .     S
C368   H582    1.109   .     S
C369   O486    1.413   .     S
C369   H418    1.112   .     S
C369   H417    1.111   .     S
C369   C539    1.520   .     S
C370   C395    1.425   .     A
C370   N480    1.369   .     A
C370   O482    1.377   .     S
C371   H422    1.109   .     S
C371   H419    1.110   .     S
C371   H420    1.107   .     S
C371   C537    1.520   1_455 S
C372   H424    1.114   .     S
C372   O487    1.413   .     S
C372   C541    1.520   .     S
C372   H591    1.109   .     S
C373   H426    1.110   .     S
C373   H427    1.111   .     S
C373   C540    1.520   1_455 S
C373   H593    1.110   1_455 S
C374   O488    1.408   .     S
C374   H429    1.113   .     S
C374   C543    1.521   1_455 S
C374   H596    1.112   1_455 S
C375   H433    1.111   .     S
C375   H431    1.109   .     S
C375   C542    1.521   .     S
C375   H598    1.111   .     S
C376   H434    1.114   .     S
C376   H435    1.113   .     S
C376   C377    1.522   .     S
C376   O489    1.424   .     S
C377   H438    1.107   .     S
C377   H436    1.109   .     S
C377   H437    1.109   .     S
C378   O490    1.410   .     S
C378   H439    1.114   .     S
C378   C379    1.523   .     S
C378   H440    1.109   .     S
C379   H441    1.111   .     S
C379   H442    1.109   .     S
C379   H444    1.107   .     S
C380   H445    1.113   .     S
C380   O491    1.427   .     S
C380   C382    1.521   .     S
C380   H446    1.111   .     S
C381   C396    1.416   .     A
C381   O483    1.384   .     S
C381   N479    1.367   .     A
C382   H448    1.107   .     S
C382   H449    1.109   .     S
C382   H447    1.109   .     S
C383   H450    1.108   .     S
C383   C384    1.523   .     S
C383   H451    1.109   .     S
C383   O493    1.410   .     S
C384   H452    1.108   .     S
C384   H455    1.106   .     S
C384   H453    1.109   .     S
C385   H457    1.112   .     S
C385   O494    1.398   .     S
C385   C386    1.526   .     S
C386   H1130   1.110   .     S
C386   H795    1.107   .     S
C387   C388    1.522   .     S
C387   H461    1.114   .     S
C387   H462    1.105   .     S
C387   O495    1.406   .     S
C388   H464    1.110   .     S
C388   H463    1.110   .     S
C388   H130    1.109   1_565 S
C389   H468    1.112   .     S
C389   O496    1.401   .     S
C390   H471    1.110   .     S
C390   C53     1.529   1_565 S
C390   H1477   1.109   1_564 S
C390   H1814   1.109   1_554 S
C391   H472    1.116   .     S
C391   O497    1.404   .     S
C391   H473    1.108   .     S
C391   C57     1.521   1_565 S
C392   O484    1.379   .     S
C392   N480    1.367   .     A
C393   H475    1.110   .     S
C393   H477    1.110   .     S
C394   O494    1.375   .     S
C395   O495    1.385   .     S
C396   O496    1.380   .     S
Cu397  O500    1.948   .     S
Cu397  O502    1.948   .     S
Cu397  O481    1.951   .     S
Cu397  N480    2.032   .     S
Cu397  O498    1.953   .     S
Cu397  Cu398   2.705   .     S
Cu398  N479    2.032   .     S
Cu398  O503    1.948   .     S
Cu398  O499    1.953   .     S
Cu398  O492    1.951   .     S
Cu398  O501    1.948   .     S
H412   C535    1.107   .     S
H414   C536    1.109   1_455 S
H423   C540    1.109   1_455 S
H425   C541    1.110   .     S
H428   C542    1.112   .     S
H430   C543    1.111   1_455 S
H456   C49     1.111   1_565 S
H458   C1730   1.110   1_554 S
H459   C1394   1.107   1_564 S
H460   C50     1.110   1_565 S
H467   C53     1.111   1_565 S
H469   C726    1.109   .     S
H470   C1062   1.109   .     S
H474   C57     1.111   1_565 S
C505   O649    1.305   .     A
C505   C522    1.476   .     S
C505   O667    1.306   .     A
C506   C510    1.425   .     A
C506   O665    1.381   .     S
C506   C560    1.419   .     A
C507   O671    1.299   .     A
C507   C511    1.421   .     S
C507   O668    1.299   .     A
C508   C512    1.421   .     S
C508   O670    1.299   .     A
C508   O669    1.300   .     A
C509   C562    1.431   .     A
C509   C564    1.430   .     A
C510   C563    1.425   .     A
C510   C173    1.544   1_565 S
C511   C1856   1.198   1_554 S
C512   C1183   1.198   .     S
C513   O653    1.384   .     S
C513   C518    1.388   .     A
C513   C524    1.422   .     A
C514   C519    1.425   .     A
C514   C525    1.427   .     A
C514   O654    1.383   .     S
C515   C525    1.419   .     A
C515   C520    1.384   .     A
C515   O655    1.384   .     S
C516   O660    1.304   .     A
C516   C523    1.471   .     S
C516   O666    1.305   .     A
C517   C524    1.421   .     A
C517   O656    1.382   .     S
C517   C521    1.414   .     A
C518   C522    1.404   .     A
C518   O657    1.388   .     S
C519   C523    1.409   .     A
C519   O658    1.397   .     S
C520   O659    1.390   .     S
C520   C523    1.400   .     A
C521   O661    1.388   .     S
C521   C522    1.407   .     A
C525   C356    1.489   1_655 S
C526   H567    1.110   .     S
C526   O672    1.415   .     S
C526   C528    1.523   .     S
C526   H578    1.109   .     S
C527   C562    1.414   .     A
C527   N647    1.366   .     A
C527   O672    1.386   .     S
C528   H600    1.110   .     S
C528   H589    1.111   .     S
C528   H611    1.110   .     S
C529   H633    1.108   .     S
C529   H622    1.111   .     S
C529   O650    1.408   .     S
C529   C530    1.519   .     S
C530   H568    1.111   .     S
C530   H644    1.110   .     S
C530   H646    1.107   .     S
C531   H569    1.107   .     S
C531   H570    1.114   .     S
C531   O651    1.413   .     S
C531   C532    1.520   .     S
C532   H573    1.111   .     S
C532   H571    1.108   .     S
C532   H572    1.110   .     S
C533   O652    1.414   .     S
C533   C534    1.520   .     S
C533   H574    1.110   .     S
C533   H575    1.114   .     S
C534   H577    1.107   .     S
C534   H576    1.110   .     S
C534   H579    1.108   .     S
C535   O653    1.411   .     S
C535   H581    1.112   .     S
C536   H584    1.111   .     S
C536   H583    1.109   .     S
C536   C367    1.522   1_655 S
C536   H414    1.109   1_655 S
C537   O654    1.413   .     S
C537   H586    1.112   .     S
C537   H585    1.111   .     S
C537   C371    1.520   1_655 S
C538   C563    1.425   .     A
C538   N648    1.369   .     A
C538   O650    1.377   .     S
C539   H590    1.109   .     S
C539   H587    1.110   .     S
C539   H588    1.107   .     S
C540   H592    1.114   .     S
C540   O655    1.413   .     S
C540   C373    1.520   1_655 S
C540   H423    1.109   1_655 S
C541   H594    1.110   .     S
C541   H595    1.111   .     S
C542   O656    1.408   .     S
C542   H597    1.113   .     S
C543   H601    1.111   .     S
C543   H599    1.109   .     S
C543   C374    1.521   1_655 S
C543   H430    1.111   1_655 S
C544   H602    1.114   .     S
C544   H603    1.113   .     S
C544   C545    1.522   .     S
C544   O657    1.424   .     S
C545   H606    1.107   .     S
C545   H604    1.109   .     S
C545   H605    1.109   .     S
C546   O658    1.410   .     S
C546   H607    1.114   .     S
C546   C547    1.523   .     S
C546   H608    1.109   .     S
C547   H609    1.111   .     S
C547   H610    1.109   .     S
C547   H612    1.107   .     S
C548   H613    1.113   .     S
C548   O659    1.427   .     S
C548   C550    1.521   .     S
C548   H614    1.111   .     S
C549   C564    1.416   .     A
C549   O651    1.384   .     S
C549   N647    1.367   .     A
C550   H616    1.107   .     S
C550   H617    1.109   .     S
C550   H615    1.109   .     S
C551   H618    1.108   .     S
C551   C552    1.523   .     S
C551   H619    1.109   .     S
C551   O661    1.410   .     S
C552   H620    1.108   .     S
C552   H623    1.106   .     S
C552   H621    1.109   .     S
C553   H625    1.112   .     S
C553   O662    1.398   .     S
C553   C554    1.526   .     S
C554   H1298   1.110   .     S
C554   H963    1.107   .     S
C555   C556    1.522   .     S
C555   H629    1.114   .     S
C555   H630    1.105   .     S
C555   O663    1.406   .     S
C556   H632    1.110   .     S
C556   H631    1.110   .     S
C556   H298    1.109   1_565 S
C557   H636    1.112   .     S
C557   O664    1.401   .     S
C558   H639    1.110   .     S
C558   C221    1.529   1_565 S
C558   H1645   1.109   1_564 S
C558   H1982   1.109   1_554 S
C559   H640    1.116   .     S
C559   O665    1.404   .     S
C559   H641    1.108   .     S
C559   C225    1.521   1_565 S
C560   O652    1.379   .     S
C560   N648    1.367   .     A
C561   H643    1.110   .     S
C561   H645    1.110   .     S
C562   O662    1.375   .     S
C563   O663    1.385   .     S
C564   O664    1.380   .     S
Cu565  O668    1.948   .     S
Cu565  O670    1.948   .     S
Cu565  O649    1.951   .     S
Cu565  N648    2.032   .     S
Cu565  O666    1.953   .     S
Cu565  Cu566   2.705   .     S
Cu566  N647    2.032   .     S
Cu566  O671    1.948   .     S
Cu566  O667    1.953   .     S
Cu566  O660    1.951   .     S
Cu566  O669    1.948   .     S
H580   C367    1.107   1_655 S
H593   C373    1.110   1_655 S
H596   C374    1.112   1_655 S
H624   C217    1.111   1_565 S
H626   C1898   1.110   1_554 S
H627   C1562   1.107   1_564 S
H628   C218    1.110   1_565 S
H635   C221    1.111   1_565 S
H637   C894    1.109   .     S
H638   C1230   1.109   .     S
H642   C225    1.111   1_565 S
C673   O817    1.305   .     A
C673   C690    1.476   .     S
C673   O835    1.306   .     A
C674   C678    1.425   .     A
C674   O833    1.381   .     S
C674   C728    1.419   .     A
C675   O839    1.299   .     A
C675   C679    1.421   .     S
C675   O836    1.299   .     A
C676   C680    1.421   .     S
C676   O838    1.299   .     A
C676   O837    1.300   .     A
C677   C730    1.431   .     A
C677   C732    1.430   .     A
C677   C1014   1.544   1_545 S
C678   C731    1.425   .     A
C678   C1013   1.544   .     S
C680   C1351   1.198   .     S
C681   O821    1.384   .     S
C681   C686    1.388   .     A
C681   C692    1.422   .     A
C682   C687    1.425   .     A
C682   C693    1.427   .     A
C682   O822    1.383   .     S
C683   C693    1.419   .     A
C683   C688    1.384   .     A
C683   O823    1.384   .     S
C684   O828    1.304   .     A
C684   C691    1.471   .     S
C684   O834    1.305   .     A
C685   C692    1.421   .     A
C685   O824    1.382   .     S
C685   C689    1.414   .     A
C686   C690    1.404   .     A
C686   O825    1.388   .     S
C687   C691    1.409   .     A
C687   O826    1.397   .     S
C688   O827    1.390   .     S
C688   C691    1.400   .     A
C689   O829    1.388   .     S
C689   C690    1.407   .     A
C692   C861    1.489   1_455 S
C693   C860    1.489   .     S
C694   H735    1.110   .     S
C694   O840    1.415   .     S
C694   C696    1.523   .     S
C694   H746    1.109   .     S
C695   C730    1.414   .     A
C695   N815    1.366   .     A
C695   O840    1.386   .     S
C696   H768    1.110   .     S
C696   H757    1.111   .     S
C696   H779    1.110   .     S
C697   H801    1.108   .     S
C697   H790    1.111   .     S
C697   O818    1.408   .     S
C697   C698    1.519   .     S
C698   H736    1.111   .     S
C698   H812    1.110   .     S
C698   H814    1.107   .     S
C699   H737    1.107   .     S
C699   H738    1.114   .     S
C699   O819    1.413   .     S
C699   C700    1.520   .     S
C700   H741    1.111   .     S
C700   H739    1.108   .     S
C700   H740    1.110   .     S
C701   O820    1.414   .     S
C701   C702    1.520   .     S
C701   H742    1.110   .     S
C701   H743    1.114   .     S
C702   H745    1.107   .     S
C702   H744    1.110   .     S
C702   H747    1.108   .     S
C703   O821    1.411   .     S
C703   H749    1.112   .     S
C703   C872    1.522   1_455 S
C703   H916    1.107   1_455 S
C704   H752    1.111   .     S
C704   H751    1.109   .     S
C704   C871    1.522   .     S
C704   H918    1.109   .     S
C705   O822    1.413   .     S
C705   H754    1.112   .     S
C705   H753    1.111   .     S
C705   C875    1.520   .     S
C706   C731    1.425   .     A
C706   N816    1.369   .     A
C706   O818    1.377   .     S
C707   H758    1.109   .     S
C707   H755    1.110   .     S
C707   H756    1.107   .     S
C707   C873    1.520   1_455 S
C708   H760    1.114   .     S
C708   O823    1.413   .     S
C708   C877    1.520   .     S
C708   H927    1.109   .     S
C709   H762    1.110   .     S
C709   H763    1.111   .     S
C709   C876    1.520   1_455 S
C709   H929    1.110   1_455 S
C710   O824    1.408   .     S
C710   H765    1.113   .     S
C710   C879    1.521   1_455 S
C710   H932    1.112   1_455 S
C711   H769    1.111   .     S
C711   H767    1.109   .     S
C711   C878    1.521   .     S
C711   H934    1.111   .     S
C712   H770    1.114   .     S
C712   H771    1.113   .     S
C712   C713    1.522   .     S
C712   O825    1.424   .     S
C713   H774    1.107   .     S
C713   H772    1.109   .     S
C713   H773    1.109   .     S
C714   O826    1.410   .     S
C714   H775    1.114   .     S
C714   C715    1.523   .     S
C714   H776    1.109   .     S
C715   H777    1.111   .     S
C715   H778    1.109   .     S
C715   H780    1.107   .     S
C716   H781    1.113   .     S
C716   O827    1.427   .     S
C716   C718    1.521   .     S
C716   H782    1.111   .     S
C717   C732    1.416   .     A
C717   O819    1.384   .     S
C717   N815    1.367   .     A
C718   H784    1.107   .     S
C718   H785    1.109   .     S
C718   H783    1.109   .     S
C719   H786    1.108   .     S
C719   C720    1.523   .     S
C719   H787    1.109   .     S
C719   O829    1.410   .     S
C720   H788    1.108   .     S
C720   H791    1.106   .     S
C720   H789    1.109   .     S
C721   H793    1.112   .     S
C721   O830    1.398   .     S
C721   C722    1.526   .     S
C721   H1128   1.111   1_545 S
C722   H1466   1.110   .     S
C722   H1803   1.107   1_545 S
C722   H1132   1.110   1_545 S
C723   C724    1.522   .     S
C723   H797    1.114   .     S
C723   H798    1.105   .     S
C723   O831    1.406   .     S
C724   H800    1.110   .     S
C724   H799    1.110   .     S
C724   H1138   1.109   .     S
C725   H804    1.112   .     S
C725   O832    1.401   .     S
C725   C1062   1.529   1_545 S
C725   H1139   1.111   1_545 S
C726   H807    1.110   .     S
C726   C1061   1.529   .     S
C727   H808    1.116   .     S
C727   O833    1.404   .     S
C727   H809    1.108   .     S
C727   C1065   1.521   .     S
C728   O820    1.379   .     S
C728   N816    1.367   .     A
C729   H811    1.110   .     S
C729   H813    1.110   .     S
C729   C1063   1.521   1_545 S
C729   H1146   1.111   1_545 S
C730   O830    1.375   .     S
C731   O831    1.385   .     S
C732   O832    1.380   .     S
Cu733  O836    1.948   .     S
Cu733  O838    1.948   .     S
Cu733  O817    1.951   .     S
Cu733  N816    2.032   .     S
Cu733  O834    1.953   .     S
Cu733  Cu734   2.705   .     S
Cu734  N815    2.032   .     S
Cu734  O839    1.948   .     S
Cu734  O835    1.953   .     S
Cu734  O828    1.951   .     S
Cu734  O837    1.948   .     S
H748   C871    1.107   .     S
H750   C872    1.109   1_455 S
H759   C876    1.109   1_455 S
H761   C877    1.110   .     S
H764   C878    1.112   .     S
H766   C879    1.111   1_455 S
H792   C1057   1.111   .     S
H796   C1058   1.110   .     S
H802   C1060   1.109   1_545 S
H803   C1061   1.111   .     S
H805   C1734   1.109   1_545 S
H806   C1398   1.109   .     S
H810   C1065   1.111   .     S
C841   O985    1.305   .     A
C841   C858    1.476   .     S
C841   O1003   1.306   .     A
C842   C846    1.425   .     A
C842   O1001   1.381   .     S
C842   C896    1.419   .     A
C843   O1007   1.299   .     A
C843   C847    1.421   .     S
C843   O1004   1.299   .     A
C844   C848    1.421   .     S
C844   O1006   1.299   .     A
C844   O1005   1.300   .     A
C845   C898    1.431   .     A
C845   C900    1.430   .     A
C845   C1182   1.544   1_545 S
C846   C899    1.425   .     A
C846   C1181   1.544   .     S
C848   C1519   1.198   .     S
C849   O989    1.384   .     S
C849   C854    1.388   .     A
C849   C860    1.422   .     A
C850   C855    1.425   .     A
C850   C861    1.427   .     A
C850   O990    1.383   .     S
C851   C861    1.419   .     A
C851   C856    1.384   .     A
C851   O991    1.384   .     S
C852   O996    1.304   .     A
C852   C859    1.471   .     S
C852   O1002   1.305   .     A
C853   C860    1.421   .     A
C853   O992    1.382   .     S
C853   C857    1.414   .     A
C854   C858    1.404   .     A
C854   O993    1.388   .     S
C855   C859    1.409   .     A
C855   O994    1.397   .     S
C856   O995    1.390   .     S
C856   C859    1.400   .     A
C857   O997    1.388   .     S
C857   C858    1.407   .     A
C861   C692    1.489   1_655 S
C862   H903    1.110   .     S
C862   O1008   1.415   .     S
C862   C864    1.523   .     S
C862   H914    1.109   .     S
C863   C898    1.414   .     A
C863   N983    1.366   .     A
C863   O1008   1.386   .     S
C864   H936    1.110   .     S
C864   H925    1.111   .     S
C864   H947    1.110   .     S
C865   H969    1.108   .     S
C865   H958    1.111   .     S
C865   O986    1.408   .     S
C865   C866    1.519   .     S
C866   H904    1.111   .     S
C866   H980    1.110   .     S
C866   H982    1.107   .     S
C867   H905    1.107   .     S
C867   H906    1.114   .     S
C867   O987    1.413   .     S
C867   C868    1.520   .     S
C868   H909    1.111   .     S
C868   H907    1.108   .     S
C868   H908    1.110   .     S
C869   O988    1.414   .     S
C869   C870    1.520   .     S
C869   H910    1.110   .     S
C869   H911    1.114   .     S
C870   H913    1.107   .     S
C870   H912    1.110   .     S
C870   H915    1.108   .     S
C871   O989    1.411   .     S
C871   H917    1.112   .     S
C872   H920    1.111   .     S
C872   H919    1.109   .     S
C872   C703    1.522   1_655 S
C872   H750    1.109   1_655 S
C873   O990    1.413   .     S
C873   H922    1.112   .     S
C873   H921    1.111   .     S
C873   C707    1.520   1_655 S
C874   C899    1.425   .     A
C874   N984    1.369   .     A
C874   O986    1.377   .     S
C875   H926    1.109   .     S
C875   H923    1.110   .     S
C875   H924    1.107   .     S
C876   H928    1.114   .     S
C876   O991    1.413   .     S
C876   C709    1.520   1_655 S
C876   H759    1.109   1_655 S
C877   H930    1.110   .     S
C877   H931    1.111   .     S
C878   O992    1.408   .     S
C878   H933    1.113   .     S
C879   H937    1.111   .     S
C879   H935    1.109   .     S
C879   C710    1.521   1_655 S
C879   H766    1.111   1_655 S
C880   H938    1.114   .     S
C880   H939    1.113   .     S
C880   C881    1.522   .     S
C880   O993    1.424   .     S
C881   H942    1.107   .     S
C881   H940    1.109   .     S
C881   H941    1.109   .     S
C882   O994    1.410   .     S
C882   H943    1.114   .     S
C882   C883    1.523   .     S
C882   H944    1.109   .     S
C883   H945    1.111   .     S
C883   H946    1.109   .     S
C883   H948    1.107   .     S
C884   H949    1.113   .     S
C884   O995    1.427   .     S
C884   C886    1.521   .     S
C884   H950    1.111   .     S
C885   C900    1.416   .     A
C885   O987    1.384   .     S
C885   N983    1.367   .     A
C886   H952    1.107   .     S
C886   H953    1.109   .     S
C886   H951    1.109   .     S
C887   H954    1.108   .     S
C887   C888    1.523   .     S
C887   H955    1.109   .     S
C887   O997    1.410   .     S
C888   H956    1.108   .     S
C888   H959    1.106   .     S
C888   H957    1.109   .     S
C889   H961    1.112   .     S
C889   O998    1.398   .     S
C889   C890    1.526   .     S
C889   H1296   1.111   1_545 S
C890   H1634   1.110   .     S
C890   H1971   1.107   1_545 S
C890   H1300   1.110   1_545 S
C891   C892    1.522   .     S
C891   H965    1.114   .     S
C891   H966    1.105   .     S
C891   O999    1.406   .     S
C892   H968    1.110   .     S
C892   H967    1.110   .     S
C892   H1306   1.109   .     S
C893   H972    1.112   .     S
C893   O1000   1.401   .     S
C893   C1230   1.529   1_545 S
C893   H1307   1.111   1_545 S
C894   H975    1.110   .     S
C894   C1229   1.529   .     S
C895   H976    1.116   .     S
C895   O1001   1.404   .     S
C895   H977    1.108   .     S
C895   C1233   1.521   .     S
C896   O988    1.379   .     S
C896   N984    1.367   .     A
C897   H979    1.110   .     S
C897   H981    1.110   .     S
C897   C1231   1.521   1_545 S
C897   H1314   1.111   1_545 S
C898   O998    1.375   .     S
C899   O999    1.385   .     S
C900   O1000   1.380   .     S
Cu901  O1004   1.948   .     S
Cu901  O1006   1.948   .     S
Cu901  O985    1.951   .     S
Cu901  N984    2.032   .     S
Cu901  O1002   1.953   .     S
Cu901  Cu902   2.705   .     S
Cu902  N983    2.032   .     S
Cu902  O1007   1.948   .     S
Cu902  O1003   1.953   .     S
Cu902  O996    1.951   .     S
Cu902  O1005   1.948   .     S
H916   C703    1.107   1_655 S
H929   C709    1.110   1_655 S
H932   C710    1.112   1_655 S
H960   C1225   1.111   .     S
H964   C1226   1.110   .     S
H970   C1228   1.109   1_545 S
H971   C1229   1.111   .     S
H973   C1902   1.109   1_545 S
H974   C1566   1.109   .     S
H978   C1233   1.111   .     S
C1009  O1153   1.305   .     A
C1009  C1026   1.476   .     S
C1009  O1171   1.306   .     A
C1010  C1014   1.425   .     A
C1010  O1169   1.381   .     S
C1010  C1064   1.419   .     A
C1011  O1175   1.299   .     A
C1011  C1015   1.421   .     S
C1011  O1172   1.299   .     A
C1012  C1016   1.421   .     S
C1012  O1174   1.299   .     A
C1012  O1173   1.300   .     A
C1013  C1066   1.431   .     A
C1013  C1068   1.430   .     A
C1014  C1067   1.425   .     A
C1014  C677    1.544   1_565 S
C1016  C1687   1.198   .     S
C1017  O1157   1.384   .     S
C1017  C1022   1.388   .     A
C1017  C1028   1.422   .     A
C1018  C1023   1.425   .     A
C1018  C1029   1.427   .     A
C1018  O1158   1.383   .     S
C1019  C1029   1.419   .     A
C1019  C1024   1.384   .     A
C1019  O1159   1.384   .     S
C1020  O1164   1.304   .     A
C1020  C1027   1.471   .     S
C1020  O1170   1.305   .     A
C1021  C1028   1.421   .     A
C1021  O1160   1.382   .     S
C1021  C1025   1.414   .     A
C1022  C1026   1.404   .     A
C1022  O1161   1.388   .     S
C1023  C1027   1.409   .     A
C1023  O1162   1.397   .     S
C1024  O1163   1.390   .     S
C1024  C1027   1.400   .     A
C1025  O1165   1.388   .     S
C1025  C1026   1.407   .     A
C1028  C1197   1.489   1_455 S
C1029  C1196   1.489   .     S
C1030  H1071   1.110   .     S
C1030  O1176   1.415   .     S
C1030  C1032   1.523   .     S
C1030  H1082   1.109   .     S
C1031  C1066   1.414   .     A
C1031  N1151   1.366   .     A
C1031  O1176   1.386   .     S
C1032  H1104   1.110   .     S
C1032  H1093   1.111   .     S
C1032  H1115   1.110   .     S
C1033  H1137   1.108   .     S
C1033  H1126   1.111   .     S
C1033  O1154   1.408   .     S
C1033  C1034   1.519   .     S
C1034  H1072   1.111   .     S
C1034  H1148   1.110   .     S
C1034  H1150   1.107   .     S
C1035  H1073   1.107   .     S
C1035  H1074   1.114   .     S
C1035  O1155   1.413   .     S
C1035  C1036   1.520   .     S
C1036  H1077   1.111   .     S
C1036  H1075   1.108   .     S
C1036  H1076   1.110   .     S
C1037  O1156   1.414   .     S
C1037  C1038   1.520   .     S
C1037  H1078   1.110   .     S
C1037  H1079   1.114   .     S
C1038  H1081   1.107   .     S
C1038  H1080   1.110   .     S
C1038  H1083   1.108   .     S
C1039  O1157   1.411   .     S
C1039  H1085   1.112   .     S
C1039  C1208   1.522   1_455 S
C1039  H1252   1.107   1_455 S
C1040  H1088   1.111   .     S
C1040  H1087   1.109   .     S
C1040  C1207   1.522   .     S
C1040  H1254   1.109   .     S
C1041  O1158   1.413   .     S
C1041  H1090   1.112   .     S
C1041  H1089   1.111   .     S
C1041  C1211   1.520   .     S
C1042  C1067   1.425   .     A
C1042  N1152   1.369   .     A
C1042  O1154   1.377   .     S
C1043  H1094   1.109   .     S
C1043  H1091   1.110   .     S
C1043  H1092   1.107   .     S
C1043  C1209   1.520   1_455 S
C1044  H1096   1.114   .     S
C1044  O1159   1.413   .     S
C1044  C1213   1.520   .     S
C1044  H1263   1.109   .     S
C1045  H1098   1.110   .     S
C1045  H1099   1.111   .     S
C1045  C1212   1.520   1_455 S
C1045  H1265   1.110   1_455 S
C1046  O1160   1.408   .     S
C1046  H1101   1.113   .     S
C1046  C1215   1.521   1_455 S
C1046  H1268   1.112   1_455 S
C1047  H1105   1.111   .     S
C1047  H1103   1.109   .     S
C1047  C1214   1.521   .     S
C1047  H1270   1.111   .     S
C1048  H1106   1.114   .     S
C1048  H1107   1.113   .     S
C1048  C1049   1.522   .     S
C1048  O1161   1.424   .     S
C1049  H1110   1.107   .     S
C1049  H1108   1.109   .     S
C1049  H1109   1.109   .     S
C1050  O1162   1.410   .     S
C1050  H1111   1.114   .     S
C1050  C1051   1.523   .     S
C1050  H1112   1.109   .     S
C1051  H1113   1.111   .     S
C1051  H1114   1.109   .     S
C1051  H1116   1.107   .     S
C1052  H1117   1.113   .     S
C1052  O1163   1.427   .     S
C1052  C1054   1.521   .     S
C1052  H1118   1.111   .     S
C1053  C1068   1.416   .     A
C1053  O1155   1.384   .     S
C1053  N1151   1.367   .     A
C1054  H1120   1.107   .     S
C1054  H1121   1.109   .     S
C1054  H1119   1.109   .     S
C1055  H1122   1.108   .     S
C1055  C1056   1.523   .     S
C1055  H1123   1.109   .     S
C1055  O1165   1.410   .     S
C1056  H1124   1.108   .     S
C1056  H1127   1.106   .     S
C1056  H1125   1.109   .     S
C1057  H1129   1.112   .     S
C1057  O1166   1.398   .     S
C1057  C1058   1.526   .     S
C1058  H1802   1.110   .     S
C1058  H1467   1.107   .     S
C1059  C1060   1.522   .     S
C1059  H1133   1.114   .     S
C1059  H1134   1.105   .     S
C1059  O1167   1.406   .     S
C1060  H1136   1.110   .     S
C1060  H1135   1.110   .     S
C1060  H802    1.109   1_565 S
C1061  H1140   1.112   .     S
C1061  O1168   1.401   .     S
C1062  H1143   1.110   .     S
C1062  C725    1.529   1_565 S
C1062  H133    1.109   1_565 S
C1063  H1144   1.116   .     S
C1063  O1169   1.404   .     S
C1063  H1145   1.108   .     S
C1063  C729    1.521   1_565 S
C1064  O1156   1.379   .     S
C1064  N1152   1.367   .     A
C1065  H1147   1.110   .     S
C1065  H1149   1.110   .     S
C1066  O1166   1.375   .     S
C1067  O1167   1.385   .     S
C1068  O1168   1.380   .     S
Cu1069 O1172   1.948   .     S
Cu1069 O1174   1.948   .     S
Cu1069 O1153   1.951   .     S
Cu1069 N1152   2.032   .     S
Cu1069 O1170   1.953   .     S
Cu1069 Cu1070  2.705   .     S
Cu1070 N1151   2.032   .     S
Cu1070 O1175   1.948   .     S
Cu1070 O1171   1.953   .     S
Cu1070 O1164   1.951   .     S
Cu1070 O1173   1.948   .     S
H1084  C1207   1.107   .     S
H1086  C1208   1.109   1_455 S
H1095  C1212   1.109   1_455 S
H1097  C1213   1.110   .     S
H1100  C1214   1.112   .     S
H1102  C1215   1.111   1_455 S
H1128  C721    1.111   1_565 S
H1131  C50     1.107   1_565 S
H1132  C722    1.110   1_565 S
H1139  C725    1.111   1_565 S
H1141  C1398   1.109   .     S
H1142  C1734   1.109   .     S
H1146  C729    1.111   1_565 S
C1177  O1321   1.305   .     A
C1177  C1194   1.476   .     S
C1177  O1339   1.306   .     A
C1178  C1182   1.425   .     A
C1178  O1337   1.381   .     S
C1178  C1232   1.419   .     A
C1179  O1343   1.299   .     A
C1179  C1183   1.421   .     S
C1179  O1340   1.299   .     A
C1180  C1184   1.421   .     S
C1180  O1342   1.299   .     A
C1180  O1341   1.300   .     A
C1181  C1234   1.431   .     A
C1181  C1236   1.430   .     A
C1182  C1235   1.425   .     A
C1182  C845    1.544   1_565 S
C1184  C1855   1.198   .     S
C1185  O1325   1.384   .     S
C1185  C1190   1.388   .     A
C1185  C1196   1.422   .     A
C1186  C1191   1.425   .     A
C1186  C1197   1.427   .     A
C1186  O1326   1.383   .     S
C1187  C1197   1.419   .     A
C1187  C1192   1.384   .     A
C1187  O1327   1.384   .     S
C1188  O1332   1.304   .     A
C1188  C1195   1.471   .     S
C1188  O1338   1.305   .     A
C1189  C1196   1.421   .     A
C1189  O1328   1.382   .     S
C1189  C1193   1.414   .     A
C1190  C1194   1.404   .     A
C1190  O1329   1.388   .     S
C1191  C1195   1.409   .     A
C1191  O1330   1.397   .     S
C1192  O1331   1.390   .     S
C1192  C1195   1.400   .     A
C1193  O1333   1.388   .     S
C1193  C1194   1.407   .     A
C1197  C1028   1.489   1_655 S
C1198  H1239   1.110   .     S
C1198  O1344   1.415   .     S
C1198  C1200   1.523   .     S
C1198  H1250   1.109   .     S
C1199  C1234   1.414   .     A
C1199  N1319   1.366   .     A
C1199  O1344   1.386   .     S
C1200  H1272   1.110   .     S
C1200  H1261   1.111   .     S
C1200  H1283   1.110   .     S
C1201  H1305   1.108   .     S
C1201  H1294   1.111   .     S
C1201  O1322   1.408   .     S
C1201  C1202   1.519   .     S
C1202  H1240   1.111   .     S
C1202  H1316   1.110   .     S
C1202  H1318   1.107   .     S
C1203  H1241   1.107   .     S
C1203  H1242   1.114   .     S
C1203  O1323   1.413   .     S
C1203  C1204   1.520   .     S
C1204  H1245   1.111   .     S
C1204  H1243   1.108   .     S
C1204  H1244   1.110   .     S
C1205  O1324   1.414   .     S
C1205  C1206   1.520   .     S
C1205  H1246   1.110   .     S
C1205  H1247   1.114   .     S
C1206  H1249   1.107   .     S
C1206  H1248   1.110   .     S
C1206  H1251   1.108   .     S
C1207  O1325   1.411   .     S
C1207  H1253   1.112   .     S
C1208  H1256   1.111   .     S
C1208  H1255   1.109   .     S
C1208  C1039   1.522   1_655 S
C1208  H1086   1.109   1_655 S
C1209  O1326   1.413   .     S
C1209  H1258   1.112   .     S
C1209  H1257   1.111   .     S
C1209  C1043   1.520   1_655 S
C1210  C1235   1.425   .     A
C1210  N1320   1.369   .     A
C1210  O1322   1.377   .     S
C1211  H1262   1.109   .     S
C1211  H1259   1.110   .     S
C1211  H1260   1.107   .     S
C1212  H1264   1.114   .     S
C1212  O1327   1.413   .     S
C1212  C1045   1.520   1_655 S
C1212  H1095   1.109   1_655 S
C1213  H1266   1.110   .     S
C1213  H1267   1.111   .     S
C1214  O1328   1.408   .     S
C1214  H1269   1.113   .     S
C1215  H1273   1.111   .     S
C1215  H1271   1.109   .     S
C1215  C1046   1.521   1_655 S
C1215  H1102   1.111   1_655 S
C1216  H1274   1.114   .     S
C1216  H1275   1.113   .     S
C1216  C1217   1.522   .     S
C1216  O1329   1.424   .     S
C1217  H1278   1.107   .     S
C1217  H1276   1.109   .     S
C1217  H1277   1.109   .     S
C1218  O1330   1.410   .     S
C1218  H1279   1.114   .     S
C1218  C1219   1.523   .     S
C1218  H1280   1.109   .     S
C1219  H1281   1.111   .     S
C1219  H1282   1.109   .     S
C1219  H1284   1.107   .     S
C1220  H1285   1.113   .     S
C1220  O1331   1.427   .     S
C1220  C1222   1.521   .     S
C1220  H1286   1.111   .     S
C1221  C1236   1.416   .     A
C1221  O1323   1.384   .     S
C1221  N1319   1.367   .     A
C1222  H1288   1.107   .     S
C1222  H1289   1.109   .     S
C1222  H1287   1.109   .     S
C1223  H1290   1.108   .     S
C1223  C1224   1.523   .     S
C1223  H1291   1.109   .     S
C1223  O1333   1.410   .     S
C1224  H1292   1.108   .     S
C1224  H1295   1.106   .     S
C1224  H1293   1.109   .     S
C1225  H1297   1.112   .     S
C1225  O1334   1.398   .     S
C1225  C1226   1.526   .     S
C1226  H1970   1.110   .     S
C1226  H1635   1.107   .     S
C1227  C1228   1.522   .     S
C1227  H1301   1.114   .     S
C1227  H1302   1.105   .     S
C1227  O1335   1.406   .     S
C1228  H1304   1.110   .     S
C1228  H1303   1.110   .     S
C1228  H970    1.109   1_565 S
C1229  H1308   1.112   .     S
C1229  O1336   1.401   .     S
C1230  H1311   1.110   .     S
C1230  C893    1.529   1_565 S
C1230  H301    1.109   1_565 S
C1231  H1312   1.116   .     S
C1231  O1337   1.404   .     S
C1231  H1313   1.108   .     S
C1231  C897    1.521   1_565 S
C1232  O1324   1.379   .     S
C1232  N1320   1.367   .     A
C1233  H1315   1.110   .     S
C1233  H1317   1.110   .     S
C1234  O1334   1.375   .     S
C1235  O1335   1.385   .     S
C1236  O1336   1.380   .     S
Cu1237 O1340   1.948   .     S
Cu1237 O1342   1.948   .     S
Cu1237 O1321   1.951   .     S
Cu1237 N1320   2.032   .     S
Cu1237 O1338   1.953   .     S
Cu1237 Cu1238  2.705   .     S
Cu1238 N1319   2.032   .     S
Cu1238 O1343   1.948   .     S
Cu1238 O1339   1.953   .     S
Cu1238 O1332   1.951   .     S
Cu1238 O1341   1.948   .     S
H1252  C1039   1.107   1_655 S
H1265  C1045   1.110   1_655 S
H1268  C1046   1.112   1_655 S
H1296  C889    1.111   1_565 S
H1299  C218    1.107   1_565 S
H1300  C890    1.110   1_565 S
H1307  C893    1.111   1_565 S
H1309  C1566   1.109   .     S
H1310  C1902   1.109   .     S
H1314  C897    1.111   1_565 S
C1345  O1489   1.305   .     A
C1345  C1362   1.476   .     S
C1345  O1507   1.306   .     A
C1346  C1350   1.425   .     A
C1346  O1505   1.381   .     S
C1346  C1400   1.419   .     A
C1347  O1511   1.299   .     A
C1347  C1351   1.421   .     S
C1347  O1508   1.299   .     A
C1348  C1352   1.421   .     S
C1348  O1510   1.299   .     A
C1348  O1509   1.300   .     A
C1349  C1402   1.431   .     A
C1349  C1404   1.430   .     A
C1349  C1686   1.544   1_545 S
C1350  C1403   1.425   .     A
C1350  C1685   1.544   .     S
C1352  C7      1.198   1_556 S
C1353  O1493   1.384   .     S
C1353  C1358   1.388   .     A
C1353  C1364   1.422   .     A
C1354  C1359   1.425   .     A
C1354  C1365   1.427   .     A
C1354  O1494   1.383   .     S
C1355  C1365   1.419   .     A
C1355  C1360   1.384   .     A
C1355  O1495   1.384   .     S
C1356  O1500   1.304   .     A
C1356  C1363   1.471   .     S
C1356  O1506   1.305   .     A
C1357  C1364   1.421   .     A
C1357  O1496   1.382   .     S
C1357  C1361   1.414   .     A
C1358  C1362   1.404   .     A
C1358  O1497   1.388   .     S
C1359  C1363   1.409   .     A
C1359  O1498   1.397   .     S
C1360  O1499   1.390   .     S
C1360  C1363   1.400   .     A
C1361  O1501   1.388   .     S
C1361  C1362   1.407   .     A
C1364  C1533   1.489   1_455 S
C1365  C1532   1.489   .     S
C1366  H1407   1.110   .     S
C1366  O1512   1.415   .     S
C1366  C1368   1.523   .     S
C1366  H1418   1.109   .     S
C1367  C1402   1.414   .     A
C1367  N1487   1.366   .     A
C1367  O1512   1.386   .     S
C1368  H1440   1.110   .     S
C1368  H1429   1.111   .     S
C1368  H1451   1.110   .     S
C1369  H1473   1.108   .     S
C1369  H1462   1.111   .     S
C1369  O1490   1.408   .     S
C1369  C1370   1.519   .     S
C1370  H1408   1.111   .     S
C1370  H1484   1.110   .     S
C1370  H1486   1.107   .     S
C1371  H1409   1.107   .     S
C1371  H1410   1.114   .     S
C1371  O1491   1.413   .     S
C1371  C1372   1.520   .     S
C1372  H1413   1.111   .     S
C1372  H1411   1.108   .     S
C1372  H1412   1.110   .     S
C1373  O1492   1.414   .     S
C1373  C1374   1.520   .     S
C1373  H1414   1.110   .     S
C1373  H1415   1.114   .     S
C1374  H1417   1.107   .     S
C1374  H1416   1.110   .     S
C1374  H1419   1.108   .     S
C1375  O1493   1.411   .     S
C1375  H1421   1.112   .     S
C1375  C1544   1.522   1_455 S
C1375  H1588   1.107   1_455 S
C1376  H1424   1.111   .     S
C1376  H1423   1.109   .     S
C1376  C1543   1.522   .     S
C1376  H1590   1.109   .     S
C1377  O1494   1.413   .     S
C1377  H1426   1.112   .     S
C1377  H1425   1.111   .     S
C1377  C1547   1.520   .     S
C1378  C1403   1.425   .     A
C1378  N1488   1.369   .     A
C1378  O1490   1.377   .     S
C1379  H1430   1.109   .     S
C1379  H1427   1.110   .     S
C1379  H1428   1.107   .     S
C1379  C1545   1.520   1_455 S
C1380  H1432   1.114   .     S
C1380  O1495   1.413   .     S
C1380  C1549   1.520   .     S
C1380  H1599   1.109   .     S
C1381  H1434   1.110   .     S
C1381  H1435   1.111   .     S
C1381  C1548   1.520   1_455 S
C1381  H1601   1.110   1_455 S
C1382  O1496   1.408   .     S
C1382  H1437   1.113   .     S
C1382  C1551   1.521   1_455 S
C1382  H1604   1.112   1_455 S
C1383  H1441   1.111   .     S
C1383  H1439   1.109   .     S
C1383  C1550   1.521   .     S
C1383  H1606   1.111   .     S
C1384  H1442   1.114   .     S
C1384  H1443   1.113   .     S
C1384  C1385   1.522   .     S
C1384  O1497   1.424   .     S
C1385  H1446   1.107   .     S
C1385  H1444   1.109   .     S
C1385  H1445   1.109   .     S
C1386  O1498   1.410   .     S
C1386  H1447   1.114   .     S
C1386  C1387   1.523   .     S
C1386  H1448   1.109   .     S
C1387  H1449   1.111   .     S
C1387  H1450   1.109   .     S
C1387  H1452   1.107   .     S
C1388  H1453   1.113   .     S
C1388  O1499   1.427   .     S
C1388  C1390   1.521   .     S
C1388  H1454   1.111   .     S
C1389  C1404   1.416   .     A
C1389  O1491   1.384   .     S
C1389  N1487   1.367   .     A
C1390  H1456   1.107   .     S
C1390  H1457   1.109   .     S
C1390  H1455   1.109   .     S
C1391  H1458   1.108   .     S
C1391  C1392   1.523   .     S
C1391  H1459   1.109   .     S
C1391  O1501   1.410   .     S
C1392  H1460   1.108   .     S
C1392  H1463   1.106   .     S
C1392  H1461   1.109   .     S
C1393  H1465   1.112   .     S
C1393  O1502   1.398   .     S
C1393  C1394   1.526   .     S
C1393  H1800   1.111   1_545 S
C1394  H122    1.110   1_556 S
C1394  H459    1.107   1_546 S
C1394  H1804   1.110   1_545 S
C1395  C1396   1.522   .     S
C1395  H1469   1.114   .     S
C1395  H1470   1.105   .     S
C1395  O1503   1.406   .     S
C1396  H1472   1.110   .     S
C1396  H1471   1.110   .     S
C1396  H1810   1.109   .     S
C1397  H1476   1.112   .     S
C1397  O1504   1.401   .     S
C1397  C1734   1.529   1_545 S
C1397  H1811   1.111   1_545 S
C1398  H1479   1.110   .     S
C1398  C1733   1.529   .     S
C1399  H1480   1.116   .     S
C1399  O1505   1.404   .     S
C1399  H1481   1.108   .     S
C1399  C1737   1.521   .     S
C1400  O1492   1.379   .     S
C1400  N1488   1.367   .     A
C1401  H1483   1.110   .     S
C1401  H1485   1.110   .     S
C1401  C1735   1.521   1_545 S
C1401  H1818   1.111   1_545 S
C1402  O1502   1.375   .     S
C1403  O1503   1.385   .     S
C1404  O1504   1.380   .     S
Cu1405 O1508   1.948   .     S
Cu1405 O1510   1.948   .     S
Cu1405 O1489   1.951   .     S
Cu1405 N1488   2.032   .     S
Cu1405 O1506   1.953   .     S
Cu1405 Cu1406  2.705   .     S
Cu1406 N1487   2.032   .     S
Cu1406 O1511   1.948   .     S
Cu1406 O1507   1.953   .     S
Cu1406 O1500   1.951   .     S
Cu1406 O1509   1.948   .     S
H1420  C1543   1.107   .     S
H1422  C1544   1.109   1_455 S
H1431  C1548   1.109   1_455 S
H1433  C1549   1.110   .     S
H1436  C1550   1.112   .     S
H1438  C1551   1.111   1_455 S
H1464  C1729   1.111   .     S
H1468  C1730   1.110   .     S
H1474  C1732   1.109   1_545 S
H1475  C1733   1.111   .     S
H1477  C390    1.109   1_546 S
H1478  C54     1.109   1_556 S
H1482  C1737   1.111   .     S
C1513  O1657   1.305   .     A
C1513  C1530   1.476   .     S
C1513  O1675   1.306   .     A
C1514  C1518   1.425   .     A
C1514  O1673   1.381   .     S
C1514  C1568   1.419   .     A
C1515  O1679   1.299   .     A
C1515  C1519   1.421   .     S
C1515  O1676   1.299   .     A
C1516  C1520   1.421   .     S
C1516  O1678   1.299   .     A
C1516  O1677   1.300   .     A
C1517  C1570   1.431   .     A
C1517  C1572   1.430   .     A
C1517  C1854   1.544   1_545 S
C1518  C1571   1.425   .     A
C1518  C1853   1.544   .     S
C1520  C175    1.198   1_556 S
C1521  O1661   1.384   .     S
C1521  C1526   1.388   .     A
C1521  C1532   1.422   .     A
C1522  C1527   1.425   .     A
C1522  C1533   1.427   .     A
C1522  O1662   1.383   .     S
C1523  C1533   1.419   .     A
C1523  C1528   1.384   .     A
C1523  O1663   1.384   .     S
C1524  O1668   1.304   .     A
C1524  C1531   1.471   .     S
C1524  O1674   1.305   .     A
C1525  C1532   1.421   .     A
C1525  O1664   1.382   .     S
C1525  C1529   1.414   .     A
C1526  C1530   1.404   .     A
C1526  O1665   1.388   .     S
C1527  C1531   1.409   .     A
C1527  O1666   1.397   .     S
C1528  O1667   1.390   .     S
C1528  C1531   1.400   .     A
C1529  O1669   1.388   .     S
C1529  C1530   1.407   .     A
C1533  C1364   1.489   1_655 S
C1534  H1575   1.110   .     S
C1534  O1680   1.415   .     S
C1534  C1536   1.523   .     S
C1534  H1586   1.109   .     S
C1535  C1570   1.414   .     A
C1535  N1655   1.366   .     A
C1535  O1680   1.386   .     S
C1536  H1608   1.110   .     S
C1536  H1597   1.111   .     S
C1536  H1619   1.110   .     S
C1537  H1641   1.108   .     S
C1537  H1630   1.111   .     S
C1537  O1658   1.408   .     S
C1537  C1538   1.519   .     S
C1538  H1576   1.111   .     S
C1538  H1652   1.110   .     S
C1538  H1654   1.107   .     S
C1539  H1577   1.107   .     S
C1539  H1578   1.114   .     S
C1539  O1659   1.413   .     S
C1539  C1540   1.520   .     S
C1540  H1581   1.111   .     S
C1540  H1579   1.108   .     S
C1540  H1580   1.110   .     S
C1541  O1660   1.414   .     S
C1541  C1542   1.520   .     S
C1541  H1582   1.110   .     S
C1541  H1583   1.114   .     S
C1542  H1585   1.107   .     S
C1542  H1584   1.110   .     S
C1542  H1587   1.108   .     S
C1543  O1661   1.411   .     S
C1543  H1589   1.112   .     S
C1544  H1592   1.111   .     S
C1544  H1591   1.109   .     S
C1544  C1375   1.522   1_655 S
C1544  H1422   1.109   1_655 S
C1545  O1662   1.413   .     S
C1545  H1594   1.112   .     S
C1545  H1593   1.111   .     S
C1545  C1379   1.520   1_655 S
C1546  C1571   1.425   .     A
C1546  N1656   1.369   .     A
C1546  O1658   1.377   .     S
C1547  H1598   1.109   .     S
C1547  H1595   1.110   .     S
C1547  H1596   1.107   .     S
C1548  H1600   1.114   .     S
C1548  O1663   1.413   .     S
C1548  C1381   1.520   1_655 S
C1548  H1431   1.109   1_655 S
C1549  H1602   1.110   .     S
C1549  H1603   1.111   .     S
C1550  O1664   1.408   .     S
C1550  H1605   1.113   .     S
C1551  H1609   1.111   .     S
C1551  H1607   1.109   .     S
C1551  C1382   1.521   1_655 S
C1551  H1438   1.111   1_655 S
C1552  H1610   1.114   .     S
C1552  H1611   1.113   .     S
C1552  C1553   1.522   .     S
C1552  O1665   1.424   .     S
C1553  H1614   1.107   .     S
C1553  H1612   1.109   .     S
C1553  H1613   1.109   .     S
C1554  O1666   1.410   .     S
C1554  H1615   1.114   .     S
C1554  C1555   1.523   .     S
C1554  H1616   1.109   .     S
C1555  H1617   1.111   .     S
C1555  H1618   1.109   .     S
C1555  H1620   1.107   .     S
C1556  H1621   1.113   .     S
C1556  O1667   1.427   .     S
C1556  C1558   1.521   .     S
C1556  H1622   1.111   .     S
C1557  C1572   1.416   .     A
C1557  O1659   1.384   .     S
C1557  N1655   1.367   .     A
C1558  H1624   1.107   .     S
C1558  H1625   1.109   .     S
C1558  H1623   1.109   .     S
C1559  H1626   1.108   .     S
C1559  C1560   1.523   .     S
C1559  H1627   1.109   .     S
C1559  O1669   1.410   .     S
C1560  H1628   1.108   .     S
C1560  H1631   1.106   .     S
C1560  H1629   1.109   .     S
C1561  H1633   1.112   .     S
C1561  O1670   1.398   .     S
C1561  C1562   1.526   .     S
C1561  H1968   1.111   1_545 S
C1562  H290    1.110   1_556 S
C1562  H627    1.107   1_546 S
C1562  H1972   1.110   1_545 S
C1563  C1564   1.522   .     S
C1563  H1637   1.114   .     S
C1563  H1638   1.105   .     S
C1563  O1671   1.406   .     S
C1564  H1640   1.110   .     S
C1564  H1639   1.110   .     S
C1564  H1978   1.109   .     S
C1565  H1644   1.112   .     S
C1565  O1672   1.401   .     S
C1565  C1902   1.529   1_545 S
C1565  H1979   1.111   1_545 S
C1566  H1647   1.110   .     S
C1566  C1901   1.529   .     S
C1567  H1648   1.116   .     S
C1567  O1673   1.404   .     S
C1567  H1649   1.108   .     S
C1567  C1905   1.521   .     S
C1568  O1660   1.379   .     S
C1568  N1656   1.367   .     A
C1569  H1651   1.110   .     S
C1569  H1653   1.110   .     S
C1569  C1903   1.521   1_545 S
C1569  H1986   1.111   1_545 S
C1570  O1670   1.375   .     S
C1571  O1671   1.385   .     S
C1572  O1672   1.380   .     S
Cu1573 O1676   1.948   .     S
Cu1573 O1678   1.948   .     S
Cu1573 O1657   1.951   .     S
Cu1573 N1656   2.032   .     S
Cu1573 O1674   1.953   .     S
Cu1573 Cu1574  2.705   .     S
Cu1574 N1655   2.032   .     S
Cu1574 O1679   1.948   .     S
Cu1574 O1675   1.953   .     S
Cu1574 O1668   1.951   .     S
Cu1574 O1677   1.948   .     S
H1588  C1375   1.107   1_655 S
H1601  C1381   1.110   1_655 S
H1604  C1382   1.112   1_655 S
H1632  C1897   1.111   .     S
H1636  C1898   1.110   .     S
H1642  C1900   1.109   1_545 S
H1643  C1901   1.111   .     S
H1645  C558    1.109   1_546 S
H1646  C222    1.109   1_556 S
H1650  C1905   1.111   .     S
C1681  O1825   1.305   .     A
C1681  C1698   1.476   .     S
C1681  O1843   1.306   .     A
C1682  C1686   1.425   .     A
C1682  O1841   1.381   .     S
C1682  C1736   1.419   .     A
C1683  O1847   1.299   .     A
C1683  C1687   1.421   .     S
C1683  O1844   1.299   .     A
C1684  C1688   1.421   .     S
C1684  O1846   1.299   .     A
C1684  O1845   1.300   .     A
C1685  C1738   1.431   .     A
C1685  C1740   1.430   .     A
C1686  C1739   1.425   .     A
C1686  C1349   1.544   1_565 S
C1688  C343    1.198   1_556 S
C1689  O1829   1.384   .     S
C1689  C1694   1.388   .     A
C1689  C1700   1.422   .     A
C1690  C1695   1.425   .     A
C1690  C1701   1.427   .     A
C1690  O1830   1.383   .     S
C1691  C1701   1.419   .     A
C1691  C1696   1.384   .     A
C1691  O1831   1.384   .     S
C1692  O1836   1.304   .     A
C1692  C1699   1.471   .     S
C1692  O1842   1.305   .     A
C1693  C1700   1.421   .     A
C1693  O1832   1.382   .     S
C1693  C1697   1.414   .     A
C1694  C1698   1.404   .     A
C1694  O1833   1.388   .     S
C1695  C1699   1.409   .     A
C1695  O1834   1.397   .     S
C1696  O1835   1.390   .     S
C1696  C1699   1.400   .     A
C1697  O1837   1.388   .     S
C1697  C1698   1.407   .     A
C1700  C1869   1.489   1_455 S
C1701  C1868   1.489   .     S
C1702  H1743   1.110   .     S
C1702  O1848   1.415   .     S
C1702  C1704   1.523   .     S
C1702  H1754   1.109   .     S
C1703  C1738   1.414   .     A
C1703  N1823   1.366   .     A
C1703  O1848   1.386   .     S
C1704  H1776   1.110   .     S
C1704  H1765   1.111   .     S
C1704  H1787   1.110   .     S
C1705  H1809   1.108   .     S
C1705  H1798   1.111   .     S
C1705  O1826   1.408   .     S
C1705  C1706   1.519   .     S
C1706  H1744   1.111   .     S
C1706  H1820   1.110   .     S
C1706  H1822   1.107   .     S
C1707  H1745   1.107   .     S
C1707  H1746   1.114   .     S
C1707  O1827   1.413   .     S
C1707  C1708   1.520   .     S
C1708  H1749   1.111   .     S
C1708  H1747   1.108   .     S
C1708  H1748   1.110   .     S
C1709  O1828   1.414   .     S
C1709  C1710   1.520   .     S
C1709  H1750   1.110   .     S
C1709  H1751   1.114   .     S
C1710  H1753   1.107   .     S
C1710  H1752   1.110   .     S
C1710  H1755   1.108   .     S
C1711  O1829   1.411   .     S
C1711  H1757   1.112   .     S
C1711  C1880   1.522   1_455 S
C1711  H1924   1.107   1_455 S
C1712  H1760   1.111   .     S
C1712  H1759   1.109   .     S
C1712  C1879   1.522   .     S
C1712  H1926   1.109   .     S
C1713  O1830   1.413   .     S
C1713  H1762   1.112   .     S
C1713  H1761   1.111   .     S
C1713  C1883   1.520   .     S
C1714  C1739   1.425   .     A
C1714  N1824   1.369   .     A
C1714  O1826   1.377   .     S
C1715  H1766   1.109   .     S
C1715  H1763   1.110   .     S
C1715  H1764   1.107   .     S
C1715  C1881   1.520   1_455 S
C1716  H1768   1.114   .     S
C1716  O1831   1.413   .     S
C1716  C1885   1.520   .     S
C1716  H1935   1.109   .     S
C1717  H1770   1.110   .     S
C1717  H1771   1.111   .     S
C1717  C1884   1.520   1_455 S
C1717  H1937   1.110   1_455 S
C1718  O1832   1.408   .     S
C1718  H1773   1.113   .     S
C1718  C1887   1.521   1_455 S
C1718  H1940   1.112   1_455 S
C1719  H1777   1.111   .     S
C1719  H1775   1.109   .     S
C1719  C1886   1.521   .     S
C1719  H1942   1.111   .     S
C1720  H1778   1.114   .     S
C1720  H1779   1.113   .     S
C1720  C1721   1.522   .     S
C1720  O1833   1.424   .     S
C1721  H1782   1.107   .     S
C1721  H1780   1.109   .     S
C1721  H1781   1.109   .     S
C1722  O1834   1.410   .     S
C1722  H1783   1.114   .     S
C1722  C1723   1.523   .     S
C1722  H1784   1.109   .     S
C1723  H1785   1.111   .     S
C1723  H1786   1.109   .     S
C1723  H1788   1.107   .     S
C1724  H1789   1.113   .     S
C1724  O1835   1.427   .     S
C1724  C1726   1.521   .     S
C1724  H1790   1.111   .     S
C1725  C1740   1.416   .     A
C1725  O1827   1.384   .     S
C1725  N1823   1.367   .     A
C1726  H1792   1.107   .     S
C1726  H1793   1.109   .     S
C1726  H1791   1.109   .     S
C1727  H1794   1.108   .     S
C1727  C1728   1.523   .     S
C1727  H1795   1.109   .     S
C1727  O1837   1.410   .     S
C1728  H1796   1.108   .     S
C1728  H1799   1.106   .     S
C1728  H1797   1.109   .     S
C1729  H1801   1.112   .     S
C1729  O1838   1.398   .     S
C1729  C1730   1.526   .     S
C1730  H458    1.110   1_556 S
C1730  H123    1.107   1_556 S
C1731  C1732   1.522   .     S
C1731  H1805   1.114   .     S
C1731  H1806   1.105   .     S
C1731  O1839   1.406   .     S
C1732  H1808   1.110   .     S
C1732  H1807   1.110   .     S
C1732  H1474   1.109   1_565 S
C1733  H1812   1.112   .     S
C1733  O1840   1.401   .     S
C1734  H1815   1.110   .     S
C1734  C1397   1.529   1_565 S
C1734  H805    1.109   1_565 S
C1735  H1816   1.116   .     S
C1735  O1841   1.404   .     S
C1735  H1817   1.108   .     S
C1735  C1401   1.521   1_565 S
C1736  O1828   1.379   .     S
C1736  N1824   1.367   .     A
C1737  H1819   1.110   .     S
C1737  H1821   1.110   .     S
C1738  O1838   1.375   .     S
C1739  O1839   1.385   .     S
C1740  O1840   1.380   .     S
Cu1741 O1844   1.948   .     S
Cu1741 O1846   1.948   .     S
Cu1741 O1825   1.951   .     S
Cu1741 N1824   2.032   .     S
Cu1741 O1842   1.953   .     S
Cu1741 Cu1742  2.705   .     S
Cu1742 N1823   2.032   .     S
Cu1742 O1847   1.948   .     S
Cu1742 O1843   1.953   .     S
Cu1742 O1836   1.951   .     S
Cu1742 O1845   1.948   .     S
H1756  C1879   1.107   .     S
H1758  C1880   1.109   1_455 S
H1767  C1884   1.109   1_455 S
H1769  C1885   1.110   .     S
H1772  C1886   1.112   .     S
H1774  C1887   1.111   1_455 S
H1800  C1393   1.111   1_565 S
H1803  C722    1.107   1_565 S
H1804  C1394   1.110   1_565 S
H1811  C1397   1.111   1_565 S
H1813  C54     1.109   1_556 S
H1814  C390    1.109   1_556 S
H1818  C1401   1.111   1_565 S
C1849  O1993   1.305   .     A
C1849  C1866   1.476   .     S
C1849  O2011   1.306   .     A
C1850  C1854   1.425   .     A
C1850  O2009   1.381   .     S
C1850  C1904   1.419   .     A
C1851  O2015   1.299   .     A
C1851  C1855   1.421   .     S
C1851  O2012   1.299   .     A
C1852  C1856   1.421   .     S
C1852  O2014   1.299   .     A
C1852  O2013   1.300   .     A
C1853  C1906   1.431   .     A
C1853  C1908   1.430   .     A
C1854  C1907   1.425   .     A
C1854  C1517   1.544   1_565 S
C1856  C511    1.198   1_556 S
C1857  O1997   1.384   .     S
C1857  C1862   1.388   .     A
C1857  C1868   1.422   .     A
C1858  C1863   1.425   .     A
C1858  C1869   1.427   .     A
C1858  O1998   1.383   .     S
C1859  C1869   1.419   .     A
C1859  C1864   1.384   .     A
C1859  O1999   1.384   .     S
C1860  O2004   1.304   .     A
C1860  C1867   1.471   .     S
C1860  O2010   1.305   .     A
C1861  C1868   1.421   .     A
C1861  O2000   1.382   .     S
C1861  C1865   1.414   .     A
C1862  C1866   1.404   .     A
C1862  O2001   1.388   .     S
C1863  C1867   1.409   .     A
C1863  O2002   1.397   .     S
C1864  O2003   1.390   .     S
C1864  C1867   1.400   .     A
C1865  O2005   1.388   .     S
C1865  C1866   1.407   .     A
C1869  C1700   1.489   1_655 S
C1870  H1911   1.110   .     S
C1870  O2016   1.415   .     S
C1870  C1872   1.523   .     S
C1870  H1922   1.109   .     S
C1871  C1906   1.414   .     A
C1871  N1991   1.366   .     A
C1871  O2016   1.386   .     S
C1872  H1944   1.110   .     S
C1872  H1933   1.111   .     S
C1872  H1955   1.110   .     S
C1873  H1977   1.108   .     S
C1873  H1966   1.111   .     S
C1873  O1994   1.408   .     S
C1873  C1874   1.519   .     S
C1874  H1912   1.111   .     S
C1874  H1988   1.110   .     S
C1874  H1990   1.107   .     S
C1875  H1913   1.107   .     S
C1875  H1914   1.114   .     S
C1875  O1995   1.413   .     S
C1875  C1876   1.520   .     S
C1876  H1917   1.111   .     S
C1876  H1915   1.108   .     S
C1876  H1916   1.110   .     S
C1877  O1996   1.414   .     S
C1877  C1878   1.520   .     S
C1877  H1918   1.110   .     S
C1877  H1919   1.114   .     S
C1878  H1921   1.107   .     S
C1878  H1920   1.110   .     S
C1878  H1923   1.108   .     S
C1879  O1997   1.411   .     S
C1879  H1925   1.112   .     S
C1880  H1928   1.111   .     S
C1880  H1927   1.109   .     S
C1880  C1711   1.522   1_655 S
C1880  H1758   1.109   1_655 S
C1881  O1998   1.413   .     S
C1881  H1930   1.112   .     S
C1881  H1929   1.111   .     S
C1881  C1715   1.520   1_655 S
C1882  C1907   1.425   .     A
C1882  N1992   1.369   .     A
C1882  O1994   1.377   .     S
C1883  H1934   1.109   .     S
C1883  H1931   1.110   .     S
C1883  H1932   1.107   .     S
C1884  H1936   1.114   .     S
C1884  O1999   1.413   .     S
C1884  C1717   1.520   1_655 S
C1884  H1767   1.109   1_655 S
C1885  H1938   1.110   .     S
C1885  H1939   1.111   .     S
C1886  O2000   1.408   .     S
C1886  H1941   1.113   .     S
C1887  H1945   1.111   .     S
C1887  H1943   1.109   .     S
C1887  C1718   1.521   1_655 S
C1887  H1774   1.111   1_655 S
C1888  H1946   1.114   .     S
C1888  H1947   1.113   .     S
C1888  C1889   1.522   .     S
C1888  O2001   1.424   .     S
C1889  H1950   1.107   .     S
C1889  H1948   1.109   .     S
C1889  H1949   1.109   .     S
C1890  O2002   1.410   .     S
C1890  H1951   1.114   .     S
C1890  C1891   1.523   .     S
C1890  H1952   1.109   .     S
C1891  H1953   1.111   .     S
C1891  H1954   1.109   .     S
C1891  H1956   1.107   .     S
C1892  H1957   1.113   .     S
C1892  O2003   1.427   .     S
C1892  C1894   1.521   .     S
C1892  H1958   1.111   .     S
C1893  C1908   1.416   .     A
C1893  O1995   1.384   .     S
C1893  N1991   1.367   .     A
C1894  H1960   1.107   .     S
C1894  H1961   1.109   .     S
C1894  H1959   1.109   .     S
C1895  H1962   1.108   .     S
C1895  C1896   1.523   .     S
C1895  H1963   1.109   .     S
C1895  O2005   1.410   .     S
C1896  H1964   1.108   .     S
C1896  H1967   1.106   .     S
C1896  H1965   1.109   .     S
C1897  H1969   1.112   .     S
C1897  O2006   1.398   .     S
C1897  C1898   1.526   .     S
C1898  H626    1.110   1_556 S
C1898  H291    1.107   1_556 S
C1899  C1900   1.522   .     S
C1899  H1973   1.114   .     S
C1899  H1974   1.105   .     S
C1899  O2007   1.406   .     S
C1900  H1976   1.110   .     S
C1900  H1975   1.110   .     S
C1900  H1642   1.109   1_565 S
C1901  H1980   1.112   .     S
C1901  O2008   1.401   .     S
C1902  H1983   1.110   .     S
C1902  C1565   1.529   1_565 S
C1902  H973    1.109   1_565 S
C1903  H1984   1.116   .     S
C1903  O2009   1.404   .     S
C1903  H1985   1.108   .     S
C1903  C1569   1.521   1_565 S
C1904  O1996   1.379   .     S
C1904  N1992   1.367   .     A
C1905  H1987   1.110   .     S
C1905  H1989   1.110   .     S
C1906  O2006   1.375   .     S
C1907  O2007   1.385   .     S
C1908  O2008   1.380   .     S
Cu1909 O2012   1.948   .     S
Cu1909 O2014   1.948   .     S
Cu1909 O1993   1.951   .     S
Cu1909 N1992   2.032   .     S
Cu1909 O2010   1.953   .     S
Cu1909 Cu1910  2.705   .     S
Cu1910 N1991   2.032   .     S
Cu1910 O2015   1.948   .     S
Cu1910 O2011   1.953   .     S
Cu1910 O2004   1.951   .     S
Cu1910 O2013   1.948   .     S
H1924  C1711   1.107   1_655 S
H1937  C1717   1.110   1_655 S
H1940  C1718   1.112   1_655 S
H1968  C1561   1.111   1_565 S
H1971  C890    1.107   1_565 S
H1972  C1562   1.110   1_565 S
H1979  C1565   1.111   1_565 S
H1981  C222    1.109   1_556 S
H1982  C558    1.109   1_556 S
H1986  C1569   1.111   1_565 S
