data_str_m2_o10_o17_pcu_sym.101
_audit_creation_date              2020-01-03
_audit_creation_method            'Materials Studio'
_symmetry_space_group_name_H-M    'P1'
_symmetry_Int_Tables_number       1
_symmetry_cell_setting            triclinic
loop_
_symmetry_equiv_pos_as_xyz
  x,y,z
_cell_length_a                    29.9211
_cell_length_b                    26.2907
_cell_length_c                    22.7774
_cell_angle_alpha                 103.6308
_cell_angle_beta                  94.5205
_cell_angle_gamma                 95.5279
loop_
_atom_site_label
_atom_site_type_symbol
_atom_site_fract_x
_atom_site_fract_y
_atom_site_fract_z
_atom_site_U_iso_or_equiv
_atom_site_adp_type
_atom_site_occupancy
C1     C     0.24816   0.06676   0.15123   0.00000  Uiso   1.00
C2     C     0.25184   0.26657   0.18210   0.00000  Uiso   1.00
C3     C     0.01244   0.07028   0.14708   0.00000  Uiso   1.00
C4     C     0.48756   0.26306   0.18625   0.00000  Uiso   1.00
C5     C     0.24152   0.01074   0.14440   0.00000  Uiso   1.00
C6     C     0.25848   0.32260   0.18894   0.00000  Uiso   1.00
C7     C     0.16474   0.16616   0.16706   0.00000  Uiso   1.00
C8     C     0.33526   0.16717   0.16627   0.00000  Uiso   1.00
C9     C     0.41120   0.21616   0.17499   0.00000  Uiso   1.00
C10    C     0.08880   0.11717   0.15834   0.00000  Uiso   1.00
C11    C     0.38347   0.16810   0.16537   0.00000  Uiso   1.00
C12    C     0.11653   0.16523   0.16796   0.00000  Uiso   1.00
C13    C     0.40149   0.12024   0.15577   0.00000  Uiso   1.00
C14    C     0.09851   0.21309   0.17756   0.00000  Uiso   1.00
C15    C     0.44788   0.11936   0.15604   0.00000  Uiso   1.00
C16    C     0.05212   0.21397   0.17729   0.00000  Uiso   1.00
C17    C     0.47652   0.16718   0.16631   0.00000  Uiso   1.00
C18    C     0.02348   0.16615   0.16703   0.00000  Uiso   1.00
C19    C     0.45825   0.21596   0.17586   0.00000  Uiso   1.00
C20    C     0.04175   0.11737   0.15747   0.00000  Uiso   1.00
C21    C     0.46599   0.07134   0.14640   0.00000  Uiso   1.00
C22    C     0.03401   0.26199   0.18694   0.00000  Uiso   1.00
Cu23   Cu    0.25501   0.17246   0.22813   0.00000  Uiso   1.00
Cu24   Cu    0.24500   0.16087   0.10521   0.00000  Uiso   1.00
H25    H     0.37919   0.08370   0.14840   0.00000  Uiso   1.00
H26    H     0.12081   0.24963   0.18493   0.00000  Uiso   1.00
H27    H     0.44415   0.03448   0.13821   0.00000  Uiso   1.00
H28    H     0.05585   0.29886   0.19512   0.00000  Uiso   1.00
H29    H     0.02497   0.03228   0.13917   0.00000  Uiso   1.00
H30    H     0.47503   0.30105   0.19416   0.00000  Uiso   1.00
N31    N     0.23745   0.15214   0.01284   0.00000  Uiso   1.00
N32    N     0.26256   0.18119   0.32049   0.00000  Uiso   1.00
O33    O     0.25326   0.09538   0.20659   0.00000  Uiso   1.00
O34    O     0.24675   0.23796   0.12674   0.00000  Uiso   1.00
O35    O     0.24480   0.08559   0.10279   0.00000  Uiso   1.00
O36    O     0.25520   0.24774   0.23055   0.00000  Uiso   1.00
O37    O     0.18936   0.17155   0.21857   0.00000  Uiso   1.00
O38    O     0.31065   0.16179   0.11476   0.00000  Uiso   1.00
O39    O     0.18090   0.16176   0.11477   0.00000  Uiso   1.00
O40    O     0.31910   0.17157   0.21857   0.00000  Uiso   1.00
Cl41   Cl    0.38628   0.27574   0.18546   0.00000  Uiso   1.00
Cl42   Cl    0.11372   0.05759   0.14788   0.00000  Uiso   1.00
Cl43   Cl    0.20361   0.30861   0.08071   0.00000  Uiso   1.00
Cl44   Cl    0.29639   0.02472   0.25261   0.00000  Uiso   1.00
C45    C     0.19530   0.12312   0.31330   0.00000  Uiso   1.00
C46    C     0.18251   0.07153   0.33086   0.00000  Uiso   1.00
H47    H     0.21126   0.04760   0.32729   0.00000  Uiso   1.00
H48    H     0.17098   0.07794   0.04326   0.00000  Uiso   1.00
H49    H     0.15381   0.04827   0.29873   0.00000  Uiso   1.00
H50    H     0.16751   0.14832   0.32063   0.00000  Uiso   1.00
H51    H     0.19794   0.10896   0.26532   0.00000  Uiso   1.00
C52    C     0.30470   0.21021   0.02004   0.00000  Uiso   1.00
C53    C     0.31750   0.26180   0.00247   0.00000  Uiso   1.00
H54    H     0.32903   0.25539   0.29006   0.00000  Uiso   1.00
H55    H     0.28876   0.28574   0.00605   0.00000  Uiso   1.00
H56    H     0.34621   0.28505   0.03459   0.00000  Uiso   1.00
H57    H     0.30206   0.22437   0.06801   0.00000  Uiso   1.00
H58    H     0.33249   0.18500   0.01271   0.00000  Uiso   1.00
C59    C     0.74816   0.06676   0.15123   0.00000  Uiso   1.00
C60    C     0.75184   0.26657   0.18210   0.00000  Uiso   1.00
C61    C     0.51244   0.07028   0.14708   0.00000  Uiso   1.00
C62    C     0.98756   0.26306   0.18625   0.00000  Uiso   1.00
C63    C     0.74152   0.01074   0.14440   0.00000  Uiso   1.00
C64    C     0.75848   0.32260   0.18894   0.00000  Uiso   1.00
C65    C     0.66474   0.16616   0.16706   0.00000  Uiso   1.00
C66    C     0.83526   0.16717   0.16627   0.00000  Uiso   1.00
C67    C     0.91120   0.21616   0.17499   0.00000  Uiso   1.00
C68    C     0.58880   0.11717   0.15834   0.00000  Uiso   1.00
C69    C     0.88347   0.16810   0.16537   0.00000  Uiso   1.00
C70    C     0.61653   0.16523   0.16796   0.00000  Uiso   1.00
C71    C     0.90149   0.12024   0.15577   0.00000  Uiso   1.00
C72    C     0.59851   0.21309   0.17756   0.00000  Uiso   1.00
C73    C     0.94788   0.11936   0.15604   0.00000  Uiso   1.00
C74    C     0.55212   0.21397   0.17729   0.00000  Uiso   1.00
C75    C     0.97652   0.16718   0.16631   0.00000  Uiso   1.00
C76    C     0.52348   0.16615   0.16703   0.00000  Uiso   1.00
C77    C     0.95825   0.21596   0.17586   0.00000  Uiso   1.00
C78    C     0.54175   0.11737   0.15747   0.00000  Uiso   1.00
C79    C     0.96599   0.07134   0.14640   0.00000  Uiso   1.00
C80    C     0.53401   0.26199   0.18694   0.00000  Uiso   1.00
Cu81   Cu    0.75501   0.17246   0.22813   0.00000  Uiso   1.00
Cu82   Cu    0.74500   0.16087   0.10521   0.00000  Uiso   1.00
H83    H     0.87919   0.08370   0.14840   0.00000  Uiso   1.00
H84    H     0.62081   0.24963   0.18493   0.00000  Uiso   1.00
H85    H     0.94415   0.03448   0.13821   0.00000  Uiso   1.00
H86    H     0.55585   0.29886   0.19512   0.00000  Uiso   1.00
H87    H     0.52497   0.03228   0.13917   0.00000  Uiso   1.00
H88    H     0.97503   0.30105   0.19416   0.00000  Uiso   1.00
N89    N     0.73745   0.15214   0.01284   0.00000  Uiso   1.00
N90    N     0.76256   0.18119   0.32049   0.00000  Uiso   1.00
O91    O     0.75326   0.09538   0.20659   0.00000  Uiso   1.00
O92    O     0.74675   0.23796   0.12674   0.00000  Uiso   1.00
O93    O     0.74480   0.08559   0.10279   0.00000  Uiso   1.00
O94    O     0.75520   0.24774   0.23055   0.00000  Uiso   1.00
O95    O     0.68936   0.17155   0.21857   0.00000  Uiso   1.00
O96    O     0.81065   0.16179   0.11476   0.00000  Uiso   1.00
O97    O     0.68090   0.16176   0.11477   0.00000  Uiso   1.00
O98    O     0.81910   0.17157   0.21857   0.00000  Uiso   1.00
Cl99   Cl    0.88628   0.27574   0.18546   0.00000  Uiso   1.00
Cl100  Cl    0.61372   0.05759   0.14788   0.00000  Uiso   1.00
Cl101  Cl    0.70361   0.30861   0.08071   0.00000  Uiso   1.00
Cl102  Cl    0.79639   0.02472   0.25261   0.00000  Uiso   1.00
C103   C     0.69530   0.12312   0.31330   0.00000  Uiso   1.00
C104   C     0.68251   0.07153   0.33086   0.00000  Uiso   1.00
H105   H     0.71126   0.04760   0.32729   0.00000  Uiso   1.00
H106   H     0.67098   0.07794   0.04326   0.00000  Uiso   1.00
H107   H     0.65381   0.04827   0.29873   0.00000  Uiso   1.00
H108   H     0.66751   0.14832   0.32063   0.00000  Uiso   1.00
H109   H     0.69794   0.10896   0.26532   0.00000  Uiso   1.00
C110   C     0.80470   0.21021   0.02004   0.00000  Uiso   1.00
C111   C     0.81750   0.26180   0.00247   0.00000  Uiso   1.00
H112   H     0.82903   0.25539   0.29006   0.00000  Uiso   1.00
H113   H     0.78876   0.28574   0.00605   0.00000  Uiso   1.00
H114   H     0.84621   0.28505   0.03459   0.00000  Uiso   1.00
H115   H     0.80206   0.22437   0.06801   0.00000  Uiso   1.00
H116   H     0.83249   0.18500   0.01271   0.00000  Uiso   1.00
C117   C     0.24816   0.40009   0.15123   0.00000  Uiso   1.00
C118   C     0.25184   0.59991   0.18210   0.00000  Uiso   1.00
C119   C     0.01244   0.40361   0.14708   0.00000  Uiso   1.00
C120   C     0.48756   0.59639   0.18625   0.00000  Uiso   1.00
C121   C     0.24152   0.34407   0.14440   0.00000  Uiso   1.00
C122   C     0.25848   0.65593   0.18894   0.00000  Uiso   1.00
C123   C     0.16474   0.49949   0.16706   0.00000  Uiso   1.00
C124   C     0.33526   0.50050   0.16627   0.00000  Uiso   1.00
C125   C     0.41120   0.54949   0.17499   0.00000  Uiso   1.00
C126   C     0.08880   0.45050   0.15834   0.00000  Uiso   1.00
C127   C     0.38347   0.50144   0.16537   0.00000  Uiso   1.00
C128   C     0.11653   0.49856   0.16796   0.00000  Uiso   1.00
C129   C     0.40149   0.45358   0.15577   0.00000  Uiso   1.00
C130   C     0.09851   0.54642   0.17756   0.00000  Uiso   1.00
C131   C     0.44788   0.45269   0.15604   0.00000  Uiso   1.00
C132   C     0.05212   0.54730   0.17729   0.00000  Uiso   1.00
C133   C     0.47652   0.50052   0.16631   0.00000  Uiso   1.00
C134   C     0.02348   0.49948   0.16703   0.00000  Uiso   1.00
C135   C     0.45825   0.54929   0.17586   0.00000  Uiso   1.00
C136   C     0.04175   0.45071   0.15747   0.00000  Uiso   1.00
C137   C     0.46599   0.40467   0.14640   0.00000  Uiso   1.00
C138   C     0.03401   0.59533   0.18694   0.00000  Uiso   1.00
Cu139  Cu    0.25501   0.50579   0.22813   0.00000  Uiso   1.00
Cu140  Cu    0.24500   0.49421   0.10521   0.00000  Uiso   1.00
H141   H     0.37919   0.41704   0.14840   0.00000  Uiso   1.00
H142   H     0.12081   0.58296   0.18493   0.00000  Uiso   1.00
H143   H     0.44415   0.36781   0.13821   0.00000  Uiso   1.00
H144   H     0.05585   0.63219   0.19512   0.00000  Uiso   1.00
H145   H     0.02497   0.36561   0.13917   0.00000  Uiso   1.00
H146   H     0.47503   0.63438   0.19416   0.00000  Uiso   1.00
N147   N     0.23745   0.48547   0.01284   0.00000  Uiso   1.00
N148   N     0.26256   0.51453   0.32049   0.00000  Uiso   1.00
O149   O     0.25326   0.42871   0.20659   0.00000  Uiso   1.00
O150   O     0.24675   0.57129   0.12674   0.00000  Uiso   1.00
O151   O     0.24480   0.41892   0.10279   0.00000  Uiso   1.00
O152   O     0.25520   0.58108   0.23055   0.00000  Uiso   1.00
O153   O     0.18936   0.50488   0.21857   0.00000  Uiso   1.00
O154   O     0.31065   0.49512   0.11476   0.00000  Uiso   1.00
O155   O     0.18090   0.49510   0.11477   0.00000  Uiso   1.00
O156   O     0.31910   0.50490   0.21857   0.00000  Uiso   1.00
Cl157  Cl    0.38628   0.60907   0.18546   0.00000  Uiso   1.00
Cl158  Cl    0.11372   0.39093   0.14788   0.00000  Uiso   1.00
Cl159  Cl    0.20361   0.64194   0.08071   0.00000  Uiso   1.00
Cl160  Cl    0.29639   0.35806   0.25261   0.00000  Uiso   1.00
C161   C     0.19530   0.45645   0.31330   0.00000  Uiso   1.00
C162   C     0.18251   0.40486   0.33086   0.00000  Uiso   1.00
H163   H     0.21126   0.38093   0.32729   0.00000  Uiso   1.00
H164   H     0.17098   0.41127   0.04326   0.00000  Uiso   1.00
H165   H     0.15381   0.38160   0.29873   0.00000  Uiso   1.00
H166   H     0.16751   0.48165   0.32063   0.00000  Uiso   1.00
H167   H     0.19794   0.44229   0.26532   0.00000  Uiso   1.00
C168   C     0.30470   0.54354   0.02004   0.00000  Uiso   1.00
C169   C     0.31750   0.59513   0.00247   0.00000  Uiso   1.00
H170   H     0.32903   0.58872   0.29006   0.00000  Uiso   1.00
H171   H     0.28876   0.61907   0.00605   0.00000  Uiso   1.00
H172   H     0.34621   0.61838   0.03459   0.00000  Uiso   1.00
H173   H     0.30206   0.55771   0.06801   0.00000  Uiso   1.00
H174   H     0.33249   0.51834   0.01271   0.00000  Uiso   1.00
C175   C     0.74816   0.40009   0.15123   0.00000  Uiso   1.00
C176   C     0.75184   0.59991   0.18210   0.00000  Uiso   1.00
C177   C     0.51244   0.40361   0.14708   0.00000  Uiso   1.00
C178   C     0.98756   0.59639   0.18625   0.00000  Uiso   1.00
C179   C     0.74152   0.34407   0.14440   0.00000  Uiso   1.00
C180   C     0.75848   0.65593   0.18894   0.00000  Uiso   1.00
C181   C     0.66474   0.49949   0.16706   0.00000  Uiso   1.00
C182   C     0.83526   0.50050   0.16627   0.00000  Uiso   1.00
C183   C     0.91120   0.54949   0.17499   0.00000  Uiso   1.00
C184   C     0.58880   0.45050   0.15834   0.00000  Uiso   1.00
C185   C     0.88347   0.50144   0.16537   0.00000  Uiso   1.00
C186   C     0.61653   0.49856   0.16796   0.00000  Uiso   1.00
C187   C     0.90149   0.45358   0.15577   0.00000  Uiso   1.00
C188   C     0.59851   0.54642   0.17756   0.00000  Uiso   1.00
C189   C     0.94788   0.45269   0.15604   0.00000  Uiso   1.00
C190   C     0.55212   0.54730   0.17729   0.00000  Uiso   1.00
C191   C     0.97652   0.50052   0.16631   0.00000  Uiso   1.00
C192   C     0.52348   0.49948   0.16703   0.00000  Uiso   1.00
C193   C     0.95825   0.54929   0.17586   0.00000  Uiso   1.00
C194   C     0.54175   0.45071   0.15747   0.00000  Uiso   1.00
C195   C     0.96599   0.40467   0.14640   0.00000  Uiso   1.00
C196   C     0.53401   0.59533   0.18694   0.00000  Uiso   1.00
Cu197  Cu    0.75501   0.50579   0.22813   0.00000  Uiso   1.00
Cu198  Cu    0.74500   0.49421   0.10521   0.00000  Uiso   1.00
H199   H     0.87919   0.41704   0.14840   0.00000  Uiso   1.00
H200   H     0.62081   0.58296   0.18493   0.00000  Uiso   1.00
H201   H     0.94415   0.36781   0.13821   0.00000  Uiso   1.00
H202   H     0.55585   0.63219   0.19512   0.00000  Uiso   1.00
H203   H     0.52497   0.36561   0.13917   0.00000  Uiso   1.00
H204   H     0.97503   0.63438   0.19416   0.00000  Uiso   1.00
N205   N     0.73745   0.48547   0.01284   0.00000  Uiso   1.00
N206   N     0.76256   0.51453   0.32049   0.00000  Uiso   1.00
O207   O     0.75326   0.42871   0.20659   0.00000  Uiso   1.00
O208   O     0.74675   0.57129   0.12674   0.00000  Uiso   1.00
O209   O     0.74480   0.41892   0.10279   0.00000  Uiso   1.00
O210   O     0.75520   0.58108   0.23055   0.00000  Uiso   1.00
O211   O     0.68936   0.50488   0.21857   0.00000  Uiso   1.00
O212   O     0.81065   0.49512   0.11476   0.00000  Uiso   1.00
O213   O     0.68090   0.49510   0.11477   0.00000  Uiso   1.00
O214   O     0.81910   0.50490   0.21857   0.00000  Uiso   1.00
Cl215  Cl    0.88628   0.60907   0.18546   0.00000  Uiso   1.00
Cl216  Cl    0.61372   0.39093   0.14788   0.00000  Uiso   1.00
Cl217  Cl    0.70361   0.64194   0.08071   0.00000  Uiso   1.00
Cl218  Cl    0.79639   0.35806   0.25261   0.00000  Uiso   1.00
C219   C     0.69530   0.45645   0.31330   0.00000  Uiso   1.00
C220   C     0.68251   0.40486   0.33086   0.00000  Uiso   1.00
H221   H     0.71126   0.38093   0.32729   0.00000  Uiso   1.00
H222   H     0.67098   0.41127   0.04326   0.00000  Uiso   1.00
H223   H     0.65381   0.38160   0.29873   0.00000  Uiso   1.00
H224   H     0.66751   0.48165   0.32063   0.00000  Uiso   1.00
H225   H     0.69794   0.44229   0.26532   0.00000  Uiso   1.00
C226   C     0.80470   0.54354   0.02004   0.00000  Uiso   1.00
C227   C     0.81750   0.59513   0.00247   0.00000  Uiso   1.00
H228   H     0.82903   0.58872   0.29006   0.00000  Uiso   1.00
H229   H     0.78876   0.61907   0.00605   0.00000  Uiso   1.00
H230   H     0.84621   0.61838   0.03459   0.00000  Uiso   1.00
H231   H     0.80206   0.55771   0.06801   0.00000  Uiso   1.00
H232   H     0.83249   0.51834   0.01271   0.00000  Uiso   1.00
C233   C     0.24816   0.73343   0.15123   0.00000  Uiso   1.00
C234   C     0.25184   0.93324   0.18210   0.00000  Uiso   1.00
C235   C     0.01244   0.73694   0.14708   0.00000  Uiso   1.00
C236   C     0.48756   0.92972   0.18625   0.00000  Uiso   1.00
C237   C     0.24152   0.67740   0.14440   0.00000  Uiso   1.00
C238   C     0.25848   0.98926   0.18894   0.00000  Uiso   1.00
C239   C     0.16474   0.83283   0.16706   0.00000  Uiso   1.00
C240   C     0.33526   0.83384   0.16627   0.00000  Uiso   1.00
C241   C     0.41120   0.88283   0.17499   0.00000  Uiso   1.00
C242   C     0.08880   0.78384   0.15834   0.00000  Uiso   1.00
C243   C     0.38347   0.83477   0.16537   0.00000  Uiso   1.00
C244   C     0.11653   0.83190   0.16796   0.00000  Uiso   1.00
C245   C     0.40149   0.78691   0.15577   0.00000  Uiso   1.00
C246   C     0.09851   0.87976   0.17756   0.00000  Uiso   1.00
C247   C     0.44788   0.78603   0.15604   0.00000  Uiso   1.00
C248   C     0.05212   0.88064   0.17729   0.00000  Uiso   1.00
C249   C     0.47652   0.83385   0.16631   0.00000  Uiso   1.00
C250   C     0.02348   0.83282   0.16703   0.00000  Uiso   1.00
C251   C     0.45825   0.88263   0.17586   0.00000  Uiso   1.00
C252   C     0.04175   0.78404   0.15747   0.00000  Uiso   1.00
C253   C     0.46599   0.73801   0.14640   0.00000  Uiso   1.00
C254   C     0.03401   0.92866   0.18694   0.00000  Uiso   1.00
Cu255  Cu    0.25501   0.83913   0.22813   0.00000  Uiso   1.00
Cu256  Cu    0.24500   0.82754   0.10521   0.00000  Uiso   1.00
H257   H     0.37919   0.75037   0.14840   0.00000  Uiso   1.00
H258   H     0.12081   0.91630   0.18493   0.00000  Uiso   1.00
H259   H     0.44415   0.70114   0.13821   0.00000  Uiso   1.00
H260   H     0.05585   0.96552   0.19512   0.00000  Uiso   1.00
H261   H     0.02497   0.69895   0.13917   0.00000  Uiso   1.00
H262   H     0.47503   0.96772   0.19416   0.00000  Uiso   1.00
N263   N     0.23745   0.81881   0.01284   0.00000  Uiso   1.00
N264   N     0.26256   0.84786   0.32049   0.00000  Uiso   1.00
O265   O     0.25326   0.76204   0.20659   0.00000  Uiso   1.00
O266   O     0.24675   0.90462   0.12674   0.00000  Uiso   1.00
O267   O     0.24480   0.75226   0.10279   0.00000  Uiso   1.00
O268   O     0.25520   0.91441   0.23055   0.00000  Uiso   1.00
O269   O     0.18936   0.83821   0.21857   0.00000  Uiso   1.00
O270   O     0.31065   0.82845   0.11476   0.00000  Uiso   1.00
O271   O     0.18090   0.82843   0.11477   0.00000  Uiso   1.00
O272   O     0.31910   0.83824   0.21857   0.00000  Uiso   1.00
Cl273  Cl    0.38628   0.94241   0.18546   0.00000  Uiso   1.00
Cl274  Cl    0.11372   0.72426   0.14788   0.00000  Uiso   1.00
Cl275  Cl    0.20361   0.97527   0.08071   0.00000  Uiso   1.00
Cl276  Cl    0.29639   0.69139   0.25261   0.00000  Uiso   1.00
C277   C     0.19530   0.78979   0.31330   0.00000  Uiso   1.00
C278   C     0.18251   0.73819   0.33086   0.00000  Uiso   1.00
H279   H     0.21126   0.71427   0.32729   0.00000  Uiso   1.00
H280   H     0.17098   0.74460   0.04326   0.00000  Uiso   1.00
H281   H     0.15381   0.71494   0.29873   0.00000  Uiso   1.00
H282   H     0.16751   0.81499   0.32063   0.00000  Uiso   1.00
H283   H     0.19794   0.77563   0.26532   0.00000  Uiso   1.00
C284   C     0.30470   0.87687   0.02004   0.00000  Uiso   1.00
C285   C     0.31750   0.92847   0.00247   0.00000  Uiso   1.00
H286   H     0.32903   0.92206   0.29006   0.00000  Uiso   1.00
H287   H     0.28876   0.95241   0.00605   0.00000  Uiso   1.00
H288   H     0.34621   0.95172   0.03459   0.00000  Uiso   1.00
H289   H     0.30206   0.89104   0.06801   0.00000  Uiso   1.00
H290   H     0.33249   0.85167   0.01271   0.00000  Uiso   1.00
C291   C     0.74816   0.73343   0.15123   0.00000  Uiso   1.00
C292   C     0.75184   0.93324   0.18210   0.00000  Uiso   1.00
C293   C     0.51244   0.73694   0.14708   0.00000  Uiso   1.00
C294   C     0.98756   0.92972   0.18625   0.00000  Uiso   1.00
C295   C     0.74152   0.67740   0.14440   0.00000  Uiso   1.00
C296   C     0.75848   0.98926   0.18894   0.00000  Uiso   1.00
C297   C     0.66474   0.83283   0.16706   0.00000  Uiso   1.00
C298   C     0.83526   0.83384   0.16627   0.00000  Uiso   1.00
C299   C     0.91120   0.88283   0.17499   0.00000  Uiso   1.00
C300   C     0.58880   0.78384   0.15834   0.00000  Uiso   1.00
C301   C     0.88347   0.83477   0.16537   0.00000  Uiso   1.00
C302   C     0.61653   0.83190   0.16796   0.00000  Uiso   1.00
C303   C     0.90149   0.78691   0.15577   0.00000  Uiso   1.00
C304   C     0.59851   0.87976   0.17756   0.00000  Uiso   1.00
C305   C     0.94788   0.78603   0.15604   0.00000  Uiso   1.00
C306   C     0.55212   0.88064   0.17729   0.00000  Uiso   1.00
C307   C     0.97652   0.83385   0.16631   0.00000  Uiso   1.00
C308   C     0.52348   0.83282   0.16703   0.00000  Uiso   1.00
C309   C     0.95825   0.88263   0.17586   0.00000  Uiso   1.00
C310   C     0.54175   0.78404   0.15747   0.00000  Uiso   1.00
C311   C     0.96599   0.73801   0.14640   0.00000  Uiso   1.00
C312   C     0.53401   0.92866   0.18694   0.00000  Uiso   1.00
Cu313  Cu    0.75501   0.83913   0.22813   0.00000  Uiso   1.00
Cu314  Cu    0.74500   0.82754   0.10521   0.00000  Uiso   1.00
H315   H     0.87919   0.75037   0.14840   0.00000  Uiso   1.00
H316   H     0.62081   0.91630   0.18493   0.00000  Uiso   1.00
H317   H     0.94415   0.70114   0.13821   0.00000  Uiso   1.00
H318   H     0.55585   0.96552   0.19512   0.00000  Uiso   1.00
H319   H     0.52497   0.69895   0.13917   0.00000  Uiso   1.00
H320   H     0.97503   0.96772   0.19416   0.00000  Uiso   1.00
N321   N     0.73745   0.81881   0.01284   0.00000  Uiso   1.00
N322   N     0.76256   0.84786   0.32049   0.00000  Uiso   1.00
O323   O     0.75326   0.76204   0.20659   0.00000  Uiso   1.00
O324   O     0.74675   0.90462   0.12674   0.00000  Uiso   1.00
O325   O     0.74480   0.75226   0.10279   0.00000  Uiso   1.00
O326   O     0.75520   0.91441   0.23055   0.00000  Uiso   1.00
O327   O     0.68936   0.83821   0.21857   0.00000  Uiso   1.00
O328   O     0.81065   0.82845   0.11476   0.00000  Uiso   1.00
O329   O     0.68090   0.82843   0.11477   0.00000  Uiso   1.00
O330   O     0.81910   0.83824   0.21857   0.00000  Uiso   1.00
Cl331  Cl    0.88628   0.94241   0.18546   0.00000  Uiso   1.00
Cl332  Cl    0.61372   0.72426   0.14788   0.00000  Uiso   1.00
Cl333  Cl    0.70361   0.97527   0.08071   0.00000  Uiso   1.00
Cl334  Cl    0.79639   0.69139   0.25261   0.00000  Uiso   1.00
C335   C     0.69530   0.78979   0.31330   0.00000  Uiso   1.00
C336   C     0.68251   0.73819   0.33086   0.00000  Uiso   1.00
H337   H     0.71126   0.71427   0.32729   0.00000  Uiso   1.00
H338   H     0.67098   0.74460   0.04326   0.00000  Uiso   1.00
H339   H     0.65381   0.71494   0.29873   0.00000  Uiso   1.00
H340   H     0.66751   0.81499   0.32063   0.00000  Uiso   1.00
H341   H     0.69794   0.77563   0.26532   0.00000  Uiso   1.00
C342   C     0.80470   0.87687   0.02004   0.00000  Uiso   1.00
C343   C     0.81750   0.92847   0.00247   0.00000  Uiso   1.00
H344   H     0.82903   0.92206   0.29006   0.00000  Uiso   1.00
H345   H     0.78876   0.95241   0.00605   0.00000  Uiso   1.00
H346   H     0.84621   0.95172   0.03459   0.00000  Uiso   1.00
H347   H     0.80206   0.89104   0.06801   0.00000  Uiso   1.00
H348   H     0.83249   0.85167   0.01271   0.00000  Uiso   1.00
C349   C     0.24816   0.06676   0.48456   0.00000  Uiso   1.00
C350   C     0.25184   0.26657   0.51544   0.00000  Uiso   1.00
C351   C     0.01244   0.07028   0.48042   0.00000  Uiso   1.00
C352   C     0.48756   0.26306   0.51958   0.00000  Uiso   1.00
C353   C     0.24152   0.01074   0.47773   0.00000  Uiso   1.00
C354   C     0.25848   0.32260   0.52227   0.00000  Uiso   1.00
C355   C     0.16474   0.16616   0.50039   0.00000  Uiso   1.00
C356   C     0.33526   0.16717   0.49961   0.00000  Uiso   1.00
C357   C     0.41120   0.21616   0.50832   0.00000  Uiso   1.00
C358   C     0.08880   0.11717   0.49167   0.00000  Uiso   1.00
C359   C     0.38347   0.16810   0.49871   0.00000  Uiso   1.00
C360   C     0.11653   0.16523   0.50129   0.00000  Uiso   1.00
C361   C     0.40149   0.12024   0.48910   0.00000  Uiso   1.00
C362   C     0.09851   0.21309   0.51090   0.00000  Uiso   1.00
C363   C     0.44788   0.11936   0.48937   0.00000  Uiso   1.00
C364   C     0.05212   0.21397   0.51063   0.00000  Uiso   1.00
C365   C     0.47652   0.16718   0.49964   0.00000  Uiso   1.00
C366   C     0.02348   0.16615   0.50036   0.00000  Uiso   1.00
C367   C     0.45825   0.21596   0.50919   0.00000  Uiso   1.00
C368   C     0.04175   0.11737   0.49081   0.00000  Uiso   1.00
C369   C     0.46599   0.07134   0.47973   0.00000  Uiso   1.00
C370   C     0.03401   0.26199   0.52027   0.00000  Uiso   1.00
Cu371  Cu    0.25501   0.17246   0.56146   0.00000  Uiso   1.00
Cu372  Cu    0.24500   0.16087   0.43854   0.00000  Uiso   1.00
H373   H     0.37919   0.08370   0.48173   0.00000  Uiso   1.00
H374   H     0.12081   0.24963   0.51827   0.00000  Uiso   1.00
H375   H     0.44415   0.03448   0.47154   0.00000  Uiso   1.00
H376   H     0.05585   0.29886   0.52846   0.00000  Uiso   1.00
H377   H     0.02497   0.03228   0.47251   0.00000  Uiso   1.00
H378   H     0.47503   0.30105   0.52749   0.00000  Uiso   1.00
N379   N     0.23745   0.15214   0.34617   0.00000  Uiso   1.00
N380   N     0.26256   0.18119   0.65383   0.00000  Uiso   1.00
O381   O     0.25326   0.09538   0.53992   0.00000  Uiso   1.00
O382   O     0.24675   0.23796   0.46008   0.00000  Uiso   1.00
O383   O     0.24480   0.08559   0.43612   0.00000  Uiso   1.00
O384   O     0.25520   0.24774   0.56388   0.00000  Uiso   1.00
O385   O     0.18936   0.17155   0.55191   0.00000  Uiso   1.00
O386   O     0.31065   0.16179   0.44809   0.00000  Uiso   1.00
O387   O     0.18090   0.16176   0.44810   0.00000  Uiso   1.00
O388   O     0.31910   0.17157   0.55190   0.00000  Uiso   1.00
Cl389  Cl    0.38628   0.27574   0.51879   0.00000  Uiso   1.00
Cl390  Cl    0.11372   0.05759   0.48121   0.00000  Uiso   1.00
Cl391  Cl    0.20361   0.30861   0.41405   0.00000  Uiso   1.00
Cl392  Cl    0.29639   0.02472   0.58595   0.00000  Uiso   1.00
C393   C     0.19530   0.12312   0.64663   0.00000  Uiso   1.00
C394   C     0.18251   0.07153   0.66419   0.00000  Uiso   1.00
H395   H     0.21126   0.04760   0.66063   0.00000  Uiso   1.00
H396   H     0.17098   0.07794   0.37660   0.00000  Uiso   1.00
H397   H     0.15381   0.04827   0.63206   0.00000  Uiso   1.00
H398   H     0.16751   0.14832   0.65396   0.00000  Uiso   1.00
H399   H     0.19794   0.10896   0.59865   0.00000  Uiso   1.00
C400   C     0.30470   0.21021   0.35337   0.00000  Uiso   1.00
C401   C     0.31750   0.26180   0.33580   0.00000  Uiso   1.00
H402   H     0.32903   0.25539   0.62340   0.00000  Uiso   1.00
H403   H     0.28876   0.28574   0.33938   0.00000  Uiso   1.00
H404   H     0.34621   0.28505   0.36792   0.00000  Uiso   1.00
H405   H     0.30206   0.22437   0.40135   0.00000  Uiso   1.00
H406   H     0.33249   0.18500   0.34604   0.00000  Uiso   1.00
C407   C     0.74816   0.06676   0.48456   0.00000  Uiso   1.00
C408   C     0.75184   0.26657   0.51544   0.00000  Uiso   1.00
C409   C     0.51244   0.07028   0.48042   0.00000  Uiso   1.00
C410   C     0.98756   0.26306   0.51958   0.00000  Uiso   1.00
C411   C     0.74152   0.01074   0.47773   0.00000  Uiso   1.00
C412   C     0.75848   0.32260   0.52227   0.00000  Uiso   1.00
C413   C     0.66474   0.16616   0.50039   0.00000  Uiso   1.00
C414   C     0.83526   0.16717   0.49961   0.00000  Uiso   1.00
C415   C     0.91120   0.21616   0.50832   0.00000  Uiso   1.00
C416   C     0.58880   0.11717   0.49167   0.00000  Uiso   1.00
C417   C     0.88347   0.16810   0.49871   0.00000  Uiso   1.00
C418   C     0.61653   0.16523   0.50129   0.00000  Uiso   1.00
C419   C     0.90149   0.12024   0.48910   0.00000  Uiso   1.00
C420   C     0.59851   0.21309   0.51090   0.00000  Uiso   1.00
C421   C     0.94788   0.11936   0.48937   0.00000  Uiso   1.00
C422   C     0.55212   0.21397   0.51063   0.00000  Uiso   1.00
C423   C     0.97652   0.16718   0.49964   0.00000  Uiso   1.00
C424   C     0.52348   0.16615   0.50036   0.00000  Uiso   1.00
C425   C     0.95825   0.21596   0.50919   0.00000  Uiso   1.00
C426   C     0.54175   0.11737   0.49081   0.00000  Uiso   1.00
C427   C     0.96599   0.07134   0.47973   0.00000  Uiso   1.00
C428   C     0.53401   0.26199   0.52027   0.00000  Uiso   1.00
Cu429  Cu    0.75501   0.17246   0.56146   0.00000  Uiso   1.00
Cu430  Cu    0.74500   0.16087   0.43854   0.00000  Uiso   1.00
H431   H     0.87919   0.08370   0.48173   0.00000  Uiso   1.00
H432   H     0.62081   0.24963   0.51827   0.00000  Uiso   1.00
H433   H     0.94415   0.03448   0.47154   0.00000  Uiso   1.00
H434   H     0.55585   0.29886   0.52846   0.00000  Uiso   1.00
H435   H     0.52497   0.03228   0.47251   0.00000  Uiso   1.00
H436   H     0.97503   0.30105   0.52749   0.00000  Uiso   1.00
N437   N     0.73745   0.15214   0.34617   0.00000  Uiso   1.00
N438   N     0.76256   0.18119   0.65383   0.00000  Uiso   1.00
O439   O     0.75326   0.09538   0.53992   0.00000  Uiso   1.00
O440   O     0.74675   0.23796   0.46008   0.00000  Uiso   1.00
O441   O     0.74480   0.08559   0.43612   0.00000  Uiso   1.00
O442   O     0.75520   0.24774   0.56388   0.00000  Uiso   1.00
O443   O     0.68936   0.17155   0.55191   0.00000  Uiso   1.00
O444   O     0.81065   0.16179   0.44809   0.00000  Uiso   1.00
O445   O     0.68090   0.16176   0.44810   0.00000  Uiso   1.00
O446   O     0.81910   0.17157   0.55190   0.00000  Uiso   1.00
Cl447  Cl    0.88628   0.27574   0.51879   0.00000  Uiso   1.00
Cl448  Cl    0.61372   0.05759   0.48121   0.00000  Uiso   1.00
Cl449  Cl    0.70361   0.30861   0.41405   0.00000  Uiso   1.00
Cl450  Cl    0.79639   0.02472   0.58595   0.00000  Uiso   1.00
C451   C     0.69530   0.12312   0.64663   0.00000  Uiso   1.00
C452   C     0.68251   0.07153   0.66419   0.00000  Uiso   1.00
H453   H     0.71126   0.04760   0.66063   0.00000  Uiso   1.00
H454   H     0.67098   0.07794   0.37660   0.00000  Uiso   1.00
H455   H     0.65381   0.04827   0.63206   0.00000  Uiso   1.00
H456   H     0.66751   0.14832   0.65396   0.00000  Uiso   1.00
H457   H     0.69794   0.10896   0.59865   0.00000  Uiso   1.00
C458   C     0.80470   0.21021   0.35337   0.00000  Uiso   1.00
C459   C     0.81750   0.26180   0.33580   0.00000  Uiso   1.00
H460   H     0.82903   0.25539   0.62340   0.00000  Uiso   1.00
H461   H     0.78876   0.28574   0.33938   0.00000  Uiso   1.00
H462   H     0.84621   0.28505   0.36792   0.00000  Uiso   1.00
H463   H     0.80206   0.22437   0.40135   0.00000  Uiso   1.00
H464   H     0.83249   0.18500   0.34604   0.00000  Uiso   1.00
C465   C     0.24816   0.40009   0.48456   0.00000  Uiso   1.00
C466   C     0.25184   0.59991   0.51544   0.00000  Uiso   1.00
C467   C     0.01244   0.40361   0.48042   0.00000  Uiso   1.00
C468   C     0.48756   0.59639   0.51958   0.00000  Uiso   1.00
C469   C     0.24152   0.34407   0.47773   0.00000  Uiso   1.00
C470   C     0.25848   0.65593   0.52227   0.00000  Uiso   1.00
C471   C     0.16474   0.49949   0.50039   0.00000  Uiso   1.00
C472   C     0.33526   0.50050   0.49961   0.00000  Uiso   1.00
C473   C     0.41120   0.54949   0.50832   0.00000  Uiso   1.00
C474   C     0.08880   0.45050   0.49167   0.00000  Uiso   1.00
C475   C     0.38347   0.50144   0.49871   0.00000  Uiso   1.00
C476   C     0.11653   0.49856   0.50129   0.00000  Uiso   1.00
C477   C     0.40149   0.45358   0.48910   0.00000  Uiso   1.00
C478   C     0.09851   0.54642   0.51090   0.00000  Uiso   1.00
C479   C     0.44788   0.45269   0.48937   0.00000  Uiso   1.00
C480   C     0.05212   0.54730   0.51063   0.00000  Uiso   1.00
C481   C     0.47652   0.50052   0.49964   0.00000  Uiso   1.00
C482   C     0.02348   0.49948   0.50036   0.00000  Uiso   1.00
C483   C     0.45825   0.54929   0.50919   0.00000  Uiso   1.00
C484   C     0.04175   0.45071   0.49081   0.00000  Uiso   1.00
C485   C     0.46599   0.40467   0.47973   0.00000  Uiso   1.00
C486   C     0.03401   0.59533   0.52027   0.00000  Uiso   1.00
Cu487  Cu    0.25501   0.50579   0.56146   0.00000  Uiso   1.00
Cu488  Cu    0.24500   0.49421   0.43854   0.00000  Uiso   1.00
H489   H     0.37919   0.41704   0.48173   0.00000  Uiso   1.00
H490   H     0.12081   0.58296   0.51827   0.00000  Uiso   1.00
H491   H     0.44415   0.36781   0.47154   0.00000  Uiso   1.00
H492   H     0.05585   0.63219   0.52846   0.00000  Uiso   1.00
H493   H     0.02497   0.36561   0.47251   0.00000  Uiso   1.00
H494   H     0.47503   0.63438   0.52749   0.00000  Uiso   1.00
N495   N     0.23745   0.48547   0.34617   0.00000  Uiso   1.00
N496   N     0.26256   0.51453   0.65383   0.00000  Uiso   1.00
O497   O     0.25326   0.42871   0.53992   0.00000  Uiso   1.00
O498   O     0.24675   0.57129   0.46008   0.00000  Uiso   1.00
O499   O     0.24480   0.41892   0.43612   0.00000  Uiso   1.00
O500   O     0.25520   0.58108   0.56388   0.00000  Uiso   1.00
O501   O     0.18936   0.50488   0.55191   0.00000  Uiso   1.00
O502   O     0.31065   0.49512   0.44809   0.00000  Uiso   1.00
O503   O     0.18090   0.49510   0.44810   0.00000  Uiso   1.00
O504   O     0.31910   0.50490   0.55190   0.00000  Uiso   1.00
Cl505  Cl    0.38628   0.60907   0.51879   0.00000  Uiso   1.00
Cl506  Cl    0.11372   0.39093   0.48121   0.00000  Uiso   1.00
Cl507  Cl    0.20361   0.64194   0.41405   0.00000  Uiso   1.00
Cl508  Cl    0.29639   0.35806   0.58595   0.00000  Uiso   1.00
C509   C     0.19530   0.45645   0.64663   0.00000  Uiso   1.00
C510   C     0.18251   0.40486   0.66419   0.00000  Uiso   1.00
H511   H     0.21126   0.38093   0.66063   0.00000  Uiso   1.00
H512   H     0.17098   0.41127   0.37660   0.00000  Uiso   1.00
H513   H     0.15381   0.38160   0.63206   0.00000  Uiso   1.00
H514   H     0.16751   0.48165   0.65396   0.00000  Uiso   1.00
H515   H     0.19794   0.44229   0.59865   0.00000  Uiso   1.00
C516   C     0.30470   0.54354   0.35337   0.00000  Uiso   1.00
C517   C     0.31750   0.59513   0.33580   0.00000  Uiso   1.00
H518   H     0.32903   0.58872   0.62340   0.00000  Uiso   1.00
H519   H     0.28876   0.61907   0.33938   0.00000  Uiso   1.00
H520   H     0.34621   0.61838   0.36792   0.00000  Uiso   1.00
H521   H     0.30206   0.55771   0.40135   0.00000  Uiso   1.00
H522   H     0.33249   0.51834   0.34604   0.00000  Uiso   1.00
C523   C     0.74816   0.40009   0.48456   0.00000  Uiso   1.00
C524   C     0.75184   0.59991   0.51544   0.00000  Uiso   1.00
C525   C     0.51244   0.40361   0.48042   0.00000  Uiso   1.00
C526   C     0.98756   0.59639   0.51958   0.00000  Uiso   1.00
C527   C     0.74152   0.34407   0.47773   0.00000  Uiso   1.00
C528   C     0.75848   0.65593   0.52227   0.00000  Uiso   1.00
C529   C     0.66474   0.49949   0.50039   0.00000  Uiso   1.00
C530   C     0.83526   0.50050   0.49961   0.00000  Uiso   1.00
C531   C     0.91120   0.54949   0.50832   0.00000  Uiso   1.00
C532   C     0.58880   0.45050   0.49167   0.00000  Uiso   1.00
C533   C     0.88347   0.50144   0.49871   0.00000  Uiso   1.00
C534   C     0.61653   0.49856   0.50129   0.00000  Uiso   1.00
C535   C     0.90149   0.45358   0.48910   0.00000  Uiso   1.00
C536   C     0.59851   0.54642   0.51090   0.00000  Uiso   1.00
C537   C     0.94788   0.45269   0.48937   0.00000  Uiso   1.00
C538   C     0.55212   0.54730   0.51063   0.00000  Uiso   1.00
C539   C     0.97652   0.50052   0.49964   0.00000  Uiso   1.00
C540   C     0.52348   0.49948   0.50036   0.00000  Uiso   1.00
C541   C     0.95825   0.54929   0.50919   0.00000  Uiso   1.00
C542   C     0.54175   0.45071   0.49081   0.00000  Uiso   1.00
C543   C     0.96599   0.40467   0.47973   0.00000  Uiso   1.00
C544   C     0.53401   0.59533   0.52027   0.00000  Uiso   1.00
Cu545  Cu    0.75501   0.50579   0.56146   0.00000  Uiso   1.00
Cu546  Cu    0.74500   0.49421   0.43854   0.00000  Uiso   1.00
H547   H     0.87919   0.41704   0.48173   0.00000  Uiso   1.00
H548   H     0.62081   0.58296   0.51827   0.00000  Uiso   1.00
H549   H     0.94415   0.36781   0.47154   0.00000  Uiso   1.00
H550   H     0.55585   0.63219   0.52846   0.00000  Uiso   1.00
H551   H     0.52497   0.36561   0.47251   0.00000  Uiso   1.00
H552   H     0.97503   0.63438   0.52749   0.00000  Uiso   1.00
N553   N     0.73745   0.48547   0.34617   0.00000  Uiso   1.00
N554   N     0.76256   0.51453   0.65383   0.00000  Uiso   1.00
O555   O     0.75326   0.42871   0.53992   0.00000  Uiso   1.00
O556   O     0.74675   0.57129   0.46008   0.00000  Uiso   1.00
O557   O     0.74480   0.41892   0.43612   0.00000  Uiso   1.00
O558   O     0.75520   0.58108   0.56388   0.00000  Uiso   1.00
O559   O     0.68936   0.50488   0.55191   0.00000  Uiso   1.00
O560   O     0.81065   0.49512   0.44809   0.00000  Uiso   1.00
O561   O     0.68090   0.49510   0.44810   0.00000  Uiso   1.00
O562   O     0.81910   0.50490   0.55190   0.00000  Uiso   1.00
Cl563  Cl    0.88628   0.60907   0.51879   0.00000  Uiso   1.00
Cl564  Cl    0.61372   0.39093   0.48121   0.00000  Uiso   1.00
Cl565  Cl    0.70361   0.64194   0.41405   0.00000  Uiso   1.00
Cl566  Cl    0.79639   0.35806   0.58595   0.00000  Uiso   1.00
C567   C     0.69530   0.45645   0.64663   0.00000  Uiso   1.00
C568   C     0.68251   0.40486   0.66419   0.00000  Uiso   1.00
H569   H     0.71126   0.38093   0.66063   0.00000  Uiso   1.00
H570   H     0.67098   0.41127   0.37660   0.00000  Uiso   1.00
H571   H     0.65381   0.38160   0.63206   0.00000  Uiso   1.00
H572   H     0.66751   0.48165   0.65396   0.00000  Uiso   1.00
H573   H     0.69794   0.44229   0.59865   0.00000  Uiso   1.00
C574   C     0.80470   0.54354   0.35337   0.00000  Uiso   1.00
C575   C     0.81750   0.59513   0.33580   0.00000  Uiso   1.00
H576   H     0.82903   0.58872   0.62340   0.00000  Uiso   1.00
H577   H     0.78876   0.61907   0.33938   0.00000  Uiso   1.00
H578   H     0.84621   0.61838   0.36792   0.00000  Uiso   1.00
H579   H     0.80206   0.55771   0.40135   0.00000  Uiso   1.00
H580   H     0.83249   0.51834   0.34604   0.00000  Uiso   1.00
C581   C     0.24816   0.73343   0.48456   0.00000  Uiso   1.00
C582   C     0.25184   0.93324   0.51544   0.00000  Uiso   1.00
C583   C     0.01244   0.73694   0.48042   0.00000  Uiso   1.00
C584   C     0.48756   0.92972   0.51958   0.00000  Uiso   1.00
C585   C     0.24152   0.67740   0.47773   0.00000  Uiso   1.00
C586   C     0.25848   0.98926   0.52227   0.00000  Uiso   1.00
C587   C     0.16474   0.83283   0.50039   0.00000  Uiso   1.00
C588   C     0.33526   0.83384   0.49961   0.00000  Uiso   1.00
C589   C     0.41120   0.88283   0.50832   0.00000  Uiso   1.00
C590   C     0.08880   0.78384   0.49167   0.00000  Uiso   1.00
C591   C     0.38347   0.83477   0.49871   0.00000  Uiso   1.00
C592   C     0.11653   0.83190   0.50129   0.00000  Uiso   1.00
C593   C     0.40149   0.78691   0.48910   0.00000  Uiso   1.00
C594   C     0.09851   0.87976   0.51090   0.00000  Uiso   1.00
C595   C     0.44788   0.78603   0.48937   0.00000  Uiso   1.00
C596   C     0.05212   0.88064   0.51063   0.00000  Uiso   1.00
C597   C     0.47652   0.83385   0.49964   0.00000  Uiso   1.00
C598   C     0.02348   0.83282   0.50036   0.00000  Uiso   1.00
C599   C     0.45825   0.88263   0.50919   0.00000  Uiso   1.00
C600   C     0.04175   0.78404   0.49081   0.00000  Uiso   1.00
C601   C     0.46599   0.73801   0.47973   0.00000  Uiso   1.00
C602   C     0.03401   0.92866   0.52027   0.00000  Uiso   1.00
Cu603  Cu    0.25501   0.83913   0.56146   0.00000  Uiso   1.00
Cu604  Cu    0.24500   0.82754   0.43854   0.00000  Uiso   1.00
H605   H     0.37919   0.75037   0.48173   0.00000  Uiso   1.00
H606   H     0.12081   0.91630   0.51827   0.00000  Uiso   1.00
H607   H     0.44415   0.70114   0.47154   0.00000  Uiso   1.00
H608   H     0.05585   0.96552   0.52846   0.00000  Uiso   1.00
H609   H     0.02497   0.69895   0.47251   0.00000  Uiso   1.00
H610   H     0.47503   0.96772   0.52749   0.00000  Uiso   1.00
N611   N     0.23745   0.81881   0.34617   0.00000  Uiso   1.00
N612   N     0.26256   0.84786   0.65383   0.00000  Uiso   1.00
O613   O     0.25326   0.76204   0.53992   0.00000  Uiso   1.00
O614   O     0.24675   0.90462   0.46008   0.00000  Uiso   1.00
O615   O     0.24480   0.75226   0.43612   0.00000  Uiso   1.00
O616   O     0.25520   0.91441   0.56388   0.00000  Uiso   1.00
O617   O     0.18936   0.83821   0.55191   0.00000  Uiso   1.00
O618   O     0.31065   0.82845   0.44809   0.00000  Uiso   1.00
O619   O     0.18090   0.82843   0.44810   0.00000  Uiso   1.00
O620   O     0.31910   0.83824   0.55190   0.00000  Uiso   1.00
Cl621  Cl    0.38628   0.94241   0.51879   0.00000  Uiso   1.00
Cl622  Cl    0.11372   0.72426   0.48121   0.00000  Uiso   1.00
Cl623  Cl    0.20361   0.97527   0.41405   0.00000  Uiso   1.00
Cl624  Cl    0.29639   0.69139   0.58595   0.00000  Uiso   1.00
C625   C     0.19530   0.78979   0.64663   0.00000  Uiso   1.00
C626   C     0.18251   0.73819   0.66419   0.00000  Uiso   1.00
H627   H     0.21126   0.71427   0.66063   0.00000  Uiso   1.00
H628   H     0.17098   0.74460   0.37660   0.00000  Uiso   1.00
H629   H     0.15381   0.71494   0.63206   0.00000  Uiso   1.00
H630   H     0.16751   0.81499   0.65396   0.00000  Uiso   1.00
H631   H     0.19794   0.77563   0.59865   0.00000  Uiso   1.00
C632   C     0.30470   0.87687   0.35337   0.00000  Uiso   1.00
C633   C     0.31750   0.92847   0.33580   0.00000  Uiso   1.00
H634   H     0.32903   0.92206   0.62340   0.00000  Uiso   1.00
H635   H     0.28876   0.95241   0.33938   0.00000  Uiso   1.00
H636   H     0.34621   0.95172   0.36792   0.00000  Uiso   1.00
H637   H     0.30206   0.89104   0.40135   0.00000  Uiso   1.00
H638   H     0.33249   0.85167   0.34604   0.00000  Uiso   1.00
C639   C     0.74816   0.73343   0.48456   0.00000  Uiso   1.00
C640   C     0.75184   0.93324   0.51544   0.00000  Uiso   1.00
C641   C     0.51244   0.73694   0.48042   0.00000  Uiso   1.00
C642   C     0.98756   0.92972   0.51958   0.00000  Uiso   1.00
C643   C     0.74152   0.67740   0.47773   0.00000  Uiso   1.00
C644   C     0.75848   0.98926   0.52227   0.00000  Uiso   1.00
C645   C     0.66474   0.83283   0.50039   0.00000  Uiso   1.00
C646   C     0.83526   0.83384   0.49961   0.00000  Uiso   1.00
C647   C     0.91120   0.88283   0.50832   0.00000  Uiso   1.00
C648   C     0.58880   0.78384   0.49167   0.00000  Uiso   1.00
C649   C     0.88347   0.83477   0.49871   0.00000  Uiso   1.00
C650   C     0.61653   0.83190   0.50129   0.00000  Uiso   1.00
C651   C     0.90149   0.78691   0.48910   0.00000  Uiso   1.00
C652   C     0.59851   0.87976   0.51090   0.00000  Uiso   1.00
C653   C     0.94788   0.78603   0.48937   0.00000  Uiso   1.00
C654   C     0.55212   0.88064   0.51063   0.00000  Uiso   1.00
C655   C     0.97652   0.83385   0.49964   0.00000  Uiso   1.00
C656   C     0.52348   0.83282   0.50036   0.00000  Uiso   1.00
C657   C     0.95825   0.88263   0.50919   0.00000  Uiso   1.00
C658   C     0.54175   0.78404   0.49081   0.00000  Uiso   1.00
C659   C     0.96599   0.73801   0.47973   0.00000  Uiso   1.00
C660   C     0.53401   0.92866   0.52027   0.00000  Uiso   1.00
Cu661  Cu    0.75501   0.83913   0.56146   0.00000  Uiso   1.00
Cu662  Cu    0.74500   0.82754   0.43854   0.00000  Uiso   1.00
H663   H     0.87919   0.75037   0.48173   0.00000  Uiso   1.00
H664   H     0.62081   0.91630   0.51827   0.00000  Uiso   1.00
H665   H     0.94415   0.70114   0.47154   0.00000  Uiso   1.00
H666   H     0.55585   0.96552   0.52846   0.00000  Uiso   1.00
H667   H     0.52497   0.69895   0.47251   0.00000  Uiso   1.00
H668   H     0.97503   0.96772   0.52749   0.00000  Uiso   1.00
N669   N     0.73745   0.81881   0.34617   0.00000  Uiso   1.00
N670   N     0.76256   0.84786   0.65383   0.00000  Uiso   1.00
O671   O     0.75326   0.76204   0.53992   0.00000  Uiso   1.00
O672   O     0.74675   0.90462   0.46008   0.00000  Uiso   1.00
O673   O     0.74480   0.75226   0.43612   0.00000  Uiso   1.00
O674   O     0.75520   0.91441   0.56388   0.00000  Uiso   1.00
O675   O     0.68936   0.83821   0.55191   0.00000  Uiso   1.00
O676   O     0.81065   0.82845   0.44809   0.00000  Uiso   1.00
O677   O     0.68090   0.82843   0.44810   0.00000  Uiso   1.00
O678   O     0.81910   0.83824   0.55190   0.00000  Uiso   1.00
Cl679  Cl    0.88628   0.94241   0.51879   0.00000  Uiso   1.00
Cl680  Cl    0.61372   0.72426   0.48121   0.00000  Uiso   1.00
Cl681  Cl    0.70361   0.97527   0.41405   0.00000  Uiso   1.00
Cl682  Cl    0.79639   0.69139   0.58595   0.00000  Uiso   1.00
C683   C     0.69530   0.78979   0.64663   0.00000  Uiso   1.00
C684   C     0.68251   0.73819   0.66419   0.00000  Uiso   1.00
H685   H     0.71126   0.71427   0.66063   0.00000  Uiso   1.00
H686   H     0.67098   0.74460   0.37660   0.00000  Uiso   1.00
H687   H     0.65381   0.71494   0.63206   0.00000  Uiso   1.00
H688   H     0.66751   0.81499   0.65396   0.00000  Uiso   1.00
H689   H     0.69794   0.77563   0.59865   0.00000  Uiso   1.00
C690   C     0.80470   0.87687   0.35337   0.00000  Uiso   1.00
C691   C     0.81750   0.92847   0.33580   0.00000  Uiso   1.00
H692   H     0.82903   0.92206   0.62340   0.00000  Uiso   1.00
H693   H     0.78876   0.95241   0.33938   0.00000  Uiso   1.00
H694   H     0.84621   0.95172   0.36792   0.00000  Uiso   1.00
H695   H     0.80206   0.89104   0.40135   0.00000  Uiso   1.00
H696   H     0.83249   0.85167   0.34604   0.00000  Uiso   1.00
C697   C     0.24816   0.06676   0.81790   0.00000  Uiso   1.00
C698   C     0.25184   0.26657   0.84877   0.00000  Uiso   1.00
C699   C     0.01244   0.07028   0.81375   0.00000  Uiso   1.00
C700   C     0.48756   0.26306   0.85292   0.00000  Uiso   1.00
C701   C     0.24152   0.01074   0.81106   0.00000  Uiso   1.00
C702   C     0.25848   0.32260   0.85560   0.00000  Uiso   1.00
C703   C     0.16474   0.16616   0.83373   0.00000  Uiso   1.00
C704   C     0.33526   0.16717   0.83294   0.00000  Uiso   1.00
C705   C     0.41120   0.21616   0.84166   0.00000  Uiso   1.00
C706   C     0.08880   0.11717   0.82501   0.00000  Uiso   1.00
C707   C     0.38347   0.16810   0.83204   0.00000  Uiso   1.00
C708   C     0.11653   0.16523   0.83463   0.00000  Uiso   1.00
C709   C     0.40149   0.12024   0.82244   0.00000  Uiso   1.00
C710   C     0.09851   0.21309   0.84423   0.00000  Uiso   1.00
C711   C     0.44788   0.11936   0.82271   0.00000  Uiso   1.00
C712   C     0.05212   0.21397   0.84396   0.00000  Uiso   1.00
C713   C     0.47652   0.16718   0.83297   0.00000  Uiso   1.00
C714   C     0.02348   0.16615   0.83369   0.00000  Uiso   1.00
C715   C     0.45825   0.21596   0.84253   0.00000  Uiso   1.00
C716   C     0.04175   0.11737   0.82414   0.00000  Uiso   1.00
C717   C     0.46599   0.07134   0.81306   0.00000  Uiso   1.00
C718   C     0.03401   0.26199   0.85360   0.00000  Uiso   1.00
Cu719  Cu    0.25501   0.17246   0.89479   0.00000  Uiso   1.00
Cu720  Cu    0.24500   0.16087   0.77187   0.00000  Uiso   1.00
H721   H     0.37919   0.08370   0.81507   0.00000  Uiso   1.00
H722   H     0.12081   0.24963   0.85160   0.00000  Uiso   1.00
H723   H     0.44415   0.03448   0.80488   0.00000  Uiso   1.00
H724   H     0.05585   0.29886   0.86179   0.00000  Uiso   1.00
H725   H     0.02497   0.03228   0.80584   0.00000  Uiso   1.00
H726   H     0.47503   0.30105   0.86083   0.00000  Uiso   1.00
N727   N     0.23745   0.15214   0.67951   0.00000  Uiso   1.00
N728   N     0.26256   0.18119   0.98716   0.00000  Uiso   1.00
O729   O     0.25326   0.09538   0.87326   0.00000  Uiso   1.00
O730   O     0.24675   0.23796   0.79341   0.00000  Uiso   1.00
O731   O     0.24480   0.08559   0.76945   0.00000  Uiso   1.00
O732   O     0.25520   0.24774   0.89721   0.00000  Uiso   1.00
O733   O     0.18936   0.17155   0.88524   0.00000  Uiso   1.00
O734   O     0.31065   0.16179   0.78143   0.00000  Uiso   1.00
O735   O     0.18090   0.16176   0.78143   0.00000  Uiso   1.00
O736   O     0.31910   0.17157   0.88523   0.00000  Uiso   1.00
Cl737  Cl    0.38628   0.27574   0.85212   0.00000  Uiso   1.00
Cl738  Cl    0.11372   0.05759   0.81454   0.00000  Uiso   1.00
Cl739  Cl    0.20361   0.30861   0.74738   0.00000  Uiso   1.00
Cl740  Cl    0.29639   0.02472   0.91928   0.00000  Uiso   1.00
C741   C     0.19530   0.12312   0.97996   0.00000  Uiso   1.00
C742   C     0.18251   0.07153   0.99753   0.00000  Uiso   1.00
H743   H     0.21126   0.04760   0.99396   0.00000  Uiso   1.00
H744   H     0.17098   0.07794   0.70993   0.00000  Uiso   1.00
H745   H     0.15381   0.04827   0.96540   0.00000  Uiso   1.00
H746   H     0.16751   0.14832   0.98729   0.00000  Uiso   1.00
H747   H     0.19794   0.10896   0.93198   0.00000  Uiso   1.00
C748   C     0.30470   0.21021   0.68670   0.00000  Uiso   1.00
C749   C     0.31750   0.26180   0.66914   0.00000  Uiso   1.00
H750   H     0.32903   0.25539   0.95673   0.00000  Uiso   1.00
H751   H     0.28876   0.28574   0.67271   0.00000  Uiso   1.00
H752   H     0.34621   0.28505   0.70126   0.00000  Uiso   1.00
H753   H     0.30206   0.22437   0.73468   0.00000  Uiso   1.00
H754   H     0.33249   0.18500   0.67938   0.00000  Uiso   1.00
C755   C     0.74816   0.06676   0.81790   0.00000  Uiso   1.00
C756   C     0.75184   0.26657   0.84877   0.00000  Uiso   1.00
C757   C     0.51244   0.07028   0.81375   0.00000  Uiso   1.00
C758   C     0.98756   0.26306   0.85292   0.00000  Uiso   1.00
C759   C     0.74152   0.01074   0.81106   0.00000  Uiso   1.00
C760   C     0.75848   0.32260   0.85560   0.00000  Uiso   1.00
C761   C     0.66474   0.16616   0.83373   0.00000  Uiso   1.00
C762   C     0.83526   0.16717   0.83294   0.00000  Uiso   1.00
C763   C     0.91120   0.21616   0.84166   0.00000  Uiso   1.00
C764   C     0.58880   0.11717   0.82501   0.00000  Uiso   1.00
C765   C     0.88347   0.16810   0.83204   0.00000  Uiso   1.00
C766   C     0.61653   0.16523   0.83463   0.00000  Uiso   1.00
C767   C     0.90149   0.12024   0.82244   0.00000  Uiso   1.00
C768   C     0.59851   0.21309   0.84423   0.00000  Uiso   1.00
C769   C     0.94788   0.11936   0.82271   0.00000  Uiso   1.00
C770   C     0.55212   0.21397   0.84396   0.00000  Uiso   1.00
C771   C     0.97652   0.16718   0.83297   0.00000  Uiso   1.00
C772   C     0.52348   0.16615   0.83369   0.00000  Uiso   1.00
C773   C     0.95825   0.21596   0.84253   0.00000  Uiso   1.00
C774   C     0.54175   0.11737   0.82414   0.00000  Uiso   1.00
C775   C     0.96599   0.07134   0.81306   0.00000  Uiso   1.00
C776   C     0.53401   0.26199   0.85360   0.00000  Uiso   1.00
Cu777  Cu    0.75501   0.17246   0.89479   0.00000  Uiso   1.00
Cu778  Cu    0.74500   0.16087   0.77187   0.00000  Uiso   1.00
H779   H     0.87919   0.08370   0.81507   0.00000  Uiso   1.00
H780   H     0.62081   0.24963   0.85160   0.00000  Uiso   1.00
H781   H     0.94415   0.03448   0.80488   0.00000  Uiso   1.00
H782   H     0.55585   0.29886   0.86179   0.00000  Uiso   1.00
H783   H     0.52497   0.03228   0.80584   0.00000  Uiso   1.00
H784   H     0.97503   0.30105   0.86083   0.00000  Uiso   1.00
N785   N     0.73745   0.15214   0.67951   0.00000  Uiso   1.00
N786   N     0.76256   0.18119   0.98716   0.00000  Uiso   1.00
O787   O     0.75326   0.09538   0.87326   0.00000  Uiso   1.00
O788   O     0.74675   0.23796   0.79341   0.00000  Uiso   1.00
O789   O     0.74480   0.08559   0.76945   0.00000  Uiso   1.00
O790   O     0.75520   0.24774   0.89721   0.00000  Uiso   1.00
O791   O     0.68936   0.17155   0.88524   0.00000  Uiso   1.00
O792   O     0.81065   0.16179   0.78143   0.00000  Uiso   1.00
O793   O     0.68090   0.16176   0.78143   0.00000  Uiso   1.00
O794   O     0.81910   0.17157   0.88523   0.00000  Uiso   1.00
Cl795  Cl    0.88628   0.27574   0.85212   0.00000  Uiso   1.00
Cl796  Cl    0.61372   0.05759   0.81454   0.00000  Uiso   1.00
Cl797  Cl    0.70361   0.30861   0.74738   0.00000  Uiso   1.00
Cl798  Cl    0.79639   0.02472   0.91928   0.00000  Uiso   1.00
C799   C     0.69530   0.12312   0.97996   0.00000  Uiso   1.00
C800   C     0.68251   0.07153   0.99753   0.00000  Uiso   1.00
H801   H     0.71126   0.04760   0.99396   0.00000  Uiso   1.00
H802   H     0.67098   0.07794   0.70993   0.00000  Uiso   1.00
H803   H     0.65381   0.04827   0.96540   0.00000  Uiso   1.00
H804   H     0.66751   0.14832   0.98729   0.00000  Uiso   1.00
H805   H     0.69794   0.10896   0.93198   0.00000  Uiso   1.00
C806   C     0.80470   0.21021   0.68670   0.00000  Uiso   1.00
C807   C     0.81750   0.26180   0.66914   0.00000  Uiso   1.00
H808   H     0.82903   0.25539   0.95673   0.00000  Uiso   1.00
H809   H     0.78876   0.28574   0.67271   0.00000  Uiso   1.00
H810   H     0.84621   0.28505   0.70126   0.00000  Uiso   1.00
H811   H     0.80206   0.22437   0.73468   0.00000  Uiso   1.00
H812   H     0.83249   0.18500   0.67938   0.00000  Uiso   1.00
C813   C     0.24816   0.40009   0.81790   0.00000  Uiso   1.00
C814   C     0.25184   0.59991   0.84877   0.00000  Uiso   1.00
C815   C     0.01244   0.40361   0.81375   0.00000  Uiso   1.00
C816   C     0.48756   0.59639   0.85292   0.00000  Uiso   1.00
C817   C     0.24152   0.34407   0.81106   0.00000  Uiso   1.00
C818   C     0.25848   0.65593   0.85560   0.00000  Uiso   1.00
C819   C     0.16474   0.49949   0.83373   0.00000  Uiso   1.00
C820   C     0.33526   0.50050   0.83294   0.00000  Uiso   1.00
C821   C     0.41120   0.54949   0.84166   0.00000  Uiso   1.00
C822   C     0.08880   0.45050   0.82501   0.00000  Uiso   1.00
C823   C     0.38347   0.50144   0.83204   0.00000  Uiso   1.00
C824   C     0.11653   0.49856   0.83463   0.00000  Uiso   1.00
C825   C     0.40149   0.45358   0.82244   0.00000  Uiso   1.00
C826   C     0.09851   0.54642   0.84423   0.00000  Uiso   1.00
C827   C     0.44788   0.45269   0.82271   0.00000  Uiso   1.00
C828   C     0.05212   0.54730   0.84396   0.00000  Uiso   1.00
C829   C     0.47652   0.50052   0.83297   0.00000  Uiso   1.00
C830   C     0.02348   0.49948   0.83369   0.00000  Uiso   1.00
C831   C     0.45825   0.54929   0.84253   0.00000  Uiso   1.00
C832   C     0.04175   0.45071   0.82414   0.00000  Uiso   1.00
C833   C     0.46599   0.40467   0.81306   0.00000  Uiso   1.00
C834   C     0.03401   0.59533   0.85360   0.00000  Uiso   1.00
Cu835  Cu    0.25501   0.50579   0.89479   0.00000  Uiso   1.00
Cu836  Cu    0.24500   0.49421   0.77187   0.00000  Uiso   1.00
H837   H     0.37919   0.41704   0.81507   0.00000  Uiso   1.00
H838   H     0.12081   0.58296   0.85160   0.00000  Uiso   1.00
H839   H     0.44415   0.36781   0.80488   0.00000  Uiso   1.00
H840   H     0.05585   0.63219   0.86179   0.00000  Uiso   1.00
H841   H     0.02497   0.36561   0.80584   0.00000  Uiso   1.00
H842   H     0.47503   0.63438   0.86083   0.00000  Uiso   1.00
N843   N     0.23745   0.48547   0.67951   0.00000  Uiso   1.00
N844   N     0.26256   0.51453   0.98716   0.00000  Uiso   1.00
O845   O     0.25326   0.42871   0.87326   0.00000  Uiso   1.00
O846   O     0.24675   0.57129   0.79341   0.00000  Uiso   1.00
O847   O     0.24480   0.41892   0.76945   0.00000  Uiso   1.00
O848   O     0.25520   0.58108   0.89721   0.00000  Uiso   1.00
O849   O     0.18936   0.50488   0.88524   0.00000  Uiso   1.00
O850   O     0.31065   0.49512   0.78143   0.00000  Uiso   1.00
O851   O     0.18090   0.49510   0.78143   0.00000  Uiso   1.00
O852   O     0.31910   0.50490   0.88523   0.00000  Uiso   1.00
Cl853  Cl    0.38628   0.60907   0.85212   0.00000  Uiso   1.00
Cl854  Cl    0.11372   0.39093   0.81454   0.00000  Uiso   1.00
Cl855  Cl    0.20361   0.64194   0.74738   0.00000  Uiso   1.00
Cl856  Cl    0.29639   0.35806   0.91928   0.00000  Uiso   1.00
C857   C     0.19530   0.45645   0.97996   0.00000  Uiso   1.00
C858   C     0.18251   0.40486   0.99753   0.00000  Uiso   1.00
H859   H     0.21126   0.38093   0.99396   0.00000  Uiso   1.00
H860   H     0.17098   0.41127   0.70993   0.00000  Uiso   1.00
H861   H     0.15381   0.38160   0.96540   0.00000  Uiso   1.00
H862   H     0.16751   0.48165   0.98729   0.00000  Uiso   1.00
H863   H     0.19794   0.44229   0.93198   0.00000  Uiso   1.00
C864   C     0.30470   0.54354   0.68670   0.00000  Uiso   1.00
C865   C     0.31750   0.59513   0.66914   0.00000  Uiso   1.00
H866   H     0.32903   0.58872   0.95673   0.00000  Uiso   1.00
H867   H     0.28876   0.61907   0.67271   0.00000  Uiso   1.00
H868   H     0.34621   0.61838   0.70126   0.00000  Uiso   1.00
H869   H     0.30206   0.55771   0.73468   0.00000  Uiso   1.00
H870   H     0.33249   0.51834   0.67938   0.00000  Uiso   1.00
C871   C     0.74816   0.40009   0.81790   0.00000  Uiso   1.00
C872   C     0.75184   0.59991   0.84877   0.00000  Uiso   1.00
C873   C     0.51244   0.40361   0.81375   0.00000  Uiso   1.00
C874   C     0.98756   0.59639   0.85292   0.00000  Uiso   1.00
C875   C     0.74152   0.34407   0.81106   0.00000  Uiso   1.00
C876   C     0.75848   0.65593   0.85560   0.00000  Uiso   1.00
C877   C     0.66474   0.49949   0.83373   0.00000  Uiso   1.00
C878   C     0.83526   0.50050   0.83294   0.00000  Uiso   1.00
C879   C     0.91120   0.54949   0.84166   0.00000  Uiso   1.00
C880   C     0.58880   0.45050   0.82501   0.00000  Uiso   1.00
C881   C     0.88347   0.50144   0.83204   0.00000  Uiso   1.00
C882   C     0.61653   0.49856   0.83463   0.00000  Uiso   1.00
C883   C     0.90149   0.45358   0.82244   0.00000  Uiso   1.00
C884   C     0.59851   0.54642   0.84423   0.00000  Uiso   1.00
C885   C     0.94788   0.45269   0.82271   0.00000  Uiso   1.00
C886   C     0.55212   0.54730   0.84396   0.00000  Uiso   1.00
C887   C     0.97652   0.50052   0.83297   0.00000  Uiso   1.00
C888   C     0.52348   0.49948   0.83369   0.00000  Uiso   1.00
C889   C     0.95825   0.54929   0.84253   0.00000  Uiso   1.00
C890   C     0.54175   0.45071   0.82414   0.00000  Uiso   1.00
C891   C     0.96599   0.40467   0.81306   0.00000  Uiso   1.00
C892   C     0.53401   0.59533   0.85360   0.00000  Uiso   1.00
Cu893  Cu    0.75501   0.50579   0.89479   0.00000  Uiso   1.00
Cu894  Cu    0.74500   0.49421   0.77187   0.00000  Uiso   1.00
H895   H     0.87919   0.41704   0.81507   0.00000  Uiso   1.00
H896   H     0.62081   0.58296   0.85160   0.00000  Uiso   1.00
H897   H     0.94415   0.36781   0.80488   0.00000  Uiso   1.00
H898   H     0.55585   0.63219   0.86179   0.00000  Uiso   1.00
H899   H     0.52497   0.36561   0.80584   0.00000  Uiso   1.00
H900   H     0.97503   0.63438   0.86083   0.00000  Uiso   1.00
N901   N     0.73745   0.48547   0.67951   0.00000  Uiso   1.00
N902   N     0.76256   0.51453   0.98716   0.00000  Uiso   1.00
O903   O     0.75326   0.42871   0.87326   0.00000  Uiso   1.00
O904   O     0.74675   0.57129   0.79341   0.00000  Uiso   1.00
O905   O     0.74480   0.41892   0.76945   0.00000  Uiso   1.00
O906   O     0.75520   0.58108   0.89721   0.00000  Uiso   1.00
O907   O     0.68936   0.50488   0.88524   0.00000  Uiso   1.00
O908   O     0.81065   0.49512   0.78143   0.00000  Uiso   1.00
O909   O     0.68090   0.49510   0.78143   0.00000  Uiso   1.00
O910   O     0.81910   0.50490   0.88523   0.00000  Uiso   1.00
Cl911  Cl    0.88628   0.60907   0.85212   0.00000  Uiso   1.00
Cl912  Cl    0.61372   0.39093   0.81454   0.00000  Uiso   1.00
Cl913  Cl    0.70361   0.64194   0.74738   0.00000  Uiso   1.00
Cl914  Cl    0.79639   0.35806   0.91928   0.00000  Uiso   1.00
C915   C     0.69530   0.45645   0.97996   0.00000  Uiso   1.00
C916   C     0.68251   0.40486   0.99753   0.00000  Uiso   1.00
H917   H     0.71126   0.38093   0.99396   0.00000  Uiso   1.00
H918   H     0.67098   0.41127   0.70993   0.00000  Uiso   1.00
H919   H     0.65381   0.38160   0.96540   0.00000  Uiso   1.00
H920   H     0.66751   0.48165   0.98729   0.00000  Uiso   1.00
H921   H     0.69794   0.44229   0.93198   0.00000  Uiso   1.00
C922   C     0.80470   0.54354   0.68670   0.00000  Uiso   1.00
C923   C     0.81750   0.59513   0.66914   0.00000  Uiso   1.00
H924   H     0.82903   0.58872   0.95673   0.00000  Uiso   1.00
H925   H     0.78876   0.61907   0.67271   0.00000  Uiso   1.00
H926   H     0.84621   0.61838   0.70126   0.00000  Uiso   1.00
H927   H     0.80206   0.55771   0.73468   0.00000  Uiso   1.00
H928   H     0.83249   0.51834   0.67938   0.00000  Uiso   1.00
C929   C     0.24816   0.73343   0.81790   0.00000  Uiso   1.00
C930   C     0.25184   0.93324   0.84877   0.00000  Uiso   1.00
C931   C     0.01244   0.73694   0.81375   0.00000  Uiso   1.00
C932   C     0.48756   0.92972   0.85292   0.00000  Uiso   1.00
C933   C     0.24152   0.67740   0.81106   0.00000  Uiso   1.00
C934   C     0.25848   0.98926   0.85560   0.00000  Uiso   1.00
C935   C     0.16474   0.83283   0.83373   0.00000  Uiso   1.00
C936   C     0.33526   0.83384   0.83294   0.00000  Uiso   1.00
C937   C     0.41120   0.88283   0.84166   0.00000  Uiso   1.00
C938   C     0.08880   0.78384   0.82501   0.00000  Uiso   1.00
C939   C     0.38347   0.83477   0.83204   0.00000  Uiso   1.00
C940   C     0.11653   0.83190   0.83463   0.00000  Uiso   1.00
C941   C     0.40149   0.78691   0.82244   0.00000  Uiso   1.00
C942   C     0.09851   0.87976   0.84423   0.00000  Uiso   1.00
C943   C     0.44788   0.78603   0.82271   0.00000  Uiso   1.00
C944   C     0.05212   0.88064   0.84396   0.00000  Uiso   1.00
C945   C     0.47652   0.83385   0.83297   0.00000  Uiso   1.00
C946   C     0.02348   0.83282   0.83369   0.00000  Uiso   1.00
C947   C     0.45825   0.88263   0.84253   0.00000  Uiso   1.00
C948   C     0.04175   0.78404   0.82414   0.00000  Uiso   1.00
C949   C     0.46599   0.73801   0.81306   0.00000  Uiso   1.00
C950   C     0.03401   0.92866   0.85360   0.00000  Uiso   1.00
Cu951  Cu    0.25501   0.83913   0.89479   0.00000  Uiso   1.00
Cu952  Cu    0.24500   0.82754   0.77187   0.00000  Uiso   1.00
H953   H     0.37919   0.75037   0.81507   0.00000  Uiso   1.00
H954   H     0.12081   0.91630   0.85160   0.00000  Uiso   1.00
H955   H     0.44415   0.70114   0.80488   0.00000  Uiso   1.00
H956   H     0.05585   0.96552   0.86179   0.00000  Uiso   1.00
H957   H     0.02497   0.69895   0.80584   0.00000  Uiso   1.00
H958   H     0.47503   0.96772   0.86083   0.00000  Uiso   1.00
N959   N     0.23745   0.81881   0.67951   0.00000  Uiso   1.00
N960   N     0.26256   0.84786   0.98716   0.00000  Uiso   1.00
O961   O     0.25326   0.76204   0.87326   0.00000  Uiso   1.00
O962   O     0.24675   0.90462   0.79341   0.00000  Uiso   1.00
O963   O     0.24480   0.75226   0.76945   0.00000  Uiso   1.00
O964   O     0.25520   0.91441   0.89721   0.00000  Uiso   1.00
O965   O     0.18936   0.83821   0.88524   0.00000  Uiso   1.00
O966   O     0.31065   0.82845   0.78143   0.00000  Uiso   1.00
O967   O     0.18090   0.82843   0.78143   0.00000  Uiso   1.00
O968   O     0.31910   0.83824   0.88523   0.00000  Uiso   1.00
Cl969  Cl    0.38628   0.94241   0.85212   0.00000  Uiso   1.00
Cl970  Cl    0.11372   0.72426   0.81454   0.00000  Uiso   1.00
Cl971  Cl    0.20361   0.97527   0.74738   0.00000  Uiso   1.00
Cl972  Cl    0.29639   0.69139   0.91928   0.00000  Uiso   1.00
C973   C     0.19530   0.78979   0.97996   0.00000  Uiso   1.00
C974   C     0.18251   0.73819   0.99753   0.00000  Uiso   1.00
H975   H     0.21126   0.71427   0.99396   0.00000  Uiso   1.00
H976   H     0.17098   0.74460   0.70993   0.00000  Uiso   1.00
H977   H     0.15381   0.71494   0.96540   0.00000  Uiso   1.00
H978   H     0.16751   0.81499   0.98729   0.00000  Uiso   1.00
H979   H     0.19794   0.77563   0.93198   0.00000  Uiso   1.00
C980   C     0.30470   0.87687   0.68670   0.00000  Uiso   1.00
C981   C     0.31750   0.92847   0.66914   0.00000  Uiso   1.00
H982   H     0.32903   0.92206   0.95673   0.00000  Uiso   1.00
H983   H     0.28876   0.95241   0.67271   0.00000  Uiso   1.00
H984   H     0.34621   0.95172   0.70126   0.00000  Uiso   1.00
H985   H     0.30206   0.89104   0.73468   0.00000  Uiso   1.00
H986   H     0.33249   0.85167   0.67938   0.00000  Uiso   1.00
C987   C     0.74816   0.73343   0.81790   0.00000  Uiso   1.00
C988   C     0.75184   0.93324   0.84877   0.00000  Uiso   1.00
C989   C     0.51244   0.73694   0.81375   0.00000  Uiso   1.00
C990   C     0.98756   0.92972   0.85292   0.00000  Uiso   1.00
C991   C     0.74152   0.67740   0.81106   0.00000  Uiso   1.00
C992   C     0.75848   0.98926   0.85560   0.00000  Uiso   1.00
C993   C     0.66474   0.83283   0.83373   0.00000  Uiso   1.00
C994   C     0.83526   0.83384   0.83294   0.00000  Uiso   1.00
C995   C     0.91120   0.88283   0.84166   0.00000  Uiso   1.00
C996   C     0.58880   0.78384   0.82501   0.00000  Uiso   1.00
C997   C     0.88347   0.83477   0.83204   0.00000  Uiso   1.00
C998   C     0.61653   0.83190   0.83463   0.00000  Uiso   1.00
C999   C     0.90149   0.78691   0.82244   0.00000  Uiso   1.00
C1000  C     0.59851   0.87976   0.84423   0.00000  Uiso   1.00
C1001  C     0.94788   0.78603   0.82271   0.00000  Uiso   1.00
C1002  C     0.55212   0.88064   0.84396   0.00000  Uiso   1.00
C1003  C     0.97652   0.83385   0.83297   0.00000  Uiso   1.00
C1004  C     0.52348   0.83282   0.83369   0.00000  Uiso   1.00
C1005  C     0.95825   0.88263   0.84253   0.00000  Uiso   1.00
C1006  C     0.54175   0.78404   0.82414   0.00000  Uiso   1.00
C1007  C     0.96599   0.73801   0.81306   0.00000  Uiso   1.00
C1008  C     0.53401   0.92866   0.85360   0.00000  Uiso   1.00
Cu1009 Cu    0.75501   0.83913   0.89479   0.00000  Uiso   1.00
Cu1010 Cu    0.74500   0.82754   0.77187   0.00000  Uiso   1.00
H1011  H     0.87919   0.75037   0.81507   0.00000  Uiso   1.00
H1012  H     0.62081   0.91630   0.85160   0.00000  Uiso   1.00
H1013  H     0.94415   0.70114   0.80488   0.00000  Uiso   1.00
H1014  H     0.55585   0.96552   0.86179   0.00000  Uiso   1.00
H1015  H     0.52497   0.69895   0.80584   0.00000  Uiso   1.00
H1016  H     0.97503   0.96772   0.86083   0.00000  Uiso   1.00
N1017  N     0.73745   0.81881   0.67951   0.00000  Uiso   1.00
N1018  N     0.76256   0.84786   0.98716   0.00000  Uiso   1.00
O1019  O     0.75326   0.76204   0.87326   0.00000  Uiso   1.00
O1020  O     0.74675   0.90462   0.79341   0.00000  Uiso   1.00
O1021  O     0.74480   0.75226   0.76945   0.00000  Uiso   1.00
O1022  O     0.75520   0.91441   0.89721   0.00000  Uiso   1.00
O1023  O     0.68936   0.83821   0.88524   0.00000  Uiso   1.00
O1024  O     0.81065   0.82845   0.78143   0.00000  Uiso   1.00
O1025  O     0.68090   0.82843   0.78143   0.00000  Uiso   1.00
O1026  O     0.81910   0.83824   0.88523   0.00000  Uiso   1.00
Cl1027 Cl    0.88628   0.94241   0.85212   0.00000  Uiso   1.00
Cl1028 Cl    0.61372   0.72426   0.81454   0.00000  Uiso   1.00
Cl1029 Cl    0.70361   0.97527   0.74738   0.00000  Uiso   1.00
Cl1030 Cl    0.79639   0.69139   0.91928   0.00000  Uiso   1.00
C1031  C     0.69530   0.78979   0.97996   0.00000  Uiso   1.00
C1032  C     0.68251   0.73819   0.99753   0.00000  Uiso   1.00
H1033  H     0.71126   0.71427   0.99396   0.00000  Uiso   1.00
H1034  H     0.67098   0.74460   0.70993   0.00000  Uiso   1.00
H1035  H     0.65381   0.71494   0.96540   0.00000  Uiso   1.00
H1036  H     0.66751   0.81499   0.98729   0.00000  Uiso   1.00
H1037  H     0.69794   0.77563   0.93198   0.00000  Uiso   1.00
C1038  C     0.80470   0.87687   0.68670   0.00000  Uiso   1.00
C1039  C     0.81750   0.92847   0.66914   0.00000  Uiso   1.00
H1040  H     0.82903   0.92206   0.95673   0.00000  Uiso   1.00
H1041  H     0.78876   0.95241   0.67271   0.00000  Uiso   1.00
H1042  H     0.84621   0.95172   0.70126   0.00000  Uiso   1.00
H1043  H     0.80206   0.89104   0.73468   0.00000  Uiso   1.00
H1044  H     0.83249   0.85167   0.67938   0.00000  Uiso   1.00
loop_
_geom_bond_atom_site_label_1
_geom_bond_atom_site_label_2
_geom_bond_distance
_geom_bond_site_symmetry_2
_ccdc_geom_bond_type
C1     O33     1.296   .     A
C1     C5      1.437   .     S
C1     O35     1.312   .     A
C2     O34     1.296   .     A
C2     C6      1.437   .     S
C2     O36     1.312   .     A
C3     C20     1.406   .     A
C3     H29     1.081   .     S
C3     C79     1.392   1_455 S
C4     C19     1.406   .     A
C4     H30     1.081   .     S
C4     C80     1.392   .     S
C5     C238    1.360   1_545 S
C5     Cl275   1.778   1_545 S
C6     C121    1.360   .     S
C6     Cl160   1.777   .     S
C7     O37     1.306   .     A
C7     C12     1.442   .     S
C7     O39     1.305   .     A
C8     O38     1.306   .     A
C8     C11     1.442   .     S
C8     O40     1.305   .     A
C9     Cl41    1.773   .     S
C9     C11     1.404   .     A
C9     C19     1.407   .     A
C10    C20     1.407   .     A
C10    Cl42    1.773   .     S
C10    C12     1.404   .     A
C11    C13     1.393   .     A
C12    C14     1.393   .     A
C13    H25     1.086   .     S
C13    C15     1.390   .     A
C14    H26     1.086   .     S
C14    C16     1.390   .     A
C15    C17     1.411   .     A
C15    C21     1.399   .     A
C16    C18     1.411   .     A
C16    C22     1.399   .     A
C17    C19     1.419   .     A
C17    C76     1.407   .     S
C18    C20     1.419   .     A
C18    C75     1.407   1_455 S
C21    H27     1.084   .     S
C21    C61     1.392   .     S
C22    H28     1.084   .     S
C22    C62     1.392   1_455 S
Cu23   Cu24    2.733   .     S
Cu23   O37     1.956   .     S
Cu23   N32     2.054   .     S
Cu23   O40     1.949   .     S
Cu23   O36     1.966   .     S
Cu23   O33     1.964   .     S
Cu24   O38     1.956   .     S
Cu24   N31     2.054   .     S
Cu24   O35     1.966   .     S
Cu24   O39     1.949   .     S
Cu24   O34     1.964   .     S
N31    N728    1.288   1_554 S
N31    C741    1.459   1_554 S
N32    N379    1.288   .     S
N32    C400    1.459   .     S
Cl43   C121    1.778   .     S
Cl44   C238    1.777   1_545 S
C45    H50     1.111   .     S
C45    H51     1.080   .     S
C45    C46     1.525   .     S
C45    N379    1.459   .     S
C46    H49     1.112   .     S
C46    H47     1.110   .     S
C46    H396    1.104   .     S
H48    C742    1.104   1_554 S
C52    H58     1.111   .     S
C52    H57     1.080   .     S
C52    C53     1.525   .     S
C52    N728    1.459   1_554 S
C53    H55     1.110   .     S
C53    H56     1.112   .     S
C53    H750    1.104   1_554 S
H54    C401    1.104   .     S
C59    O91     1.296   .     A
C59    C63     1.437   .     S
C59    O93     1.312   .     A
C60    O92     1.296   .     A
C60    C64     1.437   .     S
C60    O94     1.312   .     A
C61    C78     1.406   .     A
C61    H87     1.081   .     S
C62    C77     1.406   .     A
C62    H88     1.081   .     S
C62    C22     1.392   1_655 S
C63    C296    1.360   1_545 S
C63    Cl333   1.778   1_545 S
C64    C179    1.360   .     S
C64    Cl218   1.777   .     S
C65    O95     1.306   .     A
C65    C70     1.442   .     S
C65    O97     1.305   .     A
C66    O96     1.306   .     A
C66    C69     1.442   .     S
C66    O98     1.305   .     A
C67    Cl99    1.773   .     S
C67    C69     1.404   .     A
C67    C77     1.407   .     A
C68    C78     1.407   .     A
C68    Cl100   1.773   .     S
C68    C70     1.404   .     A
C69    C71     1.393   .     A
C70    C72     1.393   .     A
C71    H83     1.086   .     S
C71    C73     1.390   .     A
C72    H84     1.086   .     S
C72    C74     1.390   .     A
C73    C75     1.411   .     A
C73    C79     1.399   .     A
C74    C76     1.411   .     A
C74    C80     1.399   .     A
C75    C77     1.419   .     A
C75    C18     1.407   1_655 S
C76    C78     1.419   .     A
C79    H85     1.084   .     S
C79    C3      1.392   1_655 S
C80    H86     1.084   .     S
Cu81   Cu82    2.733   .     S
Cu81   O95     1.956   .     S
Cu81   N90     2.054   .     S
Cu81   O98     1.949   .     S
Cu81   O94     1.966   .     S
Cu81   O91     1.964   .     S
Cu82   O96     1.956   .     S
Cu82   N89     2.054   .     S
Cu82   O93     1.966   .     S
Cu82   O97     1.949   .     S
Cu82   O92     1.964   .     S
N89    N786    1.288   1_554 S
N89    C799    1.459   1_554 S
N90    N437    1.288   .     S
N90    C458    1.459   .     S
Cl101  C179    1.778   .     S
Cl102  C296    1.777   1_545 S
C103   H108    1.111   .     S
C103   H109    1.080   .     S
C103   C104    1.525   .     S
C103   N437    1.459   .     S
C104   H107    1.112   .     S
C104   H105    1.110   .     S
C104   H454    1.104   .     S
H106   C800    1.104   1_554 S
C110   H116    1.111   .     S
C110   H115    1.080   .     S
C110   C111    1.525   .     S
C110   N786    1.459   1_554 S
C111   H113    1.110   .     S
C111   H114    1.112   .     S
C111   H808    1.104   1_554 S
H112   C459    1.104   .     S
C117   O149    1.296   .     A
C117   C121    1.437   .     S
C117   O151    1.312   .     A
C118   O150    1.296   .     A
C118   C122    1.437   .     S
C118   O152    1.312   .     A
C119   C136    1.406   .     A
C119   H145    1.081   .     S
C119   C195    1.392   1_455 S
C120   C135    1.406   .     A
C120   H146    1.081   .     S
C120   C196    1.392   .     S
C122   C237    1.360   .     S
C122   Cl276   1.777   .     S
C123   O153    1.306   .     A
C123   C128    1.442   .     S
C123   O155    1.305   .     A
C124   O154    1.306   .     A
C124   C127    1.442   .     S
C124   O156    1.305   .     A
C125   Cl157   1.773   .     S
C125   C127    1.404   .     A
C125   C135    1.407   .     A
C126   C136    1.407   .     A
C126   Cl158   1.773   .     S
C126   C128    1.404   .     A
C127   C129    1.393   .     A
C128   C130    1.393   .     A
C129   H141    1.086   .     S
C129   C131    1.390   .     A
C130   H142    1.086   .     S
C130   C132    1.390   .     A
C131   C133    1.411   .     A
C131   C137    1.399   .     A
C132   C134    1.411   .     A
C132   C138    1.399   .     A
C133   C135    1.419   .     A
C133   C192    1.407   .     S
C134   C136    1.419   .     A
C134   C191    1.407   1_455 S
C137   H143    1.084   .     S
C137   C177    1.392   .     S
C138   H144    1.084   .     S
C138   C178    1.392   1_455 S
Cu139  Cu140   2.733   .     S
Cu139  O153    1.956   .     S
Cu139  N148    2.054   .     S
Cu139  O156    1.949   .     S
Cu139  O152    1.966   .     S
Cu139  O149    1.964   .     S
Cu140  O154    1.956   .     S
Cu140  N147    2.054   .     S
Cu140  O151    1.966   .     S
Cu140  O155    1.949   .     S
Cu140  O150    1.964   .     S
N147   N844    1.288   1_554 S
N147   C857    1.459   1_554 S
N148   N495    1.288   .     S
N148   C516    1.459   .     S
Cl159  C237    1.778   .     S
C161   H166    1.111   .     S
C161   H167    1.080   .     S
C161   C162    1.525   .     S
C161   N495    1.459   .     S
C162   H165    1.112   .     S
C162   H163    1.110   .     S
C162   H512    1.104   .     S
H164   C858    1.104   1_554 S
C168   H174    1.111   .     S
C168   H173    1.080   .     S
C168   C169    1.525   .     S
C168   N844    1.459   1_554 S
C169   H171    1.110   .     S
C169   H172    1.112   .     S
C169   H866    1.104   1_554 S
H170   C517    1.104   .     S
C175   O207    1.296   .     A
C175   C179    1.437   .     S
C175   O209    1.312   .     A
C176   O208    1.296   .     A
C176   C180    1.437   .     S
C176   O210    1.312   .     A
C177   C194    1.406   .     A
C177   H203    1.081   .     S
C178   C193    1.406   .     A
C178   H204    1.081   .     S
C178   C138    1.392   1_655 S
C180   C295    1.360   .     S
C180   Cl334   1.777   .     S
C181   O211    1.306   .     A
C181   C186    1.442   .     S
C181   O213    1.305   .     A
C182   O212    1.306   .     A
C182   C185    1.442   .     S
C182   O214    1.305   .     A
C183   Cl215   1.773   .     S
C183   C185    1.404   .     A
C183   C193    1.407   .     A
C184   C194    1.407   .     A
C184   Cl216   1.773   .     S
C184   C186    1.404   .     A
C185   C187    1.393   .     A
C186   C188    1.393   .     A
C187   H199    1.086   .     S
C187   C189    1.390   .     A
C188   H200    1.086   .     S
C188   C190    1.390   .     A
C189   C191    1.411   .     A
C189   C195    1.399   .     A
C190   C192    1.411   .     A
C190   C196    1.399   .     A
C191   C193    1.419   .     A
C191   C134    1.407   1_655 S
C192   C194    1.419   .     A
C195   H201    1.084   .     S
C195   C119    1.392   1_655 S
C196   H202    1.084   .     S
Cu197  Cu198   2.733   .     S
Cu197  O211    1.956   .     S
Cu197  N206    2.054   .     S
Cu197  O214    1.949   .     S
Cu197  O210    1.966   .     S
Cu197  O207    1.964   .     S
Cu198  O212    1.956   .     S
Cu198  N205    2.054   .     S
Cu198  O209    1.966   .     S
Cu198  O213    1.949   .     S
Cu198  O208    1.964   .     S
N205   N902    1.288   1_554 S
N205   C915    1.459   1_554 S
N206   N553    1.288   .     S
N206   C574    1.459   .     S
Cl217  C295    1.778   .     S
C219   H224    1.111   .     S
C219   H225    1.080   .     S
C219   C220    1.525   .     S
C219   N553    1.459   .     S
C220   H223    1.112   .     S
C220   H221    1.110   .     S
C220   H570    1.104   .     S
H222   C916    1.104   1_554 S
C226   H232    1.111   .     S
C226   H231    1.080   .     S
C226   C227    1.525   .     S
C226   N902    1.459   1_554 S
C227   H229    1.110   .     S
C227   H230    1.112   .     S
C227   H924    1.104   1_554 S
H228   C575    1.104   .     S
C233   O265    1.296   .     A
C233   C237    1.437   .     S
C233   O267    1.312   .     A
C234   O266    1.296   .     A
C234   C238    1.437   .     S
C234   O268    1.312   .     A
C235   C252    1.406   .     A
C235   H261    1.081   .     S
C235   C311    1.392   1_455 S
C236   C251    1.406   .     A
C236   H262    1.081   .     S
C236   C312    1.392   .     S
C238   C5      1.360   1_565 S
C238   Cl44    1.777   1_565 S
C239   O269    1.306   .     A
C239   C244    1.442   .     S
C239   O271    1.305   .     A
C240   O270    1.306   .     A
C240   C243    1.442   .     S
C240   O272    1.305   .     A
C241   Cl273   1.773   .     S
C241   C243    1.404   .     A
C241   C251    1.407   .     A
C242   C252    1.407   .     A
C242   Cl274   1.773   .     S
C242   C244    1.404   .     A
C243   C245    1.393   .     A
C244   C246    1.393   .     A
C245   H257    1.086   .     S
C245   C247    1.390   .     A
C246   H258    1.086   .     S
C246   C248    1.390   .     A
C247   C249    1.411   .     A
C247   C253    1.399   .     A
C248   C250    1.411   .     A
C248   C254    1.399   .     A
C249   C251    1.419   .     A
C249   C308    1.407   .     S
C250   C252    1.419   .     A
C250   C307    1.407   1_455 S
C253   H259    1.084   .     S
C253   C293    1.392   .     S
C254   H260    1.084   .     S
C254   C294    1.392   1_455 S
Cu255  Cu256   2.733   .     S
Cu255  O269    1.956   .     S
Cu255  N264    2.054   .     S
Cu255  O272    1.949   .     S
Cu255  O268    1.966   .     S
Cu255  O265    1.964   .     S
Cu256  O270    1.956   .     S
Cu256  N263    2.054   .     S
Cu256  O267    1.966   .     S
Cu256  O271    1.949   .     S
Cu256  O266    1.964   .     S
N263   N960    1.288   1_554 S
N263   C973    1.459   1_554 S
N264   N611    1.288   .     S
N264   C632    1.459   .     S
Cl275  C5      1.778   1_565 S
C277   H282    1.111   .     S
C277   H283    1.080   .     S
C277   C278    1.525   .     S
C277   N611    1.459   .     S
C278   H281    1.112   .     S
C278   H279    1.110   .     S
C278   H628    1.104   .     S
H280   C974    1.104   1_554 S
C284   H290    1.111   .     S
C284   H289    1.080   .     S
C284   C285    1.525   .     S
C284   N960    1.459   1_554 S
C285   H287    1.110   .     S
C285   H288    1.112   .     S
C285   H982    1.104   1_554 S
H286   C633    1.104   .     S
C291   O323    1.296   .     A
C291   C295    1.437   .     S
C291   O325    1.312   .     A
C292   O324    1.296   .     A
C292   C296    1.437   .     S
C292   O326    1.312   .     A
C293   C310    1.406   .     A
C293   H319    1.081   .     S
C294   C309    1.406   .     A
C294   H320    1.081   .     S
C294   C254    1.392   1_655 S
C296   C63     1.360   1_565 S
C296   Cl102   1.777   1_565 S
C297   O327    1.306   .     A
C297   C302    1.442   .     S
C297   O329    1.305   .     A
C298   O328    1.306   .     A
C298   C301    1.442   .     S
C298   O330    1.305   .     A
C299   Cl331   1.773   .     S
C299   C301    1.404   .     A
C299   C309    1.407   .     A
C300   C310    1.407   .     A
C300   Cl332   1.773   .     S
C300   C302    1.404   .     A
C301   C303    1.393   .     A
C302   C304    1.393   .     A
C303   H315    1.086   .     S
C303   C305    1.390   .     A
C304   H316    1.086   .     S
C304   C306    1.390   .     A
C305   C307    1.411   .     A
C305   C311    1.399   .     A
C306   C308    1.411   .     A
C306   C312    1.399   .     A
C307   C309    1.419   .     A
C307   C250    1.407   1_655 S
C308   C310    1.419   .     A
C311   H317    1.084   .     S
C311   C235    1.392   1_655 S
C312   H318    1.084   .     S
Cu313  Cu314   2.733   .     S
Cu313  O327    1.956   .     S
Cu313  N322    2.054   .     S
Cu313  O330    1.949   .     S
Cu313  O326    1.966   .     S
Cu313  O323    1.964   .     S
Cu314  O328    1.956   .     S
Cu314  N321    2.054   .     S
Cu314  O325    1.966   .     S
Cu314  O329    1.949   .     S
Cu314  O324    1.964   .     S
N321   N1018   1.288   1_554 S
N321   C1031   1.459   1_554 S
N322   N669    1.288   .     S
N322   C690    1.459   .     S
Cl333  C63     1.778   1_565 S
C335   H340    1.111   .     S
C335   H341    1.080   .     S
C335   C336    1.525   .     S
C335   N669    1.459   .     S
C336   H339    1.112   .     S
C336   H337    1.110   .     S
C336   H686    1.104   .     S
H338   C1032   1.104   1_554 S
C342   H348    1.111   .     S
C342   H347    1.080   .     S
C342   C343    1.525   .     S
C342   N1018   1.459   1_554 S
C343   H345    1.110   .     S
C343   H346    1.112   .     S
C343   H1040   1.104   1_554 S
H344   C691    1.104   .     S
C349   O381    1.296   .     A
C349   C353    1.437   .     S
C349   O383    1.312   .     A
C350   O382    1.296   .     A
C350   C354    1.437   .     S
C350   O384    1.312   .     A
C351   C368    1.406   .     A
C351   H377    1.081   .     S
C351   C427    1.392   1_455 S
C352   C367    1.406   .     A
C352   H378    1.081   .     S
C352   C428    1.392   .     S
C353   C586    1.360   1_545 S
C353   Cl623   1.778   1_545 S
C354   C469    1.360   .     S
C354   Cl508   1.777   .     S
C355   O385    1.306   .     A
C355   C360    1.442   .     S
C355   O387    1.305   .     A
C356   O386    1.306   .     A
C356   C359    1.442   .     S
C356   O388    1.305   .     A
C357   Cl389   1.773   .     S
C357   C359    1.404   .     A
C357   C367    1.407   .     A
C358   C368    1.407   .     A
C358   Cl390   1.773   .     S
C358   C360    1.404   .     A
C359   C361    1.393   .     A
C360   C362    1.393   .     A
C361   H373    1.086   .     S
C361   C363    1.390   .     A
C362   H374    1.086   .     S
C362   C364    1.390   .     A
C363   C365    1.411   .     A
C363   C369    1.399   .     A
C364   C366    1.411   .     A
C364   C370    1.399   .     A
C365   C367    1.419   .     A
C365   C424    1.407   .     S
C366   C368    1.419   .     A
C366   C423    1.407   1_455 S
C369   H375    1.084   .     S
C369   C409    1.392   .     S
C370   H376    1.084   .     S
C370   C410    1.392   1_455 S
Cu371  Cu372   2.733   .     S
Cu371  O385    1.956   .     S
Cu371  N380    2.054   .     S
Cu371  O388    1.949   .     S
Cu371  O384    1.966   .     S
Cu371  O381    1.964   .     S
Cu372  O386    1.956   .     S
Cu372  N379    2.054   .     S
Cu372  O383    1.966   .     S
Cu372  O387    1.949   .     S
Cu372  O382    1.964   .     S
N380   N727    1.288   .     S
N380   C748    1.459   .     S
Cl391  C469    1.778   .     S
Cl392  C586    1.777   1_545 S
C393   H398    1.111   .     S
C393   H399    1.080   .     S
C393   C394    1.525   .     S
C393   N727    1.459   .     S
C394   H397    1.112   .     S
C394   H395    1.110   .     S
C394   H744    1.104   .     S
C400   H406    1.111   .     S
C400   H405    1.080   .     S
C400   C401    1.525   .     S
C401   H403    1.110   .     S
C401   H404    1.112   .     S
H402   C749    1.104   .     S
C407   O439    1.296   .     A
C407   C411    1.437   .     S
C407   O441    1.312   .     A
C408   O440    1.296   .     A
C408   C412    1.437   .     S
C408   O442    1.312   .     A
C409   C426    1.406   .     A
C409   H435    1.081   .     S
C410   C425    1.406   .     A
C410   H436    1.081   .     S
C410   C370    1.392   1_655 S
C411   C644    1.360   1_545 S
C411   Cl681   1.778   1_545 S
C412   C527    1.360   .     S
C412   Cl566   1.777   .     S
C413   O443    1.306   .     A
C413   C418    1.442   .     S
C413   O445    1.305   .     A
C414   O444    1.306   .     A
C414   C417    1.442   .     S
C414   O446    1.305   .     A
C415   Cl447   1.773   .     S
C415   C417    1.404   .     A
C415   C425    1.407   .     A
C416   C426    1.407   .     A
C416   Cl448   1.773   .     S
C416   C418    1.404   .     A
C417   C419    1.393   .     A
C418   C420    1.393   .     A
C419   H431    1.086   .     S
C419   C421    1.390   .     A
C420   H432    1.086   .     S
C420   C422    1.390   .     A
C421   C423    1.411   .     A
C421   C427    1.399   .     A
C422   C424    1.411   .     A
C422   C428    1.399   .     A
C423   C425    1.419   .     A
C423   C366    1.407   1_655 S
C424   C426    1.419   .     A
C427   H433    1.084   .     S
C427   C351    1.392   1_655 S
C428   H434    1.084   .     S
Cu429  Cu430   2.733   .     S
Cu429  O443    1.956   .     S
Cu429  N438    2.054   .     S
Cu429  O446    1.949   .     S
Cu429  O442    1.966   .     S
Cu429  O439    1.964   .     S
Cu430  O444    1.956   .     S
Cu430  N437    2.054   .     S
Cu430  O441    1.966   .     S
Cu430  O445    1.949   .     S
Cu430  O440    1.964   .     S
N438   N785    1.288   .     S
N438   C806    1.459   .     S
Cl449  C527    1.778   .     S
Cl450  C644    1.777   1_545 S
C451   H456    1.111   .     S
C451   H457    1.080   .     S
C451   C452    1.525   .     S
C451   N785    1.459   .     S
C452   H455    1.112   .     S
C452   H453    1.110   .     S
C452   H802    1.104   .     S
C458   H464    1.111   .     S
C458   H463    1.080   .     S
C458   C459    1.525   .     S
C459   H461    1.110   .     S
C459   H462    1.112   .     S
H460   C807    1.104   .     S
C465   O497    1.296   .     A
C465   C469    1.437   .     S
C465   O499    1.312   .     A
C466   O498    1.296   .     A
C466   C470    1.437   .     S
C466   O500    1.312   .     A
C467   C484    1.406   .     A
C467   H493    1.081   .     S
C467   C543    1.392   1_455 S
C468   C483    1.406   .     A
C468   H494    1.081   .     S
C468   C544    1.392   .     S
C470   C585    1.360   .     S
C470   Cl624   1.777   .     S
C471   O501    1.306   .     A
C471   C476    1.442   .     S
C471   O503    1.305   .     A
C472   O502    1.306   .     A
C472   C475    1.442   .     S
C472   O504    1.305   .     A
C473   Cl505   1.773   .     S
C473   C475    1.404   .     A
C473   C483    1.407   .     A
C474   C484    1.407   .     A
C474   Cl506   1.773   .     S
C474   C476    1.404   .     A
C475   C477    1.393   .     A
C476   C478    1.393   .     A
C477   H489    1.086   .     S
C477   C479    1.390   .     A
C478   H490    1.086   .     S
C478   C480    1.390   .     A
C479   C481    1.411   .     A
C479   C485    1.399   .     A
C480   C482    1.411   .     A
C480   C486    1.399   .     A
C481   C483    1.419   .     A
C481   C540    1.407   .     S
C482   C484    1.419   .     A
C482   C539    1.407   1_455 S
C485   H491    1.084   .     S
C485   C525    1.392   .     S
C486   H492    1.084   .     S
C486   C526    1.392   1_455 S
Cu487  Cu488   2.733   .     S
Cu487  O501    1.956   .     S
Cu487  N496    2.054   .     S
Cu487  O504    1.949   .     S
Cu487  O500    1.966   .     S
Cu487  O497    1.964   .     S
Cu488  O502    1.956   .     S
Cu488  N495    2.054   .     S
Cu488  O499    1.966   .     S
Cu488  O503    1.949   .     S
Cu488  O498    1.964   .     S
N496   N843    1.288   .     S
N496   C864    1.459   .     S
Cl507  C585    1.778   .     S
C509   H514    1.111   .     S
C509   H515    1.080   .     S
C509   C510    1.525   .     S
C509   N843    1.459   .     S
C510   H513    1.112   .     S
C510   H511    1.110   .     S
C510   H860    1.104   .     S
C516   H522    1.111   .     S
C516   H521    1.080   .     S
C516   C517    1.525   .     S
C517   H519    1.110   .     S
C517   H520    1.112   .     S
H518   C865    1.104   .     S
C523   O555    1.296   .     A
C523   C527    1.437   .     S
C523   O557    1.312   .     A
C524   O556    1.296   .     A
C524   C528    1.437   .     S
C524   O558    1.312   .     A
C525   C542    1.406   .     A
C525   H551    1.081   .     S
C526   C541    1.406   .     A
C526   H552    1.081   .     S
C526   C486    1.392   1_655 S
C528   C643    1.360   .     S
C528   Cl682   1.777   .     S
C529   O559    1.306   .     A
C529   C534    1.442   .     S
C529   O561    1.305   .     A
C530   O560    1.306   .     A
C530   C533    1.442   .     S
C530   O562    1.305   .     A
C531   Cl563   1.773   .     S
C531   C533    1.404   .     A
C531   C541    1.407   .     A
C532   C542    1.407   .     A
C532   Cl564   1.773   .     S
C532   C534    1.404   .     A
C533   C535    1.393   .     A
C534   C536    1.393   .     A
C535   H547    1.086   .     S
C535   C537    1.390   .     A
C536   H548    1.086   .     S
C536   C538    1.390   .     A
C537   C539    1.411   .     A
C537   C543    1.399   .     A
C538   C540    1.411   .     A
C538   C544    1.399   .     A
C539   C541    1.419   .     A
C539   C482    1.407   1_655 S
C540   C542    1.419   .     A
C543   H549    1.084   .     S
C543   C467    1.392   1_655 S
C544   H550    1.084   .     S
Cu545  Cu546   2.733   .     S
Cu545  O559    1.956   .     S
Cu545  N554    2.054   .     S
Cu545  O562    1.949   .     S
Cu545  O558    1.966   .     S
Cu545  O555    1.964   .     S
Cu546  O560    1.956   .     S
Cu546  N553    2.054   .     S
Cu546  O557    1.966   .     S
Cu546  O561    1.949   .     S
Cu546  O556    1.964   .     S
N554   N901    1.288   .     S
N554   C922    1.459   .     S
Cl565  C643    1.778   .     S
C567   H572    1.111   .     S
C567   H573    1.080   .     S
C567   C568    1.525   .     S
C567   N901    1.459   .     S
C568   H571    1.112   .     S
C568   H569    1.110   .     S
C568   H918    1.104   .     S
C574   H580    1.111   .     S
C574   H579    1.080   .     S
C574   C575    1.525   .     S
C575   H577    1.110   .     S
C575   H578    1.112   .     S
H576   C923    1.104   .     S
C581   O613    1.296   .     A
C581   C585    1.437   .     S
C581   O615    1.312   .     A
C582   O614    1.296   .     A
C582   C586    1.437   .     S
C582   O616    1.312   .     A
C583   C600    1.406   .     A
C583   H609    1.081   .     S
C583   C659    1.392   1_455 S
C584   C599    1.406   .     A
C584   H610    1.081   .     S
C584   C660    1.392   .     S
C586   C353    1.360   1_565 S
C586   Cl392   1.777   1_565 S
C587   O617    1.306   .     A
C587   C592    1.442   .     S
C587   O619    1.305   .     A
C588   O618    1.306   .     A
C588   C591    1.442   .     S
C588   O620    1.305   .     A
C589   Cl621   1.773   .     S
C589   C591    1.404   .     A
C589   C599    1.407   .     A
C590   C600    1.407   .     A
C590   Cl622   1.773   .     S
C590   C592    1.404   .     A
C591   C593    1.393   .     A
C592   C594    1.393   .     A
C593   H605    1.086   .     S
C593   C595    1.390   .     A
C594   H606    1.086   .     S
C594   C596    1.390   .     A
C595   C597    1.411   .     A
C595   C601    1.399   .     A
C596   C598    1.411   .     A
C596   C602    1.399   .     A
C597   C599    1.419   .     A
C597   C656    1.407   .     S
C598   C600    1.419   .     A
C598   C655    1.407   1_455 S
C601   H607    1.084   .     S
C601   C641    1.392   .     S
C602   H608    1.084   .     S
C602   C642    1.392   1_455 S
Cu603  Cu604   2.733   .     S
Cu603  O617    1.956   .     S
Cu603  N612    2.054   .     S
Cu603  O620    1.949   .     S
Cu603  O616    1.966   .     S
Cu603  O613    1.964   .     S
Cu604  O618    1.956   .     S
Cu604  N611    2.054   .     S
Cu604  O615    1.966   .     S
Cu604  O619    1.949   .     S
Cu604  O614    1.964   .     S
N612   N959    1.288   .     S
N612   C980    1.459   .     S
Cl623  C353    1.778   1_565 S
C625   H630    1.111   .     S
C625   H631    1.080   .     S
C625   C626    1.525   .     S
C625   N959    1.459   .     S
C626   H629    1.112   .     S
C626   H627    1.110   .     S
C626   H976    1.104   .     S
C632   H638    1.111   .     S
C632   H637    1.080   .     S
C632   C633    1.525   .     S
C633   H635    1.110   .     S
C633   H636    1.112   .     S
H634   C981    1.104   .     S
C639   O671    1.296   .     A
C639   C643    1.437   .     S
C639   O673    1.312   .     A
C640   O672    1.296   .     A
C640   C644    1.437   .     S
C640   O674    1.312   .     A
C641   C658    1.406   .     A
C641   H667    1.081   .     S
C642   C657    1.406   .     A
C642   H668    1.081   .     S
C642   C602    1.392   1_655 S
C644   C411    1.360   1_565 S
C644   Cl450   1.777   1_565 S
C645   O675    1.306   .     A
C645   C650    1.442   .     S
C645   O677    1.305   .     A
C646   O676    1.306   .     A
C646   C649    1.442   .     S
C646   O678    1.305   .     A
C647   Cl679   1.773   .     S
C647   C649    1.404   .     A
C647   C657    1.407   .     A
C648   C658    1.407   .     A
C648   Cl680   1.773   .     S
C648   C650    1.404   .     A
C649   C651    1.393   .     A
C650   C652    1.393   .     A
C651   H663    1.086   .     S
C651   C653    1.390   .     A
C652   H664    1.086   .     S
C652   C654    1.390   .     A
C653   C655    1.411   .     A
C653   C659    1.399   .     A
C654   C656    1.411   .     A
C654   C660    1.399   .     A
C655   C657    1.419   .     A
C655   C598    1.407   1_655 S
C656   C658    1.419   .     A
C659   H665    1.084   .     S
C659   C583    1.392   1_655 S
C660   H666    1.084   .     S
Cu661  Cu662   2.733   .     S
Cu661  O675    1.956   .     S
Cu661  N670    2.054   .     S
Cu661  O678    1.949   .     S
Cu661  O674    1.966   .     S
Cu661  O671    1.964   .     S
Cu662  O676    1.956   .     S
Cu662  N669    2.054   .     S
Cu662  O673    1.966   .     S
Cu662  O677    1.949   .     S
Cu662  O672    1.964   .     S
N670   N1017   1.288   .     S
N670   C1038   1.459   .     S
Cl681  C411    1.778   1_565 S
C683   H688    1.111   .     S
C683   H689    1.080   .     S
C683   C684    1.525   .     S
C683   N1017   1.459   .     S
C684   H687    1.112   .     S
C684   H685    1.110   .     S
C684   H1034   1.104   .     S
C690   H696    1.111   .     S
C690   H695    1.080   .     S
C690   C691    1.525   .     S
C691   H693    1.110   .     S
C691   H694    1.112   .     S
H692   C1039   1.104   .     S
C697   O729    1.296   .     A
C697   C701    1.437   .     S
C697   O731    1.312   .     A
C698   O730    1.296   .     A
C698   C702    1.437   .     S
C698   O732    1.312   .     A
C699   C716    1.406   .     A
C699   H725    1.081   .     S
C699   C775    1.392   1_455 S
C700   C715    1.406   .     A
C700   H726    1.081   .     S
C700   C776    1.392   .     S
C701   C934    1.360   1_545 S
C701   Cl971   1.778   1_545 S
C702   C817    1.360   .     S
C702   Cl856   1.777   .     S
C703   O733    1.306   .     A
C703   C708    1.442   .     S
C703   O735    1.305   .     A
C704   O734    1.306   .     A
C704   C707    1.442   .     S
C704   O736    1.305   .     A
C705   Cl737   1.773   .     S
C705   C707    1.404   .     A
C705   C715    1.407   .     A
C706   C716    1.407   .     A
C706   Cl738   1.773   .     S
C706   C708    1.404   .     A
C707   C709    1.393   .     A
C708   C710    1.393   .     A
C709   H721    1.086   .     S
C709   C711    1.390   .     A
C710   H722    1.086   .     S
C710   C712    1.390   .     A
C711   C713    1.411   .     A
C711   C717    1.399   .     A
C712   C714    1.411   .     A
C712   C718    1.399   .     A
C713   C715    1.419   .     A
C713   C772    1.407   .     S
C714   C716    1.419   .     A
C714   C771    1.407   1_455 S
C717   H723    1.084   .     S
C717   C757    1.392   .     S
C718   H724    1.084   .     S
C718   C758    1.392   1_455 S
Cu719  Cu720   2.733   .     S
Cu719  O733    1.956   .     S
Cu719  N728    2.054   .     S
Cu719  O736    1.949   .     S
Cu719  O732    1.966   .     S
Cu719  O729    1.964   .     S
Cu720  O734    1.956   .     S
Cu720  N727    2.054   .     S
Cu720  O731    1.966   .     S
Cu720  O735    1.949   .     S
Cu720  O730    1.964   .     S
N728   N31     1.288   1_556 S
N728   C52     1.459   1_556 S
Cl739  C817    1.778   .     S
Cl740  C934    1.777   1_545 S
C741   H746    1.111   .     S
C741   H747    1.080   .     S
C741   C742    1.525   .     S
C741   N31     1.459   1_556 S
C742   H745    1.112   .     S
C742   H743    1.110   .     S
C742   H48     1.104   1_556 S
C748   H754    1.111   .     S
C748   H753    1.080   .     S
C748   C749    1.525   .     S
C749   H751    1.110   .     S
C749   H752    1.112   .     S
H750   C53     1.104   1_556 S
C755   O787    1.296   .     A
C755   C759    1.437   .     S
C755   O789    1.312   .     A
C756   O788    1.296   .     A
C756   C760    1.437   .     S
C756   O790    1.312   .     A
C757   C774    1.406   .     A
C757   H783    1.081   .     S
C758   C773    1.406   .     A
C758   H784    1.081   .     S
C758   C718    1.392   1_655 S
C759   C992    1.360   1_545 S
C759   Cl1029  1.778   1_545 S
C760   C875    1.360   .     S
C760   Cl914   1.777   .     S
C761   O791    1.306   .     A
C761   C766    1.442   .     S
C761   O793    1.305   .     A
C762   O792    1.306   .     A
C762   C765    1.442   .     S
C762   O794    1.305   .     A
C763   Cl795   1.773   .     S
C763   C765    1.404   .     A
C763   C773    1.407   .     A
C764   C774    1.407   .     A
C764   Cl796   1.773   .     S
C764   C766    1.404   .     A
C765   C767    1.393   .     A
C766   C768    1.393   .     A
C767   H779    1.086   .     S
C767   C769    1.390   .     A
C768   H780    1.086   .     S
C768   C770    1.390   .     A
C769   C771    1.411   .     A
C769   C775    1.399   .     A
C770   C772    1.411   .     A
C770   C776    1.399   .     A
C771   C773    1.419   .     A
C771   C714    1.407   1_655 S
C772   C774    1.419   .     A
C775   H781    1.084   .     S
C775   C699    1.392   1_655 S
C776   H782    1.084   .     S
Cu777  Cu778   2.733   .     S
Cu777  O791    1.956   .     S
Cu777  N786    2.054   .     S
Cu777  O794    1.949   .     S
Cu777  O790    1.966   .     S
Cu777  O787    1.964   .     S
Cu778  O792    1.956   .     S
Cu778  N785    2.054   .     S
Cu778  O789    1.966   .     S
Cu778  O793    1.949   .     S
Cu778  O788    1.964   .     S
N786   N89     1.288   1_556 S
N786   C110    1.459   1_556 S
Cl797  C875    1.778   .     S
Cl798  C992    1.777   1_545 S
C799   H804    1.111   .     S
C799   H805    1.080   .     S
C799   C800    1.525   .     S
C799   N89     1.459   1_556 S
C800   H803    1.112   .     S
C800   H801    1.110   .     S
C800   H106    1.104   1_556 S
C806   H812    1.111   .     S
C806   H811    1.080   .     S
C806   C807    1.525   .     S
C807   H809    1.110   .     S
C807   H810    1.112   .     S
H808   C111    1.104   1_556 S
C813   O845    1.296   .     A
C813   C817    1.437   .     S
C813   O847    1.312   .     A
C814   O846    1.296   .     A
C814   C818    1.437   .     S
C814   O848    1.312   .     A
C815   C832    1.406   .     A
C815   H841    1.081   .     S
C815   C891    1.392   1_455 S
C816   C831    1.406   .     A
C816   H842    1.081   .     S
C816   C892    1.392   .     S
C818   C933    1.360   .     S
C818   Cl972   1.777   .     S
C819   O849    1.306   .     A
C819   C824    1.442   .     S
C819   O851    1.305   .     A
C820   O850    1.306   .     A
C820   C823    1.442   .     S
C820   O852    1.305   .     A
C821   Cl853   1.773   .     S
C821   C823    1.404   .     A
C821   C831    1.407   .     A
C822   C832    1.407   .     A
C822   Cl854   1.773   .     S
C822   C824    1.404   .     A
C823   C825    1.393   .     A
C824   C826    1.393   .     A
C825   H837    1.086   .     S
C825   C827    1.390   .     A
C826   H838    1.086   .     S
C826   C828    1.390   .     A
C827   C829    1.411   .     A
C827   C833    1.399   .     A
C828   C830    1.411   .     A
C828   C834    1.399   .     A
C829   C831    1.419   .     A
C829   C888    1.407   .     S
C830   C832    1.419   .     A
C830   C887    1.407   1_455 S
C833   H839    1.084   .     S
C833   C873    1.392   .     S
C834   H840    1.084   .     S
C834   C874    1.392   1_455 S
Cu835  Cu836   2.733   .     S
Cu835  O849    1.956   .     S
Cu835  N844    2.054   .     S
Cu835  O852    1.949   .     S
Cu835  O848    1.966   .     S
Cu835  O845    1.964   .     S
Cu836  O850    1.956   .     S
Cu836  N843    2.054   .     S
Cu836  O847    1.966   .     S
Cu836  O851    1.949   .     S
Cu836  O846    1.964   .     S
N844   N147    1.288   1_556 S
N844   C168    1.459   1_556 S
Cl855  C933    1.778   .     S
C857   H862    1.111   .     S
C857   H863    1.080   .     S
C857   C858    1.525   .     S
C857   N147    1.459   1_556 S
C858   H861    1.112   .     S
C858   H859    1.110   .     S
C858   H164    1.104   1_556 S
C864   H870    1.111   .     S
C864   H869    1.080   .     S
C864   C865    1.525   .     S
C865   H867    1.110   .     S
C865   H868    1.112   .     S
H866   C169    1.104   1_556 S
C871   O903    1.296   .     A
C871   C875    1.437   .     S
C871   O905    1.312   .     A
C872   O904    1.296   .     A
C872   C876    1.437   .     S
C872   O906    1.312   .     A
C873   C890    1.406   .     A
C873   H899    1.081   .     S
C874   C889    1.406   .     A
C874   H900    1.081   .     S
C874   C834    1.392   1_655 S
C876   C991    1.360   .     S
C876   Cl1030  1.777   .     S
C877   O907    1.306   .     A
C877   C882    1.442   .     S
C877   O909    1.305   .     A
C878   O908    1.306   .     A
C878   C881    1.442   .     S
C878   O910    1.305   .     A
C879   Cl911   1.773   .     S
C879   C881    1.404   .     A
C879   C889    1.407   .     A
C880   C890    1.407   .     A
C880   Cl912   1.773   .     S
C880   C882    1.404   .     A
C881   C883    1.393   .     A
C882   C884    1.393   .     A
C883   H895    1.086   .     S
C883   C885    1.390   .     A
C884   H896    1.086   .     S
C884   C886    1.390   .     A
C885   C887    1.411   .     A
C885   C891    1.399   .     A
C886   C888    1.411   .     A
C886   C892    1.399   .     A
C887   C889    1.419   .     A
C887   C830    1.407   1_655 S
C888   C890    1.419   .     A
C891   H897    1.084   .     S
C891   C815    1.392   1_655 S
C892   H898    1.084   .     S
Cu893  Cu894   2.733   .     S
Cu893  O907    1.956   .     S
Cu893  N902    2.054   .     S
Cu893  O910    1.949   .     S
Cu893  O906    1.966   .     S
Cu893  O903    1.964   .     S
Cu894  O908    1.956   .     S
Cu894  N901    2.054   .     S
Cu894  O905    1.966   .     S
Cu894  O909    1.949   .     S
Cu894  O904    1.964   .     S
N902   N205    1.288   1_556 S
N902   C226    1.459   1_556 S
Cl913  C991    1.778   .     S
C915   H920    1.111   .     S
C915   H921    1.080   .     S
C915   C916    1.525   .     S
C915   N205    1.459   1_556 S
C916   H919    1.112   .     S
C916   H917    1.110   .     S
C916   H222    1.104   1_556 S
C922   H928    1.111   .     S
C922   H927    1.080   .     S
C922   C923    1.525   .     S
C923   H925    1.110   .     S
C923   H926    1.112   .     S
H924   C227    1.104   1_556 S
C929   O961    1.296   .     A
C929   C933    1.437   .     S
C929   O963    1.312   .     A
C930   O962    1.296   .     A
C930   C934    1.437   .     S
C930   O964    1.312   .     A
C931   C948    1.406   .     A
C931   H957    1.081   .     S
C931   C1007   1.392   1_455 S
C932   C947    1.406   .     A
C932   H958    1.081   .     S
C932   C1008   1.392   .     S
C934   C701    1.360   1_565 S
C934   Cl740   1.777   1_565 S
C935   O965    1.306   .     A
C935   C940    1.442   .     S
C935   O967    1.305   .     A
C936   O966    1.306   .     A
C936   C939    1.442   .     S
C936   O968    1.305   .     A
C937   Cl969   1.773   .     S
C937   C939    1.404   .     A
C937   C947    1.407   .     A
C938   C948    1.407   .     A
C938   Cl970   1.773   .     S
C938   C940    1.404   .     A
C939   C941    1.393   .     A
C940   C942    1.393   .     A
C941   H953    1.086   .     S
C941   C943    1.390   .     A
C942   H954    1.086   .     S
C942   C944    1.390   .     A
C943   C945    1.411   .     A
C943   C949    1.399   .     A
C944   C946    1.411   .     A
C944   C950    1.399   .     A
C945   C947    1.419   .     A
C945   C1004   1.407   .     S
C946   C948    1.419   .     A
C946   C1003   1.407   1_455 S
C949   H955    1.084   .     S
C949   C989    1.392   .     S
C950   H956    1.084   .     S
C950   C990    1.392   1_455 S
Cu951  Cu952   2.733   .     S
Cu951  O965    1.956   .     S
Cu951  N960    2.054   .     S
Cu951  O968    1.949   .     S
Cu951  O964    1.966   .     S
Cu951  O961    1.964   .     S
Cu952  O966    1.956   .     S
Cu952  N959    2.054   .     S
Cu952  O963    1.966   .     S
Cu952  O967    1.949   .     S
Cu952  O962    1.964   .     S
N960   N263    1.288   1_556 S
N960   C284    1.459   1_556 S
Cl971  C701    1.778   1_565 S
C973   H978    1.111   .     S
C973   H979    1.080   .     S
C973   C974    1.525   .     S
C973   N263    1.459   1_556 S
C974   H977    1.112   .     S
C974   H975    1.110   .     S
C974   H280    1.104   1_556 S
C980   H986    1.111   .     S
C980   H985    1.080   .     S
C980   C981    1.525   .     S
C981   H983    1.110   .     S
C981   H984    1.112   .     S
H982   C285    1.104   1_556 S
C987   O1019   1.296   .     A
C987   C991    1.437   .     S
C987   O1021   1.312   .     A
C988   O1020   1.296   .     A
C988   C992    1.437   .     S
C988   O1022   1.312   .     A
C989   C1006   1.406   .     A
C989   H1015   1.081   .     S
C990   C1005   1.406   .     A
C990   H1016   1.081   .     S
C990   C950    1.392   1_655 S
C992   C759    1.360   1_565 S
C992   Cl798   1.777   1_565 S
C993   O1023   1.306   .     A
C993   C998    1.442   .     S
C993   O1025   1.305   .     A
C994   O1024   1.306   .     A
C994   C997    1.442   .     S
C994   O1026   1.305   .     A
C995   Cl1027  1.773   .     S
C995   C997    1.404   .     A
C995   C1005   1.407   .     A
C996   C1006   1.407   .     A
C996   Cl1028  1.773   .     S
C996   C998    1.404   .     A
C997   C999    1.393   .     A
C998   C1000   1.393   .     A
C999   H1011   1.086   .     S
C999   C1001   1.390   .     A
C1000  H1012   1.086   .     S
C1000  C1002   1.390   .     A
C1001  C1003   1.411   .     A
C1001  C1007   1.399   .     A
C1002  C1004   1.411   .     A
C1002  C1008   1.399   .     A
C1003  C1005   1.419   .     A
C1003  C946    1.407   1_655 S
C1004  C1006   1.419   .     A
C1007  H1013   1.084   .     S
C1007  C931    1.392   1_655 S
C1008  H1014   1.084   .     S
Cu1009 Cu1010  2.733   .     S
Cu1009 O1023   1.956   .     S
Cu1009 N1018   2.054   .     S
Cu1009 O1026   1.949   .     S
Cu1009 O1022   1.966   .     S
Cu1009 O1019   1.964   .     S
Cu1010 O1024   1.956   .     S
Cu1010 N1017   2.054   .     S
Cu1010 O1021   1.966   .     S
Cu1010 O1025   1.949   .     S
Cu1010 O1020   1.964   .     S
N1018  N321    1.288   1_556 S
N1018  C342    1.459   1_556 S
Cl1029 C759    1.778   1_565 S
C1031  H1036   1.111   .     S
C1031  H1037   1.080   .     S
C1031  C1032   1.525   .     S
C1031  N321    1.459   1_556 S
C1032  H1035   1.112   .     S
C1032  H1033   1.110   .     S
C1032  H338    1.104   1_556 S
C1038  H1044   1.111   .     S
C1038  H1043   1.080   .     S
C1038  C1039   1.525   .     S
C1039  H1041   1.110   .     S
C1039  H1042   1.112   .     S
H1040  C343    1.104   1_556 S
