data_str_m1_o1_o17_pcu_sym.59
_audit_creation_date              2020-01-03
_audit_creation_method            'Materials Studio'
_symmetry_space_group_name_H-M    'P1'
_symmetry_Int_Tables_number       1
_symmetry_cell_setting            triclinic
loop_
_symmetry_equiv_pos_as_xyz
  x,y,z
_cell_length_a                    36.5755
_cell_length_b                    36.5805
_cell_length_c                    34.4506
_cell_angle_alpha                 89.9846
_cell_angle_beta                  89.9967
_cell_angle_gamma                 89.9044
loop_
_atom_site_label
_atom_site_type_symbol
_atom_site_fract_x
_atom_site_fract_y
_atom_site_fract_z
_atom_site_U_iso_or_equiv
_atom_site_adp_type
_atom_site_occupancy
C1     C     0.46676   0.25051   0.41882   0.00000  Uiso   1.00
C2     C     0.28324   0.49955   0.08117   0.00000  Uiso   1.00
C3     C     0.24933   0.03348   0.54070   0.00000  Uiso   1.00
C4     C     0.46652   0.25047   0.45930   0.00000  Uiso   1.00
C5     C     0.03348   0.24929   0.54070   0.00000  Uiso   1.00
C6     C     0.24935   0.03348   0.45929   0.00000  Uiso   1.00
C7     C     0.25035   0.46653   0.54072   0.00000  Uiso   1.00
C8     C     0.28347   0.49964   0.95929   0.00000  Uiso   1.00
C9     C     0.21652   0.00072   0.04071   0.00000  Uiso   1.00
C10    C     0.00066   0.21652   0.95930   0.00000  Uiso   1.00
C11    C     0.49953   0.28347   0.04069   0.00000  Uiso   1.00
C12    C     0.21651   0.00073   0.95929   0.00000  Uiso   1.00
C13    C     0.49958   0.28323   0.91881   0.00000  Uiso   1.00
C14    C     0.28347   0.49959   0.04070   0.00000  Uiso   1.00
C15    C     0.49958   0.28347   0.95928   0.00000  Uiso   1.00
C16    C     0.00064   0.21653   0.04071   0.00000  Uiso   1.00
C17    C     0.09808   0.34809   0.25002   0.00000  Uiso   1.00
C18    C     0.40197   0.15191   0.75035   0.00000  Uiso   1.00
C19    C     0.15197   0.09805   0.24973   0.00000  Uiso   1.00
C20    C     0.34802   0.40198   0.75001   0.00000  Uiso   1.00
C21    C     0.40191   0.15193   0.24999   0.00000  Uiso   1.00
C22    C     0.09809   0.34803   0.74964   0.00000  Uiso   1.00
C23    C     0.34806   0.40195   0.25000   0.00000  Uiso   1.00
C24    C     0.00060   0.21676   0.08119   0.00000  Uiso   1.00
C25    C     0.15199   0.09801   0.75000   0.00000  Uiso   1.00
C26    C     0.09807   0.15193   0.75000   0.00000  Uiso   1.00
C27    C     0.40198   0.34802   0.25000   0.00000  Uiso   1.00
C28    C     0.15192   0.40199   0.75037   0.00000  Uiso   1.00
C29    C     0.34801   0.09804   0.24995   0.00000  Uiso   1.00
C30    C     0.40195   0.34806   0.74999   0.00000  Uiso   1.00
C31    C     0.09801   0.15193   0.25022   0.00000  Uiso   1.00
C32    C     0.34801   0.09808   0.74964   0.00000  Uiso   1.00
C33    C     0.15197   0.40198   0.25002   0.00000  Uiso   1.00
C34    C     0.00000   0.24987   0.47964   0.00000  Uiso   1.00
C35    C     0.28324   0.49962   0.91882   0.00000  Uiso   1.00
C36    C     0.00000   0.24986   0.52036   0.00000  Uiso   1.00
C37    C     0.24986   0.00000   0.47964   0.00000  Uiso   1.00
C38    C     0.24984   0.00001   0.52037   0.00000  Uiso   1.00
C39    C     0.24999   0.00019   0.97963   0.00000  Uiso   1.00
C40    C     0.25000   0.00017   0.02036   0.00000  Uiso   1.00
C41    C     0.00012   0.24999   0.97963   0.00000  Uiso   1.00
C42    C     0.00010   0.25000   0.02036   0.00000  Uiso   1.00
C43    C     0.10720   0.46602   0.28047   0.00000  Uiso   1.00
C44    C     0.30184   0.13092   0.81754   0.00000  Uiso   1.00
C45    C     0.12617   0.19213   0.17576   0.00000  Uiso   1.00
C46    C     0.21675   0.00067   0.08118   0.00000  Uiso   1.00
C47    C     0.46475   0.39721   0.72056   0.00000  Uiso   1.00
C48    C     0.39255   0.03416   0.28118   0.00000  Uiso   1.00
C49    C     0.19721   0.37632   0.81857   0.00000  Uiso   1.00
C50    C     0.38050   0.30384   0.17920   0.00000  Uiso   1.00
C51    C     0.12231   0.18562   0.82959   0.00000  Uiso   1.00
C52    C     0.19343   0.11546   0.82391   0.00000  Uiso   1.00
C53    C     0.30802   0.37321   0.17585   0.00000  Uiso   1.00
C54    C     0.13067   0.30169   0.81742   0.00000  Uiso   1.00
C55    C     0.46450   0.10244   0.28052   0.00000  Uiso   1.00
C56    C     0.39333   0.46563   0.71978   0.00000  Uiso   1.00
C57    C     0.00063   0.21675   0.91883   0.00000  Uiso   1.00
C58    C     0.19506   0.11962   0.17810   0.00000  Uiso   1.00
C59    C     0.37625   0.19815   0.81772   0.00000  Uiso   1.00
C60    C     0.03525   0.39782   0.27958   0.00000  Uiso   1.00
C61    C     0.44831   0.11933   0.68259   0.00000  Uiso   1.00
C62    C     0.14772   0.28509   0.22078   0.00000  Uiso   1.00
C63    C     0.28435   0.35676   0.78023   0.00000  Uiso   1.00
C64    C     0.12342   0.05828   0.32440   0.00000  Uiso   1.00
C65    C     0.05187   0.37374   0.68222   0.00000  Uiso   1.00
C66    C     0.35264   0.21465   0.21953   0.00000  Uiso   1.00
C67    C     0.13452   0.05660   0.67609   0.00000  Uiso   1.00
C68    C     0.49950   0.28324   0.08117   0.00000  Uiso   1.00
C69    C     0.37680   0.44187   0.32422   0.00000  Uiso   1.00
C70    C     0.44626   0.36944   0.32075   0.00000  Uiso   1.00
C71    C     0.06437   0.12772   0.67040   0.00000  Uiso   1.00
C72    C     0.28425   0.14256   0.21853   0.00000  Uiso   1.00
C73    C     0.11906   0.44818   0.68246   0.00000  Uiso   1.00
C74    C     0.05389   0.13069   0.32099   0.00000  Uiso   1.00
C75    C     0.35266   0.28527   0.77937   0.00000  Uiso   1.00
C76    C     0.21598   0.35704   0.21961   0.00000  Uiso   1.00
C77    C     0.37370   0.05276   0.68148   0.00000  Uiso   1.00
C78    C     0.00000   0.24995   0.39849   0.00000  Uiso   1.00
C79    C     0.00001   0.24991   0.60151   0.00000  Uiso   1.00
C80    C     0.24995  -0.00000   0.39849   0.00000  Uiso   1.00
C81    C     0.03325   0.24933   0.58118   0.00000  Uiso   1.00
C82    C     0.24989   0.00001   0.60152   0.00000  Uiso   1.00
C83    C     0.24999   0.00011   0.89848   0.00000  Uiso   1.00
C84    C     0.25000   0.00007   0.10151   0.00000  Uiso   1.00
C85    C     0.00008   0.24999   0.89848   0.00000  Uiso   1.00
C86    C     0.00003   0.25000   0.10151   0.00000  Uiso   1.00
C87    C     0.06661   0.24872   0.47975   0.00000  Uiso   1.00
C88    C     0.43340   0.25099   0.52025   0.00000  Uiso   1.00
C89    C     0.25089   0.43341   0.47978   0.00000  Uiso   1.00
C90    C     0.24881   0.06660   0.52022   0.00000  Uiso   1.00
C91    C     0.43340   0.25102   0.47976   0.00000  Uiso   1.00
C92    C     0.24940   0.03324   0.41881   0.00000  Uiso   1.00
C93    C     0.06661   0.24872   0.52024   0.00000  Uiso   1.00
C94    C     0.24882   0.06660   0.47974   0.00000  Uiso   1.00
C95    C     0.25086   0.43341   0.52027   0.00000  Uiso   1.00
C96    C     0.31660   0.49909   0.97975   0.00000  Uiso   1.00
C97    C     0.18339   0.00129   0.02025   0.00000  Uiso   1.00
C98    C     0.00121   0.18340   0.97978   0.00000  Uiso   1.00
C99    C     0.49901   0.31659   0.02022   0.00000  Uiso   1.00
C100   C     0.18339   0.00129   0.97976   0.00000  Uiso   1.00
C101   C     0.31660   0.49906   0.02024   0.00000  Uiso   1.00
C102   C     0.49904   0.31659   0.97973   0.00000  Uiso   1.00
C103   C     0.25036   0.46677   0.58119   0.00000  Uiso   1.00
C104   C     0.00120   0.18340   0.02026   0.00000  Uiso   1.00
C105   C     0.24999  -0.00000   0.35601   0.00000  Uiso   1.00
C106   C     0.24997   0.00000   0.64399   0.00000  Uiso   1.00
C107   C    -0.00000   0.24999   0.35601   0.00000  Uiso   1.00
C108   C     0.00000   0.24998   0.64399   0.00000  Uiso   1.00
C109   C     0.00002   0.25000   0.85601   0.00000  Uiso   1.00
C110   C    -0.00000   0.25000   0.14399   0.00000  Uiso   1.00
C111   C     0.25000   0.00003   0.85601   0.00000  Uiso   1.00
C112   C     0.25000   0.00001   0.14399   0.00000  Uiso   1.00
C113   C     0.18000   0.06998   0.24999   0.00000  Uiso   1.00
C114   C     0.03325   0.24935   0.41882   0.00000  Uiso   1.00
C115   C     0.31999   0.43001   0.75000   0.00000  Uiso   1.00
C116   C     0.42998   0.17998   0.25000   0.00000  Uiso   1.00
C117   C     0.07001   0.32000   0.74993   0.00000  Uiso   1.00
C118   C     0.32000   0.43000   0.25000   0.00000  Uiso   1.00
C119   C     0.18002   0.06998   0.75000   0.00000  Uiso   1.00
C120   C     0.07001   0.32002   0.25001   0.00000  Uiso   1.00
C121   C     0.43000   0.17999   0.75006   0.00000  Uiso   1.00
C122   C     0.18000   0.43000   0.75007   0.00000  Uiso   1.00
C123   C     0.32000   0.07000   0.24999   0.00000  Uiso   1.00
C124   C     0.43000   0.32000   0.75000   0.00000  Uiso   1.00
C125   C     0.46676   0.25043   0.58118   0.00000  Uiso   1.00
C126   C     0.07001   0.18003   0.24999   0.00000  Uiso   1.00
C127   C     0.32000   0.07000   0.74993   0.00000  Uiso   1.00
C128   C     0.18000   0.43000   0.25000   0.00000  Uiso   1.00
C129   C     0.07000   0.18000   0.75000   0.00000  Uiso   1.00
C130   C     0.43001   0.31999   0.25000   0.00000  Uiso   1.00
C131   C     0.11485   0.41213   0.24733   0.00000  Uiso   1.00
C132   C     0.34014   0.13261   0.76554   0.00000  Uiso   1.00
C133   C     0.13129   0.15854   0.23107   0.00000  Uiso   1.00
C134   C     0.41200   0.38507   0.75323   0.00000  Uiso   1.00
C135   C     0.38515   0.08787   0.24764   0.00000  Uiso   1.00
C136   C     0.25044   0.46676   0.41884   0.00000  Uiso   1.00
C137   C     0.15953   0.36734   0.76633   0.00000  Uiso   1.00
C138   C     0.36844   0.34144   0.23111   0.00000  Uiso   1.00
C139   C     0.13021   0.15729   0.77159   0.00000  Uiso   1.00
C140   C     0.15749   0.13042   0.77137   0.00000  Uiso   1.00
C141   C     0.34139   0.36851   0.23127   0.00000  Uiso   1.00
C142   C     0.13263   0.34018   0.76557   0.00000  Uiso   1.00
C143   C     0.41206   0.11484   0.24742   0.00000  Uiso   1.00
C144   C     0.38509   0.41204   0.75301   0.00000  Uiso   1.00
C145   C     0.15841   0.13153   0.23071   0.00000  Uiso   1.00
C146   C     0.36727   0.15954   0.76619   0.00000  Uiso   1.00
C147   C     0.24936   0.03325   0.58117   0.00000  Uiso   1.00
C148   C     0.08796   0.38516   0.24706   0.00000  Uiso   1.00
C149   C     0.40983   0.11737   0.73444   0.00000  Uiso   1.00
C150   C     0.13516   0.33797   0.25304   0.00000  Uiso   1.00
C151   C     0.33795   0.36492   0.74700   0.00000  Uiso   1.00
C152   C     0.11866   0.09142   0.26882   0.00000  Uiso   1.00
C153   C     0.09046   0.38272   0.73379   0.00000  Uiso   1.00
C154   C     0.36481   0.16207   0.25253   0.00000  Uiso   1.00
C155   C     0.11957   0.09252   0.72862   0.00000  Uiso   1.00
C156   C     0.38150   0.40860   0.26875   0.00000  Uiso   1.00
C157   C     0.40857   0.38155   0.26890   0.00000  Uiso   1.00
C158   C     0.21675   0.00069   0.91882   0.00000  Uiso   1.00
C159   C     0.09270   0.11980   0.72841   0.00000  Uiso   1.00
C160   C     0.33784   0.13517   0.25223   0.00000  Uiso   1.00
C161   C     0.11739   0.40985   0.73445   0.00000  Uiso   1.00
C162   C     0.09154   0.11842   0.26915   0.00000  Uiso   1.00
C163   C     0.36492   0.33801   0.74675   0.00000  Uiso   1.00
C164   C     0.16212   0.36487   0.25275   0.00000  Uiso   1.00
C165   C     0.38267   0.09047   0.73369   0.00000  Uiso   1.00
C166   C     0.03348   0.24931   0.45929   0.00000  Uiso   1.00
C167   C     0.46653   0.25042   0.54071   0.00000  Uiso   1.00
C168   C     0.25040   0.46653   0.45931   0.00000  Uiso   1.00
H169   H     0.09249   0.24828   0.46445   0.00000  Uiso   1.00
H170   H     0.15751   0.00172   0.03555   0.00000  Uiso   1.00
H171   H     0.14623   0.08292   0.66543   0.00000  Uiso   1.00
H172   H     0.11753   0.04525   0.65231   0.00000  Uiso   1.00
H173   H     0.34692   0.43669   0.32651   0.00000  Uiso   1.00
H174   H     0.38214   0.46908   0.33720   0.00000  Uiso   1.00
H175   H     0.39216   0.42141   0.34162   0.00000  Uiso   1.00
H176   H     0.46364   0.34504   0.31561   0.00000  Uiso   1.00
H177   H     0.41999   0.36088   0.33449   0.00000  Uiso   1.00
H178   H     0.46081   0.38698   0.34197   0.00000  Uiso   1.00
H179   H     0.07053   0.15748   0.67015   0.00000  Uiso   1.00
H180   H     0.03829   0.12382   0.65459   0.00000  Uiso   1.00
H181   H     0.00163   0.15752   0.96448   0.00000  Uiso   1.00
H182   H     0.08582   0.11254   0.65420   0.00000  Uiso   1.00
H183   H     0.26857   0.11667   0.21734   0.00000  Uiso   1.00
H184   H     0.30321   0.14368   0.19319   0.00000  Uiso   1.00
H185   H     0.26450   0.16540   0.21526   0.00000  Uiso   1.00
H186   H     0.14892   0.44413   0.67821   0.00000  Uiso   1.00
H187   H     0.11233   0.47625   0.67264   0.00000  Uiso   1.00
H188   H     0.10351   0.42897   0.66379   0.00000  Uiso   1.00
H189   H     0.03653   0.15508   0.31563   0.00000  Uiso   1.00
H190   H     0.08015   0.13929   0.33471   0.00000  Uiso   1.00
H191   H     0.03927   0.11331   0.34231   0.00000  Uiso   1.00
H192   H     0.49857   0.34247   0.03551   0.00000  Uiso   1.00
H193   H     0.38028   0.27665   0.78913   0.00000  Uiso   1.00
H194   H     0.33533   0.26058   0.77701   0.00000  Uiso   1.00
H195   H     0.33994   0.30303   0.80185   0.00000  Uiso   1.00
H196   H     0.23233   0.38254   0.21850   0.00000  Uiso   1.00
H197   H     0.19718   0.35639   0.19412   0.00000  Uiso   1.00
H198   H     0.23516   0.33371   0.21652   0.00000  Uiso   1.00
H199   H     0.36914   0.07911   0.66588   0.00000  Uiso   1.00
H200   H     0.34722   0.03835   0.68476   0.00000  Uiso   1.00
H201   H     0.39137   0.03554   0.66272   0.00000  Uiso   1.00
H202   H     0.15751   0.00173   0.96446   0.00000  Uiso   1.00
H203   H     0.34248   0.49862   0.03554   0.00000  Uiso   1.00
H204   H     0.49862   0.34247   0.96442   0.00000  Uiso   1.00
H205   H     0.00162   0.15753   0.03558   0.00000  Uiso   1.00
H206   H     0.44102   0.25098   0.40321   0.00000  Uiso   1.00
H207   H     0.05898   0.24890   0.59680   0.00000  Uiso   1.00
H208   H     0.24900   0.05897   0.40318   0.00000  Uiso   1.00
H209   H     0.40752   0.25142   0.53555   0.00000  Uiso   1.00
H210   H     0.25076   0.44104   0.59682   0.00000  Uiso   1.00
H211   H     0.05898   0.24890   0.40319   0.00000  Uiso   1.00
H212   H     0.44103   0.25087   0.59680   0.00000  Uiso   1.00
H213   H     0.25088   0.44102   0.40322   0.00000  Uiso   1.00
H214   H     0.24897   0.05898   0.59679   0.00000  Uiso   1.00
H215   H     0.19101   0.00111   0.90320   0.00000  Uiso   1.00
H216   H     0.30898   0.49908   0.09679   0.00000  Uiso   1.00
H217   H     0.49916   0.30896   0.90318   0.00000  Uiso   1.00
H218   H     0.00103   0.19103   0.09682   0.00000  Uiso   1.00
H219   H     0.30897   0.49918   0.90320   0.00000  Uiso   1.00
H220   H     0.25130   0.40753   0.46449   0.00000  Uiso   1.00
H221   H     0.19102   0.00110   0.09680   0.00000  Uiso   1.00
H222   H     0.00105   0.19102   0.90321   0.00000  Uiso   1.00
H223   H     0.49904   0.30897   0.09678   0.00000  Uiso   1.00
H224   H     0.13260   0.48252   0.28133   0.00000  Uiso   1.00
H225   H     0.10688   0.44723   0.30598   0.00000  Uiso   1.00
H226   H     0.08377   0.48506   0.28377   0.00000  Uiso   1.00
H227   H     0.30582   0.10105   0.82178   0.00000  Uiso   1.00
H228   H     0.27378   0.13771   0.82739   0.00000  Uiso   1.00
H229   H     0.32111   0.14642   0.83620   0.00000  Uiso   1.00
H230   H     0.12969   0.21996   0.16356   0.00000  Uiso   1.00
H231   H     0.24840   0.09248   0.53552   0.00000  Uiso   1.00
H232   H     0.09667   0.18512   0.17336   0.00000  Uiso   1.00
H233   H     0.14274   0.17317   0.15777   0.00000  Uiso   1.00
H234   H     0.47360   0.36959   0.71105   0.00000  Uiso   1.00
H235   H     0.48932   0.41474   0.72279   0.00000  Uiso   1.00
H236   H     0.44691   0.40961   0.69794   0.00000  Uiso   1.00
H237   H     0.36717   0.01763   0.28192   0.00000  Uiso   1.00
H238   H     0.39265   0.05308   0.30658   0.00000  Uiso   1.00
H239   H     0.41598   0.01518   0.28482   0.00000  Uiso   1.00
H240   H     0.17085   0.38087   0.83415   0.00000  Uiso   1.00
H241   H     0.21161   0.40280   0.81529   0.00000  Uiso   1.00
H242   H     0.40752   0.25147   0.46446   0.00000  Uiso   1.00
H243   H     0.21443   0.35866   0.83735   0.00000  Uiso   1.00
H244   H     0.40498   0.28653   0.18430   0.00000  Uiso   1.00
H245   H     0.38896   0.33013   0.16545   0.00000  Uiso   1.00
H246   H     0.36297   0.28923   0.15802   0.00000  Uiso   1.00
H247   H     0.09253   0.17954   0.82984   0.00000  Uiso   1.00
H248   H     0.12628   0.21168   0.84541   0.00000  Uiso   1.00
H249   H     0.13744   0.16413   0.84578   0.00000  Uiso   1.00
H250   H     0.21316   0.09296   0.81841   0.00000  Uiso   1.00
H251   H     0.16711   0.10375   0.83456   0.00000  Uiso   1.00
H252   H     0.20477   0.13245   0.84768   0.00000  Uiso   1.00
H253   H     0.09249   0.24827   0.53554   0.00000  Uiso   1.00
H254   H     0.31326   0.40307   0.17353   0.00000  Uiso   1.00
H255   H     0.28076   0.36793   0.16295   0.00000  Uiso   1.00
H256   H     0.32839   0.35780   0.15840   0.00000  Uiso   1.00
H257   H     0.13841   0.27398   0.82748   0.00000  Uiso   1.00
H258   H     0.10062   0.30456   0.82118   0.00000  Uiso   1.00
H259   H     0.14517   0.32155   0.83627   0.00000  Uiso   1.00
H260   H     0.47026   0.13018   0.29208   0.00000  Uiso   1.00
H261   H     0.49088   0.08775   0.27776   0.00000  Uiso   1.00
H262   H     0.44766   0.08685   0.30166   0.00000  Uiso   1.00
H263   H     0.36732   0.48111   0.71782   0.00000  Uiso   1.00
H264   H     0.24842   0.09248   0.46442   0.00000  Uiso   1.00
H265   H     0.39527   0.44678   0.69442   0.00000  Uiso   1.00
H266   H     0.41613   0.48542   0.71730   0.00000  Uiso   1.00
H267   H     0.16842   0.11273   0.16413   0.00000  Uiso   1.00
H268   H     0.21105   0.09421   0.18284   0.00000  Uiso   1.00
H269   H     0.21063   0.13667   0.15726   0.00000  Uiso   1.00
H270   H     0.40226   0.21332   0.81399   0.00000  Uiso   1.00
H271   H     0.38165   0.17207   0.83353   0.00000  Uiso   1.00
H272   H     0.35828   0.21503   0.83650   0.00000  Uiso   1.00
H273   H     0.02933   0.37016   0.29129   0.00000  Uiso   1.00
H274   H     0.00893   0.41255   0.27646   0.00000  Uiso   1.00
H275   H     0.25125   0.40753   0.53558   0.00000  Uiso   1.00
H276   H     0.05195   0.41349   0.30076   0.00000  Uiso   1.00
H277   H     0.47602   0.11159   0.67253   0.00000  Uiso   1.00
H278   H     0.44545   0.14938   0.67883   0.00000  Uiso   1.00
H279   H     0.42844   0.10484   0.66375   0.00000  Uiso   1.00
H280   H     0.12003   0.27858   0.20951   0.00000  Uiso   1.00
H281   H     0.16296   0.25906   0.22391   0.00000  Uiso   1.00
H282   H     0.16283   0.30190   0.19922   0.00000  Uiso   1.00
H283   H     0.26874   0.38270   0.78205   0.00000  Uiso   1.00
H284   H     0.30320   0.35502   0.80561   0.00000  Uiso   1.00
H285   H     0.26465   0.33388   0.78282   0.00000  Uiso   1.00
H286   H     0.34248   0.49867   0.96444   0.00000  Uiso   1.00
H287   H     0.15317   0.06406   0.32681   0.00000  Uiso   1.00
H288   H     0.11860   0.03093   0.33730   0.00000  Uiso   1.00
H289   H     0.10758   0.07838   0.34178   0.00000  Uiso   1.00
H290   H     0.03675   0.34771   0.68594   0.00000  Uiso   1.00
H291   H     0.07797   0.36840   0.66642   0.00000  Uiso   1.00
H292   H     0.03495   0.39169   0.66345   0.00000  Uiso   1.00
H293   H     0.38045   0.22084   0.20840   0.00000  Uiso   1.00
H294   H     0.33755   0.24081   0.22222   0.00000  Uiso   1.00
H295   H     0.33757   0.19773   0.19805   0.00000  Uiso   1.00
H296   H     0.15703   0.03687   0.68159   0.00000  Uiso   1.00
O297   O     0.25000  -0.00000   0.25000   0.00000  Uiso   1.00
O298   O     0.25000   0.46963   0.66245   0.00000  Uiso   1.00
O299   O     0.46963   0.25000   0.33755   0.00000  Uiso   1.00
O300   O     0.03036   0.25000   0.66245   0.00000  Uiso   1.00
O301   O    -0.00000   0.21963   0.83755   0.00000  Uiso   1.00
O302   O     0.00000   0.28037   0.16245   0.00000  Uiso   1.00
O303   O     0.28036  -0.00000   0.83755   0.00000  Uiso   1.00
O304   O     0.21963  -0.00000   0.16245   0.00000  Uiso   1.00
O305   O     0.00000   0.28037   0.83755   0.00000  Uiso   1.00
O306   O    -0.00000   0.21963   0.16245   0.00000  Uiso   1.00
O307   O     0.21963  -0.00000   0.83755   0.00000  Uiso   1.00
O308   O     0.25000  -0.00000   0.75000   0.00000  Uiso   1.00
O309   O     0.28036  -0.00000   0.16245   0.00000  Uiso   1.00
O310   O     0.20724   0.07307   0.27302   0.00000  Uiso   1.00
O311   O     0.29275   0.42692   0.72698   0.00000  Uiso   1.00
O312   O     0.42692   0.20724   0.27302   0.00000  Uiso   1.00
O313   O     0.07307   0.29276   0.72698   0.00000  Uiso   1.00
O314   O     0.29275   0.42692   0.27302   0.00000  Uiso   1.00
O315   O     0.20724   0.07307   0.72698   0.00000  Uiso   1.00
O316   O     0.07307   0.29276   0.27302   0.00000  Uiso   1.00
O317   O     0.42692   0.20724   0.72698   0.00000  Uiso   1.00
O318   O     0.20724   0.42692   0.72698   0.00000  Uiso   1.00
O319   O     0.00000   0.25000   0.25000   0.00000  Uiso   1.00
O320   O     0.29275   0.07307   0.27302   0.00000  Uiso   1.00
O321   O     0.42692   0.29275   0.72698   0.00000  Uiso   1.00
O322   O     0.07307   0.20725   0.27302   0.00000  Uiso   1.00
O323   O     0.29275   0.07307   0.72698   0.00000  Uiso   1.00
O324   O     0.20724   0.42692   0.27302   0.00000  Uiso   1.00
O325   O     0.07307   0.20725   0.72698   0.00000  Uiso   1.00
O326   O     0.42692   0.29275   0.27302   0.00000  Uiso   1.00
O327   O     0.45724   0.32307   0.77302   0.00000  Uiso   1.00
O328   O     0.04275   0.17693   0.22698   0.00000  Uiso   1.00
O329   O     0.17692   0.45725   0.77302   0.00000  Uiso   1.00
O330   O     0.00000   0.25000   0.75000   0.00000  Uiso   1.00
O331   O     0.32307   0.04275   0.22698   0.00000  Uiso   1.00
O332   O     0.04275   0.17693   0.77302   0.00000  Uiso   1.00
O333   O     0.45724   0.32307   0.22698   0.00000  Uiso   1.00
O334   O     0.32307   0.04275   0.77302   0.00000  Uiso   1.00
O335   O     0.17692   0.45725   0.22698   0.00000  Uiso   1.00
O336   O     0.45724   0.17692   0.22698   0.00000  Uiso   1.00
O337   O     0.04275   0.32308   0.77302   0.00000  Uiso   1.00
O338   O     0.17692   0.04275   0.22698   0.00000  Uiso   1.00
O339   O     0.32307   0.45724   0.77302   0.00000  Uiso   1.00
O340   O     0.04275   0.32308   0.22698   0.00000  Uiso   1.00
O341   O     0.25000   0.46963   0.33755   0.00000  Uiso   1.00
O342   O     0.45724   0.17692   0.77302   0.00000  Uiso   1.00
O343   O     0.32307   0.45724   0.22698   0.00000  Uiso   1.00
O344   O     0.17692   0.04275   0.77302   0.00000  Uiso   1.00
O345   O     0.10414   0.44836   0.24407   0.00000  Uiso   1.00
O346   O     0.30519   0.14100   0.77818   0.00000  Uiso   1.00
O347   O     0.13828   0.19233   0.21464   0.00000  Uiso   1.00
O348   O     0.44814   0.39547   0.75749   0.00000  Uiso   1.00
O349   O     0.39588   0.05162   0.24470   0.00000  Uiso   1.00
O350   O     0.19342   0.35911   0.78200   0.00000  Uiso   1.00
O351   O     0.36066   0.30800   0.21418   0.00000  Uiso   1.00
O352   O     0.25000   0.03036   0.66245   0.00000  Uiso   1.00
O353   O     0.13582   0.18967   0.79146   0.00000  Uiso   1.00
O354   O     0.19020   0.13746   0.79029   0.00000  Uiso   1.00
O355   O     0.30763   0.36138   0.21483   0.00000  Uiso   1.00
O356   O     0.14110   0.30524   0.77819   0.00000  Uiso   1.00
O357   O     0.44828   0.10446   0.24342   0.00000  Uiso   1.00
O358   O     0.39575   0.44822   0.75635   0.00000  Uiso   1.00
O359   O     0.19170   0.13919   0.21334   0.00000  Uiso   1.00
O360   O     0.35884   0.19356   0.78137   0.00000  Uiso   1.00
O361   O     0.05177   0.39552   0.24264   0.00000  Uiso   1.00
O362   O     0.44477   0.10891   0.72183   0.00000  Uiso   1.00
O363   O     0.03036   0.25000   0.33755   0.00000  Uiso   1.00
O364   O     0.14553   0.30181   0.25762   0.00000  Uiso   1.00
O365   O     0.30177   0.35426   0.74368   0.00000  Uiso   1.00
O366   O     0.11170   0.05768   0.28539   0.00000  Uiso   1.00
O367   O     0.05643   0.39114   0.71858   0.00000  Uiso   1.00
O368   O     0.35442   0.19828   0.25658   0.00000  Uiso   1.00
O369   O     0.11252   0.05982   0.70970   0.00000  Uiso   1.00
O370   O     0.38862   0.44233   0.28524   0.00000  Uiso   1.00
O371   O     0.44203   0.38933   0.28581   0.00000  Uiso   1.00
O372   O     0.06032   0.11421   0.70853   0.00000  Uiso   1.00
O373   O     0.30159   0.14591   0.25507   0.00000  Uiso   1.00
O374   O     0.46963   0.25000   0.66245   0.00000  Uiso   1.00
O375   O     0.10899   0.44481   0.72182   0.00000  Uiso   1.00
O376   O     0.05817   0.11056   0.28623   0.00000  Uiso   1.00
O377   O     0.35453   0.30188   0.74244   0.00000  Uiso   1.00
O378   O     0.19836   0.35417   0.25605   0.00000  Uiso   1.00
O379   O     0.39091   0.05658   0.71805   0.00000  Uiso   1.00
O380   O     0.25000   0.03036   0.33755   0.00000  Uiso   1.00
Zn381  Zn    0.20659  -0.00000   0.21735   0.00000  Uiso   1.00
Zn382  Zn    0.04340   0.25000   0.28265   0.00000  Uiso   1.00
Zn383  Zn    0.25000   0.45659   0.71735   0.00000  Uiso   1.00
Zn384  Zn    0.25000   0.04340   0.28265   0.00000  Uiso   1.00
Zn385  Zn    0.04340   0.25000   0.71735   0.00000  Uiso   1.00
Zn386  Zn    0.45659   0.25000   0.28265   0.00000  Uiso   1.00
Zn387  Zn    0.25000   0.04340   0.71735   0.00000  Uiso   1.00
Zn388  Zn    0.25000   0.45659   0.28265   0.00000  Uiso   1.00
Zn389  Zn    0.29340  -0.00000   0.78265   0.00000  Uiso   1.00
Zn390  Zn   -0.00000   0.20659   0.21735   0.00000  Uiso   1.00
Zn391  Zn   -0.00000   0.29340   0.78265   0.00000  Uiso   1.00
Zn392  Zn    0.29340  -0.00000   0.21735   0.00000  Uiso   1.00
Zn393  Zn    0.20659  -0.00000   0.78265   0.00000  Uiso   1.00
Zn394  Zn   -0.00000   0.29340   0.21735   0.00000  Uiso   1.00
Zn395  Zn   -0.00000   0.20659   0.78265   0.00000  Uiso   1.00
Zn396  Zn    0.45659   0.25000   0.71735   0.00000  Uiso   1.00
C397   C     0.96676   0.25051   0.41882   0.00000  Uiso   1.00
C398   C     0.78324   0.49955   0.08117   0.00000  Uiso   1.00
C399   C     0.74933   0.03348   0.54070   0.00000  Uiso   1.00
C400   C     0.96652   0.25047   0.45930   0.00000  Uiso   1.00
C401   C     0.53348   0.24929   0.54070   0.00000  Uiso   1.00
C402   C     0.74935   0.03348   0.45929   0.00000  Uiso   1.00
C403   C     0.75035   0.46653   0.54072   0.00000  Uiso   1.00
C404   C     0.78347   0.49964   0.95929   0.00000  Uiso   1.00
C405   C     0.71652   0.00072   0.04071   0.00000  Uiso   1.00
C406   C     0.50066   0.21652   0.95930   0.00000  Uiso   1.00
C407   C     0.99953   0.28347   0.04069   0.00000  Uiso   1.00
C408   C     0.71651   0.00073   0.95929   0.00000  Uiso   1.00
C409   C     0.99958   0.28323   0.91881   0.00000  Uiso   1.00
C410   C     0.78347   0.49959   0.04070   0.00000  Uiso   1.00
C411   C     0.99958   0.28347   0.95928   0.00000  Uiso   1.00
C412   C     0.50064   0.21653   0.04071   0.00000  Uiso   1.00
C413   C     0.59808   0.34809   0.25002   0.00000  Uiso   1.00
C414   C     0.90197   0.15191   0.75035   0.00000  Uiso   1.00
C415   C     0.65197   0.09805   0.24973   0.00000  Uiso   1.00
C416   C     0.84802   0.40198   0.75001   0.00000  Uiso   1.00
C417   C     0.90191   0.15193   0.24999   0.00000  Uiso   1.00
C418   C     0.59809   0.34803   0.74964   0.00000  Uiso   1.00
C419   C     0.84806   0.40195   0.25000   0.00000  Uiso   1.00
C420   C     0.50060   0.21676   0.08119   0.00000  Uiso   1.00
C421   C     0.65199   0.09801   0.75000   0.00000  Uiso   1.00
C422   C     0.59807   0.15193   0.75000   0.00000  Uiso   1.00
C423   C     0.90198   0.34802   0.25000   0.00000  Uiso   1.00
C424   C     0.65192   0.40199   0.75037   0.00000  Uiso   1.00
C425   C     0.84801   0.09804   0.24995   0.00000  Uiso   1.00
C426   C     0.90195   0.34806   0.74999   0.00000  Uiso   1.00
C427   C     0.59801   0.15193   0.25022   0.00000  Uiso   1.00
C428   C     0.84801   0.09808   0.74964   0.00000  Uiso   1.00
C429   C     0.65197   0.40198   0.25002   0.00000  Uiso   1.00
C430   C     0.50000   0.24987   0.47964   0.00000  Uiso   1.00
C431   C     0.78324   0.49962   0.91882   0.00000  Uiso   1.00
C432   C     0.50000   0.24986   0.52036   0.00000  Uiso   1.00
C433   C     0.74986   0.00000   0.47964   0.00000  Uiso   1.00
C434   C     0.74984   0.00001   0.52037   0.00000  Uiso   1.00
C435   C     0.74999   0.00019   0.97963   0.00000  Uiso   1.00
C436   C     0.75000   0.00017   0.02036   0.00000  Uiso   1.00
C437   C     0.50012   0.24999   0.97963   0.00000  Uiso   1.00
C438   C     0.50010   0.25000   0.02036   0.00000  Uiso   1.00
C439   C     0.60720   0.46602   0.28047   0.00000  Uiso   1.00
C440   C     0.80184   0.13092   0.81754   0.00000  Uiso   1.00
C441   C     0.62617   0.19213   0.17576   0.00000  Uiso   1.00
C442   C     0.71675   0.00067   0.08118   0.00000  Uiso   1.00
C443   C     0.96475   0.39721   0.72056   0.00000  Uiso   1.00
C444   C     0.89255   0.03416   0.28118   0.00000  Uiso   1.00
C445   C     0.69721   0.37632   0.81857   0.00000  Uiso   1.00
C446   C     0.88050   0.30384   0.17920   0.00000  Uiso   1.00
C447   C     0.62231   0.18562   0.82959   0.00000  Uiso   1.00
C448   C     0.69343   0.11546   0.82391   0.00000  Uiso   1.00
C449   C     0.80802   0.37321   0.17585   0.00000  Uiso   1.00
C450   C     0.63067   0.30169   0.81742   0.00000  Uiso   1.00
C451   C     0.96450   0.10244   0.28052   0.00000  Uiso   1.00
C452   C     0.89333   0.46563   0.71978   0.00000  Uiso   1.00
C453   C     0.50063   0.21675   0.91883   0.00000  Uiso   1.00
C454   C     0.69506   0.11962   0.17810   0.00000  Uiso   1.00
C455   C     0.87625   0.19815   0.81772   0.00000  Uiso   1.00
C456   C     0.53525   0.39782   0.27958   0.00000  Uiso   1.00
C457   C     0.94831   0.11933   0.68259   0.00000  Uiso   1.00
C458   C     0.64772   0.28509   0.22078   0.00000  Uiso   1.00
C459   C     0.78435   0.35676   0.78023   0.00000  Uiso   1.00
C460   C     0.62342   0.05828   0.32440   0.00000  Uiso   1.00
C461   C     0.55187   0.37374   0.68222   0.00000  Uiso   1.00
C462   C     0.85264   0.21465   0.21953   0.00000  Uiso   1.00
C463   C     0.63452   0.05660   0.67609   0.00000  Uiso   1.00
C464   C     0.99950   0.28324   0.08117   0.00000  Uiso   1.00
C465   C     0.87680   0.44187   0.32422   0.00000  Uiso   1.00
C466   C     0.94626   0.36944   0.32075   0.00000  Uiso   1.00
C467   C     0.56437   0.12772   0.67040   0.00000  Uiso   1.00
C468   C     0.78425   0.14256   0.21853   0.00000  Uiso   1.00
C469   C     0.61906   0.44818   0.68246   0.00000  Uiso   1.00
C470   C     0.55389   0.13069   0.32099   0.00000  Uiso   1.00
C471   C     0.85266   0.28527   0.77937   0.00000  Uiso   1.00
C472   C     0.71598   0.35704   0.21961   0.00000  Uiso   1.00
C473   C     0.87370   0.05276   0.68148   0.00000  Uiso   1.00
C474   C     0.50000   0.24995   0.39849   0.00000  Uiso   1.00
C475   C     0.50001   0.24991   0.60151   0.00000  Uiso   1.00
C476   C     0.74995  -0.00000   0.39849   0.00000  Uiso   1.00
C477   C     0.53325   0.24933   0.58118   0.00000  Uiso   1.00
C478   C     0.74989   0.00001   0.60152   0.00000  Uiso   1.00
C479   C     0.74999   0.00011   0.89848   0.00000  Uiso   1.00
C480   C     0.75000   0.00007   0.10151   0.00000  Uiso   1.00
C481   C     0.50008   0.24999   0.89848   0.00000  Uiso   1.00
C482   C     0.50003   0.25000   0.10151   0.00000  Uiso   1.00
C483   C     0.56661   0.24872   0.47975   0.00000  Uiso   1.00
C484   C     0.93340   0.25099   0.52025   0.00000  Uiso   1.00
C485   C     0.75089   0.43341   0.47978   0.00000  Uiso   1.00
C486   C     0.74881   0.06660   0.52022   0.00000  Uiso   1.00
C487   C     0.93340   0.25102   0.47976   0.00000  Uiso   1.00
C488   C     0.74940   0.03324   0.41881   0.00000  Uiso   1.00
C489   C     0.56661   0.24872   0.52024   0.00000  Uiso   1.00
C490   C     0.74882   0.06660   0.47974   0.00000  Uiso   1.00
C491   C     0.75086   0.43341   0.52027   0.00000  Uiso   1.00
C492   C     0.81660   0.49909   0.97975   0.00000  Uiso   1.00
C493   C     0.68339   0.00129   0.02025   0.00000  Uiso   1.00
C494   C     0.50121   0.18340   0.97978   0.00000  Uiso   1.00
C495   C     0.99901   0.31659   0.02022   0.00000  Uiso   1.00
C496   C     0.68339   0.00129   0.97976   0.00000  Uiso   1.00
C497   C     0.81660   0.49906   0.02024   0.00000  Uiso   1.00
C498   C     0.99904   0.31659   0.97973   0.00000  Uiso   1.00
C499   C     0.75036   0.46677   0.58119   0.00000  Uiso   1.00
C500   C     0.50120   0.18340   0.02026   0.00000  Uiso   1.00
C501   C     0.74999  -0.00000   0.35601   0.00000  Uiso   1.00
C502   C     0.74997   0.00000   0.64399   0.00000  Uiso   1.00
C503   C     0.50000   0.24999   0.35601   0.00000  Uiso   1.00
C504   C     0.50000   0.24998   0.64399   0.00000  Uiso   1.00
C505   C     0.50002   0.25000   0.85601   0.00000  Uiso   1.00
C506   C     0.50000   0.25000   0.14399   0.00000  Uiso   1.00
C507   C     0.75000   0.00003   0.85601   0.00000  Uiso   1.00
C508   C     0.75000   0.00001   0.14399   0.00000  Uiso   1.00
C509   C     0.68000   0.06998   0.24999   0.00000  Uiso   1.00
C510   C     0.53325   0.24935   0.41882   0.00000  Uiso   1.00
C511   C     0.81999   0.43001   0.75000   0.00000  Uiso   1.00
C512   C     0.92998   0.17998   0.25000   0.00000  Uiso   1.00
C513   C     0.57001   0.32000   0.74993   0.00000  Uiso   1.00
C514   C     0.82000   0.43000   0.25000   0.00000  Uiso   1.00
C515   C     0.68002   0.06998   0.75000   0.00000  Uiso   1.00
C516   C     0.57001   0.32002   0.25001   0.00000  Uiso   1.00
C517   C     0.93000   0.17999   0.75006   0.00000  Uiso   1.00
C518   C     0.68000   0.43000   0.75007   0.00000  Uiso   1.00
C519   C     0.82000   0.07000   0.24999   0.00000  Uiso   1.00
C520   C     0.93000   0.32000   0.75000   0.00000  Uiso   1.00
C521   C     0.96676   0.25043   0.58118   0.00000  Uiso   1.00
C522   C     0.57001   0.18003   0.24999   0.00000  Uiso   1.00
C523   C     0.82000   0.07000   0.74993   0.00000  Uiso   1.00
C524   C     0.68000   0.43000   0.25000   0.00000  Uiso   1.00
C525   C     0.57000   0.18000   0.75000   0.00000  Uiso   1.00
C526   C     0.93001   0.31999   0.25000   0.00000  Uiso   1.00
C527   C     0.61485   0.41213   0.24733   0.00000  Uiso   1.00
C528   C     0.84014   0.13261   0.76554   0.00000  Uiso   1.00
C529   C     0.63129   0.15854   0.23107   0.00000  Uiso   1.00
C530   C     0.91200   0.38507   0.75323   0.00000  Uiso   1.00
C531   C     0.88515   0.08787   0.24764   0.00000  Uiso   1.00
C532   C     0.75044   0.46676   0.41884   0.00000  Uiso   1.00
C533   C     0.65953   0.36734   0.76633   0.00000  Uiso   1.00
C534   C     0.86844   0.34144   0.23111   0.00000  Uiso   1.00
C535   C     0.63021   0.15729   0.77159   0.00000  Uiso   1.00
C536   C     0.65749   0.13042   0.77137   0.00000  Uiso   1.00
C537   C     0.84139   0.36851   0.23127   0.00000  Uiso   1.00
C538   C     0.63263   0.34018   0.76557   0.00000  Uiso   1.00
C539   C     0.91206   0.11484   0.24742   0.00000  Uiso   1.00
C540   C     0.88509   0.41204   0.75301   0.00000  Uiso   1.00
C541   C     0.65841   0.13153   0.23071   0.00000  Uiso   1.00
C542   C     0.86727   0.15954   0.76619   0.00000  Uiso   1.00
C543   C     0.74936   0.03325   0.58117   0.00000  Uiso   1.00
C544   C     0.58796   0.38516   0.24706   0.00000  Uiso   1.00
C545   C     0.90983   0.11737   0.73444   0.00000  Uiso   1.00
C546   C     0.63516   0.33797   0.25304   0.00000  Uiso   1.00
C547   C     0.83795   0.36492   0.74700   0.00000  Uiso   1.00
C548   C     0.61866   0.09142   0.26882   0.00000  Uiso   1.00
C549   C     0.59046   0.38272   0.73379   0.00000  Uiso   1.00
C550   C     0.86481   0.16207   0.25253   0.00000  Uiso   1.00
C551   C     0.61957   0.09252   0.72862   0.00000  Uiso   1.00
C552   C     0.88150   0.40860   0.26875   0.00000  Uiso   1.00
C553   C     0.90857   0.38155   0.26890   0.00000  Uiso   1.00
C554   C     0.71675   0.00069   0.91882   0.00000  Uiso   1.00
C555   C     0.59270   0.11980   0.72841   0.00000  Uiso   1.00
C556   C     0.83784   0.13517   0.25223   0.00000  Uiso   1.00
C557   C     0.61739   0.40985   0.73445   0.00000  Uiso   1.00
C558   C     0.59154   0.11842   0.26915   0.00000  Uiso   1.00
C559   C     0.86492   0.33801   0.74675   0.00000  Uiso   1.00
C560   C     0.66212   0.36487   0.25275   0.00000  Uiso   1.00
C561   C     0.88267   0.09047   0.73369   0.00000  Uiso   1.00
C562   C     0.53348   0.24931   0.45929   0.00000  Uiso   1.00
C563   C     0.96653   0.25042   0.54071   0.00000  Uiso   1.00
C564   C     0.75040   0.46653   0.45931   0.00000  Uiso   1.00
H565   H     0.59249   0.24828   0.46445   0.00000  Uiso   1.00
H566   H     0.65751   0.00172   0.03555   0.00000  Uiso   1.00
H567   H     0.64623   0.08292   0.66543   0.00000  Uiso   1.00
H568   H     0.61753   0.04525   0.65231   0.00000  Uiso   1.00
H569   H     0.84692   0.43669   0.32651   0.00000  Uiso   1.00
H570   H     0.88214   0.46908   0.33720   0.00000  Uiso   1.00
H571   H     0.89216   0.42141   0.34162   0.00000  Uiso   1.00
H572   H     0.96364   0.34504   0.31561   0.00000  Uiso   1.00
H573   H     0.91999   0.36088   0.33449   0.00000  Uiso   1.00
H574   H     0.96081   0.38698   0.34197   0.00000  Uiso   1.00
H575   H     0.57053   0.15748   0.67015   0.00000  Uiso   1.00
H576   H     0.53829   0.12382   0.65459   0.00000  Uiso   1.00
H577   H     0.50163   0.15752   0.96448   0.00000  Uiso   1.00
H578   H     0.58582   0.11254   0.65420   0.00000  Uiso   1.00
H579   H     0.76857   0.11667   0.21734   0.00000  Uiso   1.00
H580   H     0.80321   0.14368   0.19319   0.00000  Uiso   1.00
H581   H     0.76450   0.16540   0.21526   0.00000  Uiso   1.00
H582   H     0.64892   0.44413   0.67821   0.00000  Uiso   1.00
H583   H     0.61233   0.47625   0.67264   0.00000  Uiso   1.00
H584   H     0.60351   0.42897   0.66379   0.00000  Uiso   1.00
H585   H     0.53653   0.15508   0.31563   0.00000  Uiso   1.00
H586   H     0.58015   0.13929   0.33471   0.00000  Uiso   1.00
H587   H     0.53927   0.11331   0.34231   0.00000  Uiso   1.00
H588   H     0.99857   0.34247   0.03551   0.00000  Uiso   1.00
H589   H     0.88028   0.27665   0.78913   0.00000  Uiso   1.00
H590   H     0.83533   0.26058   0.77701   0.00000  Uiso   1.00
H591   H     0.83994   0.30303   0.80185   0.00000  Uiso   1.00
H592   H     0.73233   0.38254   0.21850   0.00000  Uiso   1.00
H593   H     0.69718   0.35639   0.19412   0.00000  Uiso   1.00
H594   H     0.73516   0.33371   0.21652   0.00000  Uiso   1.00
H595   H     0.86914   0.07911   0.66588   0.00000  Uiso   1.00
H596   H     0.84722   0.03835   0.68476   0.00000  Uiso   1.00
H597   H     0.89137   0.03554   0.66272   0.00000  Uiso   1.00
H598   H     0.65751   0.00173   0.96446   0.00000  Uiso   1.00
H599   H     0.84248   0.49862   0.03554   0.00000  Uiso   1.00
H600   H     0.99862   0.34247   0.96442   0.00000  Uiso   1.00
H601   H     0.50162   0.15753   0.03558   0.00000  Uiso   1.00
H602   H     0.94102   0.25098   0.40321   0.00000  Uiso   1.00
H603   H     0.55898   0.24890   0.59680   0.00000  Uiso   1.00
H604   H     0.74900   0.05897   0.40318   0.00000  Uiso   1.00
H605   H     0.90752   0.25142   0.53555   0.00000  Uiso   1.00
H606   H     0.75076   0.44104   0.59682   0.00000  Uiso   1.00
H607   H     0.55898   0.24890   0.40319   0.00000  Uiso   1.00
H608   H     0.94103   0.25087   0.59680   0.00000  Uiso   1.00
H609   H     0.75088   0.44102   0.40322   0.00000  Uiso   1.00
H610   H     0.74897   0.05898   0.59679   0.00000  Uiso   1.00
H611   H     0.69101   0.00111   0.90320   0.00000  Uiso   1.00
H612   H     0.80898   0.49908   0.09679   0.00000  Uiso   1.00
H613   H     0.99916   0.30896   0.90318   0.00000  Uiso   1.00
H614   H     0.50103   0.19103   0.09682   0.00000  Uiso   1.00
H615   H     0.80897   0.49918   0.90320   0.00000  Uiso   1.00
H616   H     0.75130   0.40753   0.46449   0.00000  Uiso   1.00
H617   H     0.69102   0.00110   0.09680   0.00000  Uiso   1.00
H618   H     0.50105   0.19102   0.90321   0.00000  Uiso   1.00
H619   H     0.99904   0.30897   0.09678   0.00000  Uiso   1.00
H620   H     0.63260   0.48252   0.28133   0.00000  Uiso   1.00
H621   H     0.60688   0.44723   0.30598   0.00000  Uiso   1.00
H622   H     0.58377   0.48506   0.28377   0.00000  Uiso   1.00
H623   H     0.80582   0.10105   0.82178   0.00000  Uiso   1.00
H624   H     0.77378   0.13771   0.82739   0.00000  Uiso   1.00
H625   H     0.82111   0.14642   0.83620   0.00000  Uiso   1.00
H626   H     0.62969   0.21996   0.16356   0.00000  Uiso   1.00
H627   H     0.74840   0.09248   0.53552   0.00000  Uiso   1.00
H628   H     0.59667   0.18512   0.17336   0.00000  Uiso   1.00
H629   H     0.64274   0.17317   0.15777   0.00000  Uiso   1.00
H630   H     0.97360   0.36959   0.71105   0.00000  Uiso   1.00
H631   H     0.98932   0.41474   0.72279   0.00000  Uiso   1.00
H632   H     0.94691   0.40961   0.69794   0.00000  Uiso   1.00
H633   H     0.86717   0.01763   0.28192   0.00000  Uiso   1.00
H634   H     0.89265   0.05308   0.30658   0.00000  Uiso   1.00
H635   H     0.91598   0.01518   0.28482   0.00000  Uiso   1.00
H636   H     0.67085   0.38087   0.83415   0.00000  Uiso   1.00
H637   H     0.71161   0.40280   0.81529   0.00000  Uiso   1.00
H638   H     0.90752   0.25147   0.46446   0.00000  Uiso   1.00
H639   H     0.71443   0.35866   0.83735   0.00000  Uiso   1.00
H640   H     0.90498   0.28653   0.18430   0.00000  Uiso   1.00
H641   H     0.88896   0.33013   0.16545   0.00000  Uiso   1.00
H642   H     0.86297   0.28923   0.15802   0.00000  Uiso   1.00
H643   H     0.59253   0.17954   0.82984   0.00000  Uiso   1.00
H644   H     0.62628   0.21168   0.84541   0.00000  Uiso   1.00
H645   H     0.63744   0.16413   0.84578   0.00000  Uiso   1.00
H646   H     0.71316   0.09296   0.81841   0.00000  Uiso   1.00
H647   H     0.66711   0.10375   0.83456   0.00000  Uiso   1.00
H648   H     0.70477   0.13245   0.84768   0.00000  Uiso   1.00
H649   H     0.59249   0.24827   0.53554   0.00000  Uiso   1.00
H650   H     0.81326   0.40307   0.17353   0.00000  Uiso   1.00
H651   H     0.78076   0.36793   0.16295   0.00000  Uiso   1.00
H652   H     0.82839   0.35780   0.15840   0.00000  Uiso   1.00
H653   H     0.63841   0.27398   0.82748   0.00000  Uiso   1.00
H654   H     0.60062   0.30456   0.82118   0.00000  Uiso   1.00
H655   H     0.64517   0.32155   0.83627   0.00000  Uiso   1.00
H656   H     0.97026   0.13018   0.29208   0.00000  Uiso   1.00
H657   H     0.99088   0.08775   0.27776   0.00000  Uiso   1.00
H658   H     0.94766   0.08685   0.30166   0.00000  Uiso   1.00
H659   H     0.86732   0.48111   0.71782   0.00000  Uiso   1.00
H660   H     0.74842   0.09248   0.46442   0.00000  Uiso   1.00
H661   H     0.89527   0.44678   0.69442   0.00000  Uiso   1.00
H662   H     0.91613   0.48542   0.71730   0.00000  Uiso   1.00
H663   H     0.66842   0.11273   0.16413   0.00000  Uiso   1.00
H664   H     0.71105   0.09421   0.18284   0.00000  Uiso   1.00
H665   H     0.71063   0.13667   0.15726   0.00000  Uiso   1.00
H666   H     0.90226   0.21332   0.81399   0.00000  Uiso   1.00
H667   H     0.88165   0.17207   0.83353   0.00000  Uiso   1.00
H668   H     0.85828   0.21503   0.83650   0.00000  Uiso   1.00
H669   H     0.52933   0.37016   0.29129   0.00000  Uiso   1.00
H670   H     0.50893   0.41255   0.27646   0.00000  Uiso   1.00
H671   H     0.75125   0.40753   0.53558   0.00000  Uiso   1.00
H672   H     0.55195   0.41349   0.30076   0.00000  Uiso   1.00
H673   H     0.97602   0.11159   0.67253   0.00000  Uiso   1.00
H674   H     0.94545   0.14938   0.67883   0.00000  Uiso   1.00
H675   H     0.92844   0.10484   0.66375   0.00000  Uiso   1.00
H676   H     0.62003   0.27858   0.20951   0.00000  Uiso   1.00
H677   H     0.66296   0.25906   0.22391   0.00000  Uiso   1.00
H678   H     0.66283   0.30190   0.19922   0.00000  Uiso   1.00
H679   H     0.76874   0.38270   0.78205   0.00000  Uiso   1.00
H680   H     0.80320   0.35502   0.80561   0.00000  Uiso   1.00
H681   H     0.76465   0.33388   0.78282   0.00000  Uiso   1.00
H682   H     0.84248   0.49867   0.96444   0.00000  Uiso   1.00
H683   H     0.65317   0.06406   0.32681   0.00000  Uiso   1.00
H684   H     0.61860   0.03093   0.33730   0.00000  Uiso   1.00
H685   H     0.60758   0.07838   0.34178   0.00000  Uiso   1.00
H686   H     0.53675   0.34771   0.68594   0.00000  Uiso   1.00
H687   H     0.57797   0.36840   0.66642   0.00000  Uiso   1.00
H688   H     0.53495   0.39169   0.66345   0.00000  Uiso   1.00
H689   H     0.88045   0.22084   0.20840   0.00000  Uiso   1.00
H690   H     0.83755   0.24081   0.22222   0.00000  Uiso   1.00
H691   H     0.83757   0.19773   0.19805   0.00000  Uiso   1.00
H692   H     0.65703   0.03687   0.68159   0.00000  Uiso   1.00
O693   O     0.75000  -0.00000   0.25000   0.00000  Uiso   1.00
O694   O     0.75000   0.46963   0.66245   0.00000  Uiso   1.00
O695   O     0.96963   0.25000   0.33755   0.00000  Uiso   1.00
O696   O     0.53036   0.25000   0.66245   0.00000  Uiso   1.00
O697   O     0.50000   0.21963   0.83755   0.00000  Uiso   1.00
O698   O     0.50000   0.28037   0.16245   0.00000  Uiso   1.00
O699   O     0.78036  -0.00000   0.83755   0.00000  Uiso   1.00
O700   O     0.71963  -0.00000   0.16245   0.00000  Uiso   1.00
O701   O     0.50000   0.28037   0.83755   0.00000  Uiso   1.00
O702   O     0.50000   0.21963   0.16245   0.00000  Uiso   1.00
O703   O     0.71963  -0.00000   0.83755   0.00000  Uiso   1.00
O704   O     0.75000  -0.00000   0.75000   0.00000  Uiso   1.00
O705   O     0.78036  -0.00000   0.16245   0.00000  Uiso   1.00
O706   O     0.70724   0.07307   0.27302   0.00000  Uiso   1.00
O707   O     0.79275   0.42692   0.72698   0.00000  Uiso   1.00
O708   O     0.92692   0.20724   0.27302   0.00000  Uiso   1.00
O709   O     0.57307   0.29276   0.72698   0.00000  Uiso   1.00
O710   O     0.79275   0.42692   0.27302   0.00000  Uiso   1.00
O711   O     0.70724   0.07307   0.72698   0.00000  Uiso   1.00
O712   O     0.57307   0.29276   0.27302   0.00000  Uiso   1.00
O713   O     0.92692   0.20724   0.72698   0.00000  Uiso   1.00
O714   O     0.70724   0.42692   0.72698   0.00000  Uiso   1.00
O715   O     0.50000   0.25000   0.25000   0.00000  Uiso   1.00
O716   O     0.79275   0.07307   0.27302   0.00000  Uiso   1.00
O717   O     0.92692   0.29275   0.72698   0.00000  Uiso   1.00
O718   O     0.57307   0.20725   0.27302   0.00000  Uiso   1.00
O719   O     0.79275   0.07307   0.72698   0.00000  Uiso   1.00
O720   O     0.70724   0.42692   0.27302   0.00000  Uiso   1.00
O721   O     0.57307   0.20725   0.72698   0.00000  Uiso   1.00
O722   O     0.92692   0.29275   0.27302   0.00000  Uiso   1.00
O723   O     0.95724   0.32307   0.77302   0.00000  Uiso   1.00
O724   O     0.54275   0.17693   0.22698   0.00000  Uiso   1.00
O725   O     0.67692   0.45725   0.77302   0.00000  Uiso   1.00
O726   O     0.50000   0.25000   0.75000   0.00000  Uiso   1.00
O727   O     0.82307   0.04275   0.22698   0.00000  Uiso   1.00
O728   O     0.54275   0.17693   0.77302   0.00000  Uiso   1.00
O729   O     0.95724   0.32307   0.22698   0.00000  Uiso   1.00
O730   O     0.82307   0.04275   0.77302   0.00000  Uiso   1.00
O731   O     0.67692   0.45725   0.22698   0.00000  Uiso   1.00
O732   O     0.95724   0.17692   0.22698   0.00000  Uiso   1.00
O733   O     0.54275   0.32308   0.77302   0.00000  Uiso   1.00
O734   O     0.67692   0.04275   0.22698   0.00000  Uiso   1.00
O735   O     0.82307   0.45724   0.77302   0.00000  Uiso   1.00
O736   O     0.54275   0.32308   0.22698   0.00000  Uiso   1.00
O737   O     0.75000   0.46963   0.33755   0.00000  Uiso   1.00
O738   O     0.95724   0.17692   0.77302   0.00000  Uiso   1.00
O739   O     0.82307   0.45724   0.22698   0.00000  Uiso   1.00
O740   O     0.67692   0.04275   0.77302   0.00000  Uiso   1.00
O741   O     0.60414   0.44836   0.24407   0.00000  Uiso   1.00
O742   O     0.80519   0.14100   0.77818   0.00000  Uiso   1.00
O743   O     0.63828   0.19233   0.21464   0.00000  Uiso   1.00
O744   O     0.94814   0.39547   0.75749   0.00000  Uiso   1.00
O745   O     0.89588   0.05162   0.24470   0.00000  Uiso   1.00
O746   O     0.69342   0.35911   0.78200   0.00000  Uiso   1.00
O747   O     0.86066   0.30800   0.21418   0.00000  Uiso   1.00
O748   O     0.75000   0.03036   0.66245   0.00000  Uiso   1.00
O749   O     0.63582   0.18967   0.79146   0.00000  Uiso   1.00
O750   O     0.69020   0.13746   0.79029   0.00000  Uiso   1.00
O751   O     0.80763   0.36138   0.21483   0.00000  Uiso   1.00
O752   O     0.64110   0.30524   0.77819   0.00000  Uiso   1.00
O753   O     0.94828   0.10446   0.24342   0.00000  Uiso   1.00
O754   O     0.89575   0.44822   0.75635   0.00000  Uiso   1.00
O755   O     0.69170   0.13919   0.21334   0.00000  Uiso   1.00
O756   O     0.85884   0.19356   0.78137   0.00000  Uiso   1.00
O757   O     0.55177   0.39552   0.24264   0.00000  Uiso   1.00
O758   O     0.94477   0.10891   0.72183   0.00000  Uiso   1.00
O759   O     0.53036   0.25000   0.33755   0.00000  Uiso   1.00
O760   O     0.64553   0.30181   0.25762   0.00000  Uiso   1.00
O761   O     0.80177   0.35426   0.74368   0.00000  Uiso   1.00
O762   O     0.61170   0.05768   0.28539   0.00000  Uiso   1.00
O763   O     0.55643   0.39114   0.71858   0.00000  Uiso   1.00
O764   O     0.85442   0.19828   0.25658   0.00000  Uiso   1.00
O765   O     0.61252   0.05982   0.70970   0.00000  Uiso   1.00
O766   O     0.88862   0.44233   0.28524   0.00000  Uiso   1.00
O767   O     0.94203   0.38933   0.28581   0.00000  Uiso   1.00
O768   O     0.56032   0.11421   0.70853   0.00000  Uiso   1.00
O769   O     0.80159   0.14591   0.25507   0.00000  Uiso   1.00
O770   O     0.96963   0.25000   0.66245   0.00000  Uiso   1.00
O771   O     0.60899   0.44481   0.72182   0.00000  Uiso   1.00
O772   O     0.55817   0.11056   0.28623   0.00000  Uiso   1.00
O773   O     0.85453   0.30188   0.74244   0.00000  Uiso   1.00
O774   O     0.69836   0.35417   0.25605   0.00000  Uiso   1.00
O775   O     0.89091   0.05658   0.71805   0.00000  Uiso   1.00
O776   O     0.75000   0.03036   0.33755   0.00000  Uiso   1.00
Zn777  Zn    0.70659  -0.00000   0.21735   0.00000  Uiso   1.00
Zn778  Zn    0.54340   0.25000   0.28265   0.00000  Uiso   1.00
Zn779  Zn    0.75000   0.45659   0.71735   0.00000  Uiso   1.00
Zn780  Zn    0.75000   0.04340   0.28265   0.00000  Uiso   1.00
Zn781  Zn    0.54340   0.25000   0.71735   0.00000  Uiso   1.00
Zn782  Zn    0.95659   0.25000   0.28265   0.00000  Uiso   1.00
Zn783  Zn    0.75000   0.04340   0.71735   0.00000  Uiso   1.00
Zn784  Zn    0.75000   0.45659   0.28265   0.00000  Uiso   1.00
Zn785  Zn    0.79340  -0.00000   0.78265   0.00000  Uiso   1.00
Zn786  Zn    0.50000   0.20659   0.21735   0.00000  Uiso   1.00
Zn787  Zn    0.50000   0.29340   0.78265   0.00000  Uiso   1.00
Zn788  Zn    0.79340  -0.00000   0.21735   0.00000  Uiso   1.00
Zn789  Zn    0.70659  -0.00000   0.78265   0.00000  Uiso   1.00
Zn790  Zn    0.50000   0.29340   0.21735   0.00000  Uiso   1.00
Zn791  Zn    0.50000   0.20659   0.78265   0.00000  Uiso   1.00
Zn792  Zn    0.95659   0.25000   0.71735   0.00000  Uiso   1.00
C793   C     0.46676   0.75051   0.41882   0.00000  Uiso   1.00
C794   C     0.28324   0.99955   0.08117   0.00000  Uiso   1.00
C795   C     0.24933   0.53348   0.54070   0.00000  Uiso   1.00
C796   C     0.46652   0.75047   0.45930   0.00000  Uiso   1.00
C797   C     0.03348   0.74929   0.54070   0.00000  Uiso   1.00
C798   C     0.24935   0.53348   0.45929   0.00000  Uiso   1.00
C799   C     0.25035   0.96653   0.54072   0.00000  Uiso   1.00
C800   C     0.28347   0.99964   0.95929   0.00000  Uiso   1.00
C801   C     0.21652   0.50072   0.04071   0.00000  Uiso   1.00
C802   C     0.00066   0.71652   0.95930   0.00000  Uiso   1.00
C803   C     0.49953   0.78347   0.04069   0.00000  Uiso   1.00
C804   C     0.21651   0.50073   0.95929   0.00000  Uiso   1.00
C805   C     0.49958   0.78323   0.91881   0.00000  Uiso   1.00
C806   C     0.28347   0.99959   0.04070   0.00000  Uiso   1.00
C807   C     0.49958   0.78347   0.95928   0.00000  Uiso   1.00
C808   C     0.00064   0.71653   0.04071   0.00000  Uiso   1.00
C809   C     0.09808   0.84809   0.25002   0.00000  Uiso   1.00
C810   C     0.40197   0.65191   0.75035   0.00000  Uiso   1.00
C811   C     0.15197   0.59805   0.24973   0.00000  Uiso   1.00
C812   C     0.34802   0.90198   0.75001   0.00000  Uiso   1.00
C813   C     0.40191   0.65193   0.24999   0.00000  Uiso   1.00
C814   C     0.09809   0.84803   0.74964   0.00000  Uiso   1.00
C815   C     0.34806   0.90195   0.25000   0.00000  Uiso   1.00
C816   C     0.00060   0.71676   0.08119   0.00000  Uiso   1.00
C817   C     0.15199   0.59801   0.75000   0.00000  Uiso   1.00
C818   C     0.09807   0.65193   0.75000   0.00000  Uiso   1.00
C819   C     0.40198   0.84802   0.25000   0.00000  Uiso   1.00
C820   C     0.15192   0.90199   0.75037   0.00000  Uiso   1.00
C821   C     0.34801   0.59804   0.24995   0.00000  Uiso   1.00
C822   C     0.40195   0.84806   0.74999   0.00000  Uiso   1.00
C823   C     0.09801   0.65193   0.25022   0.00000  Uiso   1.00
C824   C     0.34801   0.59808   0.74964   0.00000  Uiso   1.00
C825   C     0.15197   0.90198   0.25002   0.00000  Uiso   1.00
C826   C     0.00000   0.74987   0.47964   0.00000  Uiso   1.00
C827   C     0.28324   0.99962   0.91882   0.00000  Uiso   1.00
C828   C     0.00000   0.74986   0.52036   0.00000  Uiso   1.00
C829   C     0.24986   0.50000   0.47964   0.00000  Uiso   1.00
C830   C     0.24984   0.50001   0.52037   0.00000  Uiso   1.00
C831   C     0.24999   0.50019   0.97963   0.00000  Uiso   1.00
C832   C     0.25000   0.50017   0.02036   0.00000  Uiso   1.00
C833   C     0.00012   0.74999   0.97963   0.00000  Uiso   1.00
C834   C     0.00010   0.75000   0.02036   0.00000  Uiso   1.00
C835   C     0.10720   0.96602   0.28047   0.00000  Uiso   1.00
C836   C     0.30184   0.63092   0.81754   0.00000  Uiso   1.00
C837   C     0.12617   0.69213   0.17576   0.00000  Uiso   1.00
C838   C     0.21675   0.50067   0.08118   0.00000  Uiso   1.00
C839   C     0.46475   0.89721   0.72056   0.00000  Uiso   1.00
C840   C     0.39255   0.53416   0.28118   0.00000  Uiso   1.00
C841   C     0.19721   0.87632   0.81857   0.00000  Uiso   1.00
C842   C     0.38050   0.80384   0.17920   0.00000  Uiso   1.00
C843   C     0.12231   0.68562   0.82959   0.00000  Uiso   1.00
C844   C     0.19343   0.61546   0.82391   0.00000  Uiso   1.00
C845   C     0.30802   0.87321   0.17585   0.00000  Uiso   1.00
C846   C     0.13067   0.80169   0.81742   0.00000  Uiso   1.00
C847   C     0.46450   0.60244   0.28052   0.00000  Uiso   1.00
C848   C     0.39333   0.96563   0.71978   0.00000  Uiso   1.00
C849   C     0.00063   0.71675   0.91883   0.00000  Uiso   1.00
C850   C     0.19506   0.61962   0.17810   0.00000  Uiso   1.00
C851   C     0.37625   0.69815   0.81772   0.00000  Uiso   1.00
C852   C     0.03525   0.89782   0.27958   0.00000  Uiso   1.00
C853   C     0.44831   0.61933   0.68259   0.00000  Uiso   1.00
C854   C     0.14772   0.78509   0.22078   0.00000  Uiso   1.00
C855   C     0.28435   0.85676   0.78023   0.00000  Uiso   1.00
C856   C     0.12342   0.55828   0.32440   0.00000  Uiso   1.00
C857   C     0.05187   0.87374   0.68222   0.00000  Uiso   1.00
C858   C     0.35264   0.71465   0.21953   0.00000  Uiso   1.00
C859   C     0.13452   0.55660   0.67609   0.00000  Uiso   1.00
C860   C     0.49950   0.78324   0.08117   0.00000  Uiso   1.00
C861   C     0.37680   0.94187   0.32422   0.00000  Uiso   1.00
C862   C     0.44626   0.86944   0.32075   0.00000  Uiso   1.00
C863   C     0.06437   0.62772   0.67040   0.00000  Uiso   1.00
C864   C     0.28425   0.64256   0.21853   0.00000  Uiso   1.00
C865   C     0.11906   0.94818   0.68246   0.00000  Uiso   1.00
C866   C     0.05389   0.63069   0.32099   0.00000  Uiso   1.00
C867   C     0.35266   0.78527   0.77937   0.00000  Uiso   1.00
C868   C     0.21598   0.85704   0.21961   0.00000  Uiso   1.00
C869   C     0.37370   0.55276   0.68148   0.00000  Uiso   1.00
C870   C     0.00000   0.74995   0.39849   0.00000  Uiso   1.00
C871   C     0.00001   0.74991   0.60151   0.00000  Uiso   1.00
C872   C     0.24995   0.50000   0.39849   0.00000  Uiso   1.00
C873   C     0.03325   0.74933   0.58118   0.00000  Uiso   1.00
C874   C     0.24989   0.50001   0.60152   0.00000  Uiso   1.00
C875   C     0.24999   0.50011   0.89848   0.00000  Uiso   1.00
C876   C     0.25000   0.50007   0.10151   0.00000  Uiso   1.00
C877   C     0.00008   0.74999   0.89848   0.00000  Uiso   1.00
C878   C     0.00003   0.75000   0.10151   0.00000  Uiso   1.00
C879   C     0.06661   0.74872   0.47975   0.00000  Uiso   1.00
C880   C     0.43340   0.75099   0.52025   0.00000  Uiso   1.00
C881   C     0.25089   0.93341   0.47978   0.00000  Uiso   1.00
C882   C     0.24881   0.56660   0.52022   0.00000  Uiso   1.00
C883   C     0.43340   0.75102   0.47976   0.00000  Uiso   1.00
C884   C     0.24940   0.53324   0.41881   0.00000  Uiso   1.00
C885   C     0.06661   0.74872   0.52024   0.00000  Uiso   1.00
C886   C     0.24882   0.56660   0.47974   0.00000  Uiso   1.00
C887   C     0.25086   0.93341   0.52027   0.00000  Uiso   1.00
C888   C     0.31660   0.99909   0.97975   0.00000  Uiso   1.00
C889   C     0.18339   0.50129   0.02025   0.00000  Uiso   1.00
C890   C     0.00121   0.68340   0.97978   0.00000  Uiso   1.00
C891   C     0.49901   0.81659   0.02022   0.00000  Uiso   1.00
C892   C     0.18339   0.50129   0.97976   0.00000  Uiso   1.00
C893   C     0.31660   0.99906   0.02024   0.00000  Uiso   1.00
C894   C     0.49904   0.81659   0.97973   0.00000  Uiso   1.00
C895   C     0.25036   0.96677   0.58119   0.00000  Uiso   1.00
C896   C     0.00120   0.68340   0.02026   0.00000  Uiso   1.00
C897   C     0.24999   0.50000   0.35601   0.00000  Uiso   1.00
C898   C     0.24997   0.50000   0.64399   0.00000  Uiso   1.00
C899   C    -0.00000   0.74999   0.35601   0.00000  Uiso   1.00
C900   C     0.00000   0.74998   0.64399   0.00000  Uiso   1.00
C901   C     0.00002   0.75000   0.85601   0.00000  Uiso   1.00
C902   C    -0.00000   0.75000   0.14399   0.00000  Uiso   1.00
C903   C     0.25000   0.50003   0.85601   0.00000  Uiso   1.00
C904   C     0.25000   0.50001   0.14399   0.00000  Uiso   1.00
C905   C     0.18000   0.56998   0.24999   0.00000  Uiso   1.00
C906   C     0.03325   0.74935   0.41882   0.00000  Uiso   1.00
C907   C     0.31999   0.93001   0.75000   0.00000  Uiso   1.00
C908   C     0.42998   0.67998   0.25000   0.00000  Uiso   1.00
C909   C     0.07001   0.82000   0.74993   0.00000  Uiso   1.00
C910   C     0.32000   0.93000   0.25000   0.00000  Uiso   1.00
C911   C     0.18002   0.56998   0.75000   0.00000  Uiso   1.00
C912   C     0.07001   0.82002   0.25001   0.00000  Uiso   1.00
C913   C     0.43000   0.67999   0.75006   0.00000  Uiso   1.00
C914   C     0.18000   0.93000   0.75007   0.00000  Uiso   1.00
C915   C     0.32000   0.57000   0.24999   0.00000  Uiso   1.00
C916   C     0.43000   0.82000   0.75000   0.00000  Uiso   1.00
C917   C     0.46676   0.75043   0.58118   0.00000  Uiso   1.00
C918   C     0.07001   0.68003   0.24999   0.00000  Uiso   1.00
C919   C     0.32000   0.57000   0.74993   0.00000  Uiso   1.00
C920   C     0.18000   0.93000   0.25000   0.00000  Uiso   1.00
C921   C     0.07000   0.68000   0.75000   0.00000  Uiso   1.00
C922   C     0.43001   0.81999   0.25000   0.00000  Uiso   1.00
C923   C     0.11485   0.91213   0.24733   0.00000  Uiso   1.00
C924   C     0.34014   0.63261   0.76554   0.00000  Uiso   1.00
C925   C     0.13129   0.65854   0.23107   0.00000  Uiso   1.00
C926   C     0.41200   0.88507   0.75323   0.00000  Uiso   1.00
C927   C     0.38515   0.58787   0.24764   0.00000  Uiso   1.00
C928   C     0.25044   0.96676   0.41884   0.00000  Uiso   1.00
C929   C     0.15953   0.86734   0.76633   0.00000  Uiso   1.00
C930   C     0.36844   0.84144   0.23111   0.00000  Uiso   1.00
C931   C     0.13021   0.65729   0.77159   0.00000  Uiso   1.00
C932   C     0.15749   0.63042   0.77137   0.00000  Uiso   1.00
C933   C     0.34139   0.86851   0.23127   0.00000  Uiso   1.00
C934   C     0.13263   0.84018   0.76557   0.00000  Uiso   1.00
C935   C     0.41206   0.61484   0.24742   0.00000  Uiso   1.00
C936   C     0.38509   0.91204   0.75301   0.00000  Uiso   1.00
C937   C     0.15841   0.63153   0.23071   0.00000  Uiso   1.00
C938   C     0.36727   0.65954   0.76619   0.00000  Uiso   1.00
C939   C     0.24936   0.53325   0.58117   0.00000  Uiso   1.00
C940   C     0.08796   0.88516   0.24706   0.00000  Uiso   1.00
C941   C     0.40983   0.61737   0.73444   0.00000  Uiso   1.00
C942   C     0.13516   0.83797   0.25304   0.00000  Uiso   1.00
C943   C     0.33795   0.86492   0.74700   0.00000  Uiso   1.00
C944   C     0.11866   0.59142   0.26882   0.00000  Uiso   1.00
C945   C     0.09046   0.88272   0.73379   0.00000  Uiso   1.00
C946   C     0.36481   0.66207   0.25253   0.00000  Uiso   1.00
C947   C     0.11957   0.59252   0.72862   0.00000  Uiso   1.00
C948   C     0.38150   0.90860   0.26875   0.00000  Uiso   1.00
C949   C     0.40857   0.88155   0.26890   0.00000  Uiso   1.00
C950   C     0.21675   0.50069   0.91882   0.00000  Uiso   1.00
C951   C     0.09270   0.61980   0.72841   0.00000  Uiso   1.00
C952   C     0.33784   0.63517   0.25223   0.00000  Uiso   1.00
C953   C     0.11739   0.90985   0.73445   0.00000  Uiso   1.00
C954   C     0.09154   0.61842   0.26915   0.00000  Uiso   1.00
C955   C     0.36492   0.83801   0.74675   0.00000  Uiso   1.00
C956   C     0.16212   0.86487   0.25275   0.00000  Uiso   1.00
C957   C     0.38267   0.59047   0.73369   0.00000  Uiso   1.00
C958   C     0.03348   0.74931   0.45929   0.00000  Uiso   1.00
C959   C     0.46653   0.75042   0.54071   0.00000  Uiso   1.00
C960   C     0.25040   0.96653   0.45931   0.00000  Uiso   1.00
H961   H     0.09249   0.74828   0.46445   0.00000  Uiso   1.00
H962   H     0.15751   0.50172   0.03555   0.00000  Uiso   1.00
H963   H     0.14623   0.58292   0.66543   0.00000  Uiso   1.00
H964   H     0.11753   0.54525   0.65231   0.00000  Uiso   1.00
H965   H     0.34692   0.93669   0.32651   0.00000  Uiso   1.00
H966   H     0.38214   0.96908   0.33720   0.00000  Uiso   1.00
H967   H     0.39216   0.92141   0.34162   0.00000  Uiso   1.00
H968   H     0.46364   0.84504   0.31561   0.00000  Uiso   1.00
H969   H     0.41999   0.86088   0.33449   0.00000  Uiso   1.00
H970   H     0.46081   0.88698   0.34197   0.00000  Uiso   1.00
H971   H     0.07053   0.65748   0.67015   0.00000  Uiso   1.00
H972   H     0.03829   0.62382   0.65459   0.00000  Uiso   1.00
H973   H     0.00163   0.65752   0.96448   0.00000  Uiso   1.00
H974   H     0.08582   0.61254   0.65420   0.00000  Uiso   1.00
H975   H     0.26857   0.61667   0.21734   0.00000  Uiso   1.00
H976   H     0.30321   0.64368   0.19319   0.00000  Uiso   1.00
H977   H     0.26450   0.66540   0.21526   0.00000  Uiso   1.00
H978   H     0.14892   0.94413   0.67821   0.00000  Uiso   1.00
H979   H     0.11233   0.97625   0.67264   0.00000  Uiso   1.00
H980   H     0.10351   0.92897   0.66379   0.00000  Uiso   1.00
H981   H     0.03653   0.65508   0.31563   0.00000  Uiso   1.00
H982   H     0.08015   0.63929   0.33471   0.00000  Uiso   1.00
H983   H     0.03927   0.61331   0.34231   0.00000  Uiso   1.00
H984   H     0.49857   0.84247   0.03551   0.00000  Uiso   1.00
H985   H     0.38028   0.77665   0.78913   0.00000  Uiso   1.00
H986   H     0.33533   0.76058   0.77701   0.00000  Uiso   1.00
H987   H     0.33994   0.80303   0.80185   0.00000  Uiso   1.00
H988   H     0.23233   0.88254   0.21850   0.00000  Uiso   1.00
H989   H     0.19718   0.85639   0.19412   0.00000  Uiso   1.00
H990   H     0.23516   0.83371   0.21652   0.00000  Uiso   1.00
H991   H     0.36914   0.57911   0.66588   0.00000  Uiso   1.00
H992   H     0.34722   0.53835   0.68476   0.00000  Uiso   1.00
H993   H     0.39137   0.53554   0.66272   0.00000  Uiso   1.00
H994   H     0.15751   0.50173   0.96446   0.00000  Uiso   1.00
H995   H     0.34248   0.99862   0.03554   0.00000  Uiso   1.00
H996   H     0.49862   0.84247   0.96442   0.00000  Uiso   1.00
H997   H     0.00162   0.65753   0.03558   0.00000  Uiso   1.00
H998   H     0.44102   0.75098   0.40321   0.00000  Uiso   1.00
H999   H     0.05898   0.74890   0.59680   0.00000  Uiso   1.00
H1000  H     0.24900   0.55897   0.40318   0.00000  Uiso   1.00
H1001  H     0.40752   0.75142   0.53555   0.00000  Uiso   1.00
H1002  H     0.25076   0.94104   0.59682   0.00000  Uiso   1.00
H1003  H     0.05898   0.74890   0.40319   0.00000  Uiso   1.00
H1004  H     0.44103   0.75087   0.59680   0.00000  Uiso   1.00
H1005  H     0.25088   0.94102   0.40322   0.00000  Uiso   1.00
H1006  H     0.24897   0.55898   0.59679   0.00000  Uiso   1.00
H1007  H     0.19101   0.50111   0.90320   0.00000  Uiso   1.00
H1008  H     0.30898   0.99908   0.09679   0.00000  Uiso   1.00
H1009  H     0.49916   0.80896   0.90318   0.00000  Uiso   1.00
H1010  H     0.00103   0.69103   0.09682   0.00000  Uiso   1.00
H1011  H     0.30897   0.99918   0.90320   0.00000  Uiso   1.00
H1012  H     0.25130   0.90753   0.46449   0.00000  Uiso   1.00
H1013  H     0.19102   0.50110   0.09680   0.00000  Uiso   1.00
H1014  H     0.00105   0.69102   0.90321   0.00000  Uiso   1.00
H1015  H     0.49904   0.80897   0.09678   0.00000  Uiso   1.00
H1016  H     0.13260   0.98252   0.28133   0.00000  Uiso   1.00
H1017  H     0.10688   0.94723   0.30598   0.00000  Uiso   1.00
H1018  H     0.08377   0.98506   0.28377   0.00000  Uiso   1.00
H1019  H     0.30582   0.60105   0.82178   0.00000  Uiso   1.00
H1020  H     0.27378   0.63771   0.82739   0.00000  Uiso   1.00
H1021  H     0.32111   0.64642   0.83620   0.00000  Uiso   1.00
H1022  H     0.12969   0.71996   0.16356   0.00000  Uiso   1.00
H1023  H     0.24840   0.59248   0.53552   0.00000  Uiso   1.00
H1024  H     0.09667   0.68512   0.17336   0.00000  Uiso   1.00
H1025  H     0.14274   0.67317   0.15777   0.00000  Uiso   1.00
H1026  H     0.47360   0.86959   0.71105   0.00000  Uiso   1.00
H1027  H     0.48932   0.91474   0.72279   0.00000  Uiso   1.00
H1028  H     0.44691   0.90961   0.69794   0.00000  Uiso   1.00
H1029  H     0.36717   0.51763   0.28192   0.00000  Uiso   1.00
H1030  H     0.39265   0.55308   0.30658   0.00000  Uiso   1.00
H1031  H     0.41598   0.51518   0.28482   0.00000  Uiso   1.00
H1032  H     0.17085   0.88087   0.83415   0.00000  Uiso   1.00
H1033  H     0.21161   0.90280   0.81529   0.00000  Uiso   1.00
H1034  H     0.40752   0.75147   0.46446   0.00000  Uiso   1.00
H1035  H     0.21443   0.85866   0.83735   0.00000  Uiso   1.00
H1036  H     0.40498   0.78653   0.18430   0.00000  Uiso   1.00
H1037  H     0.38896   0.83013   0.16545   0.00000  Uiso   1.00
H1038  H     0.36297   0.78923   0.15802   0.00000  Uiso   1.00
H1039  H     0.09253   0.67954   0.82984   0.00000  Uiso   1.00
H1040  H     0.12628   0.71168   0.84541   0.00000  Uiso   1.00
H1041  H     0.13744   0.66413   0.84578   0.00000  Uiso   1.00
H1042  H     0.21316   0.59296   0.81841   0.00000  Uiso   1.00
H1043  H     0.16711   0.60375   0.83456   0.00000  Uiso   1.00
H1044  H     0.20477   0.63245   0.84768   0.00000  Uiso   1.00
H1045  H     0.09249   0.74827   0.53554   0.00000  Uiso   1.00
H1046  H     0.31326   0.90307   0.17353   0.00000  Uiso   1.00
H1047  H     0.28076   0.86793   0.16295   0.00000  Uiso   1.00
H1048  H     0.32839   0.85780   0.15840   0.00000  Uiso   1.00
H1049  H     0.13841   0.77398   0.82748   0.00000  Uiso   1.00
H1050  H     0.10062   0.80456   0.82118   0.00000  Uiso   1.00
H1051  H     0.14517   0.82155   0.83627   0.00000  Uiso   1.00
H1052  H     0.47026   0.63018   0.29208   0.00000  Uiso   1.00
H1053  H     0.49088   0.58775   0.27776   0.00000  Uiso   1.00
H1054  H     0.44766   0.58685   0.30166   0.00000  Uiso   1.00
H1055  H     0.36732   0.98111   0.71782   0.00000  Uiso   1.00
H1056  H     0.24842   0.59248   0.46442   0.00000  Uiso   1.00
H1057  H     0.39527   0.94678   0.69442   0.00000  Uiso   1.00
H1058  H     0.41613   0.98542   0.71730   0.00000  Uiso   1.00
H1059  H     0.16842   0.61273   0.16413   0.00000  Uiso   1.00
H1060  H     0.21105   0.59421   0.18284   0.00000  Uiso   1.00
H1061  H     0.21063   0.63667   0.15726   0.00000  Uiso   1.00
H1062  H     0.40226   0.71332   0.81399   0.00000  Uiso   1.00
H1063  H     0.38165   0.67207   0.83353   0.00000  Uiso   1.00
H1064  H     0.35828   0.71503   0.83650   0.00000  Uiso   1.00
H1065  H     0.02933   0.87016   0.29129   0.00000  Uiso   1.00
H1066  H     0.00893   0.91255   0.27646   0.00000  Uiso   1.00
H1067  H     0.25125   0.90753   0.53558   0.00000  Uiso   1.00
H1068  H     0.05195   0.91349   0.30076   0.00000  Uiso   1.00
H1069  H     0.47602   0.61159   0.67253   0.00000  Uiso   1.00
H1070  H     0.44545   0.64938   0.67883   0.00000  Uiso   1.00
H1071  H     0.42844   0.60484   0.66375   0.00000  Uiso   1.00
H1072  H     0.12003   0.77858   0.20951   0.00000  Uiso   1.00
H1073  H     0.16296   0.75906   0.22391   0.00000  Uiso   1.00
H1074  H     0.16283   0.80190   0.19922   0.00000  Uiso   1.00
H1075  H     0.26874   0.88270   0.78205   0.00000  Uiso   1.00
H1076  H     0.30320   0.85502   0.80561   0.00000  Uiso   1.00
H1077  H     0.26465   0.83388   0.78282   0.00000  Uiso   1.00
H1078  H     0.34248   0.99867   0.96444   0.00000  Uiso   1.00
H1079  H     0.15317   0.56406   0.32681   0.00000  Uiso   1.00
H1080  H     0.11860   0.53093   0.33730   0.00000  Uiso   1.00
H1081  H     0.10758   0.57838   0.34178   0.00000  Uiso   1.00
H1082  H     0.03675   0.84771   0.68594   0.00000  Uiso   1.00
H1083  H     0.07797   0.86840   0.66642   0.00000  Uiso   1.00
H1084  H     0.03495   0.89169   0.66345   0.00000  Uiso   1.00
H1085  H     0.38045   0.72084   0.20840   0.00000  Uiso   1.00
H1086  H     0.33755   0.74081   0.22222   0.00000  Uiso   1.00
H1087  H     0.33757   0.69773   0.19805   0.00000  Uiso   1.00
H1088  H     0.15703   0.53687   0.68159   0.00000  Uiso   1.00
O1089  O     0.25000   0.50000   0.25000   0.00000  Uiso   1.00
O1090  O     0.25000   0.96963   0.66245   0.00000  Uiso   1.00
O1091  O     0.46963   0.75000   0.33755   0.00000  Uiso   1.00
O1092  O     0.03036   0.75000   0.66245   0.00000  Uiso   1.00
O1093  O    -0.00000   0.71963   0.83755   0.00000  Uiso   1.00
O1094  O     0.00000   0.78037   0.16245   0.00000  Uiso   1.00
O1095  O     0.28036   0.50000   0.83755   0.00000  Uiso   1.00
O1096  O     0.21963   0.50000   0.16245   0.00000  Uiso   1.00
O1097  O     0.00000   0.78037   0.83755   0.00000  Uiso   1.00
O1098  O    -0.00000   0.71963   0.16245   0.00000  Uiso   1.00
O1099  O     0.21963   0.50000   0.83755   0.00000  Uiso   1.00
O1100  O     0.25000   0.50000   0.75000   0.00000  Uiso   1.00
O1101  O     0.28036   0.50000   0.16245   0.00000  Uiso   1.00
O1102  O     0.20724   0.57307   0.27302   0.00000  Uiso   1.00
O1103  O     0.29275   0.92692   0.72698   0.00000  Uiso   1.00
O1104  O     0.42692   0.70724   0.27302   0.00000  Uiso   1.00
O1105  O     0.07307   0.79276   0.72698   0.00000  Uiso   1.00
O1106  O     0.29275   0.92692   0.27302   0.00000  Uiso   1.00
O1107  O     0.20724   0.57307   0.72698   0.00000  Uiso   1.00
O1108  O     0.07307   0.79276   0.27302   0.00000  Uiso   1.00
O1109  O     0.42692   0.70724   0.72698   0.00000  Uiso   1.00
O1110  O     0.20724   0.92692   0.72698   0.00000  Uiso   1.00
O1111  O     0.00000   0.75000   0.25000   0.00000  Uiso   1.00
O1112  O     0.29275   0.57307   0.27302   0.00000  Uiso   1.00
O1113  O     0.42692   0.79275   0.72698   0.00000  Uiso   1.00
O1114  O     0.07307   0.70725   0.27302   0.00000  Uiso   1.00
O1115  O     0.29275   0.57307   0.72698   0.00000  Uiso   1.00
O1116  O     0.20724   0.92692   0.27302   0.00000  Uiso   1.00
O1117  O     0.07307   0.70725   0.72698   0.00000  Uiso   1.00
O1118  O     0.42692   0.79275   0.27302   0.00000  Uiso   1.00
O1119  O     0.45724   0.82307   0.77302   0.00000  Uiso   1.00
O1120  O     0.04275   0.67693   0.22698   0.00000  Uiso   1.00
O1121  O     0.17692   0.95725   0.77302   0.00000  Uiso   1.00
O1122  O     0.00000   0.75000   0.75000   0.00000  Uiso   1.00
O1123  O     0.32307   0.54275   0.22698   0.00000  Uiso   1.00
O1124  O     0.04275   0.67693   0.77302   0.00000  Uiso   1.00
O1125  O     0.45724   0.82307   0.22698   0.00000  Uiso   1.00
O1126  O     0.32307   0.54275   0.77302   0.00000  Uiso   1.00
O1127  O     0.17692   0.95725   0.22698   0.00000  Uiso   1.00
O1128  O     0.45724   0.67692   0.22698   0.00000  Uiso   1.00
O1129  O     0.04275   0.82308   0.77302   0.00000  Uiso   1.00
O1130  O     0.17692   0.54275   0.22698   0.00000  Uiso   1.00
O1131  O     0.32307   0.95724   0.77302   0.00000  Uiso   1.00
O1132  O     0.04275   0.82308   0.22698   0.00000  Uiso   1.00
O1133  O     0.25000   0.96963   0.33755   0.00000  Uiso   1.00
O1134  O     0.45724   0.67692   0.77302   0.00000  Uiso   1.00
O1135  O     0.32307   0.95724   0.22698   0.00000  Uiso   1.00
O1136  O     0.17692   0.54275   0.77302   0.00000  Uiso   1.00
O1137  O     0.10414   0.94836   0.24407   0.00000  Uiso   1.00
O1138  O     0.30519   0.64100   0.77818   0.00000  Uiso   1.00
O1139  O     0.13828   0.69233   0.21464   0.00000  Uiso   1.00
O1140  O     0.44814   0.89547   0.75749   0.00000  Uiso   1.00
O1141  O     0.39588   0.55162   0.24470   0.00000  Uiso   1.00
O1142  O     0.19342   0.85911   0.78200   0.00000  Uiso   1.00
O1143  O     0.36066   0.80800   0.21418   0.00000  Uiso   1.00
O1144  O     0.25000   0.53036   0.66245   0.00000  Uiso   1.00
O1145  O     0.13582   0.68967   0.79146   0.00000  Uiso   1.00
O1146  O     0.19020   0.63746   0.79029   0.00000  Uiso   1.00
O1147  O     0.30763   0.86138   0.21483   0.00000  Uiso   1.00
O1148  O     0.14110   0.80524   0.77819   0.00000  Uiso   1.00
O1149  O     0.44828   0.60446   0.24342   0.00000  Uiso   1.00
O1150  O     0.39575   0.94822   0.75635   0.00000  Uiso   1.00
O1151  O     0.19170   0.63919   0.21334   0.00000  Uiso   1.00
O1152  O     0.35884   0.69356   0.78137   0.00000  Uiso   1.00
O1153  O     0.05177   0.89552   0.24264   0.00000  Uiso   1.00
O1154  O     0.44477   0.60891   0.72183   0.00000  Uiso   1.00
O1155  O     0.03036   0.75000   0.33755   0.00000  Uiso   1.00
O1156  O     0.14553   0.80181   0.25762   0.00000  Uiso   1.00
O1157  O     0.30177   0.85426   0.74368   0.00000  Uiso   1.00
O1158  O     0.11170   0.55768   0.28539   0.00000  Uiso   1.00
O1159  O     0.05643   0.89114   0.71858   0.00000  Uiso   1.00
O1160  O     0.35442   0.69828   0.25658   0.00000  Uiso   1.00
O1161  O     0.11252   0.55982   0.70970   0.00000  Uiso   1.00
O1162  O     0.38862   0.94233   0.28524   0.00000  Uiso   1.00
O1163  O     0.44203   0.88933   0.28581   0.00000  Uiso   1.00
O1164  O     0.06032   0.61421   0.70853   0.00000  Uiso   1.00
O1165  O     0.30159   0.64591   0.25507   0.00000  Uiso   1.00
O1166  O     0.46963   0.75000   0.66245   0.00000  Uiso   1.00
O1167  O     0.10899   0.94481   0.72182   0.00000  Uiso   1.00
O1168  O     0.05817   0.61056   0.28623   0.00000  Uiso   1.00
O1169  O     0.35453   0.80188   0.74244   0.00000  Uiso   1.00
O1170  O     0.19836   0.85417   0.25605   0.00000  Uiso   1.00
O1171  O     0.39091   0.55658   0.71805   0.00000  Uiso   1.00
O1172  O     0.25000   0.53036   0.33755   0.00000  Uiso   1.00
Zn1173 Zn    0.20659   0.50000   0.21735   0.00000  Uiso   1.00
Zn1174 Zn    0.04340   0.75000   0.28265   0.00000  Uiso   1.00
Zn1175 Zn    0.25000   0.95659   0.71735   0.00000  Uiso   1.00
Zn1176 Zn    0.25000   0.54340   0.28265   0.00000  Uiso   1.00
Zn1177 Zn    0.04340   0.75000   0.71735   0.00000  Uiso   1.00
Zn1178 Zn    0.45659   0.75000   0.28265   0.00000  Uiso   1.00
Zn1179 Zn    0.25000   0.54340   0.71735   0.00000  Uiso   1.00
Zn1180 Zn    0.25000   0.95659   0.28265   0.00000  Uiso   1.00
Zn1181 Zn    0.29340   0.50000   0.78265   0.00000  Uiso   1.00
Zn1182 Zn   -0.00000   0.70659   0.21735   0.00000  Uiso   1.00
Zn1183 Zn   -0.00000   0.79340   0.78265   0.00000  Uiso   1.00
Zn1184 Zn    0.29340   0.50000   0.21735   0.00000  Uiso   1.00
Zn1185 Zn    0.20659   0.50000   0.78265   0.00000  Uiso   1.00
Zn1186 Zn   -0.00000   0.79340   0.21735   0.00000  Uiso   1.00
Zn1187 Zn   -0.00000   0.70659   0.78265   0.00000  Uiso   1.00
Zn1188 Zn    0.45659   0.75000   0.71735   0.00000  Uiso   1.00
C1189  C     0.96676   0.75051   0.41882   0.00000  Uiso   1.00
C1190  C     0.78324   0.99955   0.08117   0.00000  Uiso   1.00
C1191  C     0.74933   0.53348   0.54070   0.00000  Uiso   1.00
C1192  C     0.96652   0.75047   0.45930   0.00000  Uiso   1.00
C1193  C     0.53348   0.74929   0.54070   0.00000  Uiso   1.00
C1194  C     0.74935   0.53348   0.45929   0.00000  Uiso   1.00
C1195  C     0.75035   0.96653   0.54072   0.00000  Uiso   1.00
C1196  C     0.78347   0.99964   0.95929   0.00000  Uiso   1.00
C1197  C     0.71652   0.50072   0.04071   0.00000  Uiso   1.00
C1198  C     0.50066   0.71652   0.95930   0.00000  Uiso   1.00
C1199  C     0.99953   0.78347   0.04069   0.00000  Uiso   1.00
C1200  C     0.71651   0.50073   0.95929   0.00000  Uiso   1.00
C1201  C     0.99958   0.78323   0.91881   0.00000  Uiso   1.00
C1202  C     0.78347   0.99959   0.04070   0.00000  Uiso   1.00
C1203  C     0.99958   0.78347   0.95928   0.00000  Uiso   1.00
C1204  C     0.50064   0.71653   0.04071   0.00000  Uiso   1.00
C1205  C     0.59808   0.84809   0.25002   0.00000  Uiso   1.00
C1206  C     0.90197   0.65191   0.75035   0.00000  Uiso   1.00
C1207  C     0.65197   0.59805   0.24973   0.00000  Uiso   1.00
C1208  C     0.84802   0.90198   0.75001   0.00000  Uiso   1.00
C1209  C     0.90191   0.65193   0.24999   0.00000  Uiso   1.00
C1210  C     0.59809   0.84803   0.74964   0.00000  Uiso   1.00
C1211  C     0.84806   0.90195   0.25000   0.00000  Uiso   1.00
C1212  C     0.50060   0.71676   0.08119   0.00000  Uiso   1.00
C1213  C     0.65199   0.59801   0.75000   0.00000  Uiso   1.00
C1214  C     0.59807   0.65193   0.75000   0.00000  Uiso   1.00
C1215  C     0.90198   0.84802   0.25000   0.00000  Uiso   1.00
C1216  C     0.65192   0.90199   0.75037   0.00000  Uiso   1.00
C1217  C     0.84801   0.59804   0.24995   0.00000  Uiso   1.00
C1218  C     0.90195   0.84806   0.74999   0.00000  Uiso   1.00
C1219  C     0.59801   0.65193   0.25022   0.00000  Uiso   1.00
C1220  C     0.84801   0.59808   0.74964   0.00000  Uiso   1.00
C1221  C     0.65197   0.90198   0.25002   0.00000  Uiso   1.00
C1222  C     0.50000   0.74987   0.47964   0.00000  Uiso   1.00
C1223  C     0.78324   0.99962   0.91882   0.00000  Uiso   1.00
C1224  C     0.50000   0.74986   0.52036   0.00000  Uiso   1.00
C1225  C     0.74986   0.50000   0.47964   0.00000  Uiso   1.00
C1226  C     0.74984   0.50001   0.52037   0.00000  Uiso   1.00
C1227  C     0.74999   0.50019   0.97963   0.00000  Uiso   1.00
C1228  C     0.75000   0.50017   0.02036   0.00000  Uiso   1.00
C1229  C     0.50012   0.74999   0.97963   0.00000  Uiso   1.00
C1230  C     0.50010   0.75000   0.02036   0.00000  Uiso   1.00
C1231  C     0.60720   0.96602   0.28047   0.00000  Uiso   1.00
C1232  C     0.80184   0.63092   0.81754   0.00000  Uiso   1.00
C1233  C     0.62617   0.69213   0.17576   0.00000  Uiso   1.00
C1234  C     0.71675   0.50067   0.08118   0.00000  Uiso   1.00
C1235  C     0.96475   0.89721   0.72056   0.00000  Uiso   1.00
C1236  C     0.89255   0.53416   0.28118   0.00000  Uiso   1.00
C1237  C     0.69721   0.87632   0.81857   0.00000  Uiso   1.00
C1238  C     0.88050   0.80384   0.17920   0.00000  Uiso   1.00
C1239  C     0.62231   0.68562   0.82959   0.00000  Uiso   1.00
C1240  C     0.69343   0.61546   0.82391   0.00000  Uiso   1.00
C1241  C     0.80802   0.87321   0.17585   0.00000  Uiso   1.00
C1242  C     0.63067   0.80169   0.81742   0.00000  Uiso   1.00
C1243  C     0.96450   0.60244   0.28052   0.00000  Uiso   1.00
C1244  C     0.89333   0.96563   0.71978   0.00000  Uiso   1.00
C1245  C     0.50063   0.71675   0.91883   0.00000  Uiso   1.00
C1246  C     0.69506   0.61962   0.17810   0.00000  Uiso   1.00
C1247  C     0.87625   0.69815   0.81772   0.00000  Uiso   1.00
C1248  C     0.53525   0.89782   0.27958   0.00000  Uiso   1.00
C1249  C     0.94831   0.61933   0.68259   0.00000  Uiso   1.00
C1250  C     0.64772   0.78509   0.22078   0.00000  Uiso   1.00
C1251  C     0.78435   0.85676   0.78023   0.00000  Uiso   1.00
C1252  C     0.62342   0.55828   0.32440   0.00000  Uiso   1.00
C1253  C     0.55187   0.87374   0.68222   0.00000  Uiso   1.00
C1254  C     0.85264   0.71465   0.21953   0.00000  Uiso   1.00
C1255  C     0.63452   0.55660   0.67609   0.00000  Uiso   1.00
C1256  C     0.99950   0.78324   0.08117   0.00000  Uiso   1.00
C1257  C     0.87680   0.94187   0.32422   0.00000  Uiso   1.00
C1258  C     0.94626   0.86944   0.32075   0.00000  Uiso   1.00
C1259  C     0.56437   0.62772   0.67040   0.00000  Uiso   1.00
C1260  C     0.78425   0.64256   0.21853   0.00000  Uiso   1.00
C1261  C     0.61906   0.94818   0.68246   0.00000  Uiso   1.00
C1262  C     0.55389   0.63069   0.32099   0.00000  Uiso   1.00
C1263  C     0.85266   0.78527   0.77937   0.00000  Uiso   1.00
C1264  C     0.71598   0.85704   0.21961   0.00000  Uiso   1.00
C1265  C     0.87370   0.55276   0.68148   0.00000  Uiso   1.00
C1266  C     0.50000   0.74995   0.39849   0.00000  Uiso   1.00
C1267  C     0.50001   0.74991   0.60151   0.00000  Uiso   1.00
C1268  C     0.74995   0.50000   0.39849   0.00000  Uiso   1.00
C1269  C     0.53325   0.74933   0.58118   0.00000  Uiso   1.00
C1270  C     0.74989   0.50001   0.60152   0.00000  Uiso   1.00
C1271  C     0.74999   0.50011   0.89848   0.00000  Uiso   1.00
C1272  C     0.75000   0.50007   0.10151   0.00000  Uiso   1.00
C1273  C     0.50008   0.74999   0.89848   0.00000  Uiso   1.00
C1274  C     0.50003   0.75000   0.10151   0.00000  Uiso   1.00
C1275  C     0.56661   0.74872   0.47975   0.00000  Uiso   1.00
C1276  C     0.93340   0.75099   0.52025   0.00000  Uiso   1.00
C1277  C     0.75089   0.93341   0.47978   0.00000  Uiso   1.00
C1278  C     0.74881   0.56660   0.52022   0.00000  Uiso   1.00
C1279  C     0.93340   0.75102   0.47976   0.00000  Uiso   1.00
C1280  C     0.74940   0.53324   0.41881   0.00000  Uiso   1.00
C1281  C     0.56661   0.74872   0.52024   0.00000  Uiso   1.00
C1282  C     0.74882   0.56660   0.47974   0.00000  Uiso   1.00
C1283  C     0.75086   0.93341   0.52027   0.00000  Uiso   1.00
C1284  C     0.81660   0.99909   0.97975   0.00000  Uiso   1.00
C1285  C     0.68339   0.50129   0.02025   0.00000  Uiso   1.00
C1286  C     0.50121   0.68340   0.97978   0.00000  Uiso   1.00
C1287  C     0.99901   0.81659   0.02022   0.00000  Uiso   1.00
C1288  C     0.68339   0.50129   0.97976   0.00000  Uiso   1.00
C1289  C     0.81660   0.99906   0.02024   0.00000  Uiso   1.00
C1290  C     0.99904   0.81659   0.97973   0.00000  Uiso   1.00
C1291  C     0.75036   0.96677   0.58119   0.00000  Uiso   1.00
C1292  C     0.50120   0.68340   0.02026   0.00000  Uiso   1.00
C1293  C     0.74999   0.50000   0.35601   0.00000  Uiso   1.00
C1294  C     0.74997   0.50000   0.64399   0.00000  Uiso   1.00
C1295  C     0.50000   0.74999   0.35601   0.00000  Uiso   1.00
C1296  C     0.50000   0.74998   0.64399   0.00000  Uiso   1.00
C1297  C     0.50002   0.75000   0.85601   0.00000  Uiso   1.00
C1298  C     0.50000   0.75000   0.14399   0.00000  Uiso   1.00
C1299  C     0.75000   0.50003   0.85601   0.00000  Uiso   1.00
C1300  C     0.75000   0.50001   0.14399   0.00000  Uiso   1.00
C1301  C     0.68000   0.56998   0.24999   0.00000  Uiso   1.00
C1302  C     0.53325   0.74935   0.41882   0.00000  Uiso   1.00
C1303  C     0.81999   0.93001   0.75000   0.00000  Uiso   1.00
C1304  C     0.92998   0.67998   0.25000   0.00000  Uiso   1.00
C1305  C     0.57001   0.82000   0.74993   0.00000  Uiso   1.00
C1306  C     0.82000   0.93000   0.25000   0.00000  Uiso   1.00
C1307  C     0.68002   0.56998   0.75000   0.00000  Uiso   1.00
C1308  C     0.57001   0.82002   0.25001   0.00000  Uiso   1.00
C1309  C     0.93000   0.67999   0.75006   0.00000  Uiso   1.00
C1310  C     0.68000   0.93000   0.75007   0.00000  Uiso   1.00
C1311  C     0.82000   0.57000   0.24999   0.00000  Uiso   1.00
C1312  C     0.93000   0.82000   0.75000   0.00000  Uiso   1.00
C1313  C     0.96676   0.75043   0.58118   0.00000  Uiso   1.00
C1314  C     0.57001   0.68003   0.24999   0.00000  Uiso   1.00
C1315  C     0.82000   0.57000   0.74993   0.00000  Uiso   1.00
C1316  C     0.68000   0.93000   0.25000   0.00000  Uiso   1.00
C1317  C     0.57000   0.68000   0.75000   0.00000  Uiso   1.00
C1318  C     0.93001   0.81999   0.25000   0.00000  Uiso   1.00
C1319  C     0.61485   0.91213   0.24733   0.00000  Uiso   1.00
C1320  C     0.84014   0.63261   0.76554   0.00000  Uiso   1.00
C1321  C     0.63129   0.65854   0.23107   0.00000  Uiso   1.00
C1322  C     0.91200   0.88507   0.75323   0.00000  Uiso   1.00
C1323  C     0.88515   0.58787   0.24764   0.00000  Uiso   1.00
C1324  C     0.75044   0.96676   0.41884   0.00000  Uiso   1.00
C1325  C     0.65953   0.86734   0.76633   0.00000  Uiso   1.00
C1326  C     0.86844   0.84144   0.23111   0.00000  Uiso   1.00
C1327  C     0.63021   0.65729   0.77159   0.00000  Uiso   1.00
C1328  C     0.65749   0.63042   0.77137   0.00000  Uiso   1.00
C1329  C     0.84139   0.86851   0.23127   0.00000  Uiso   1.00
C1330  C     0.63263   0.84018   0.76557   0.00000  Uiso   1.00
C1331  C     0.91206   0.61484   0.24742   0.00000  Uiso   1.00
C1332  C     0.88509   0.91204   0.75301   0.00000  Uiso   1.00
C1333  C     0.65841   0.63153   0.23071   0.00000  Uiso   1.00
C1334  C     0.86727   0.65954   0.76619   0.00000  Uiso   1.00
C1335  C     0.74936   0.53325   0.58117   0.00000  Uiso   1.00
C1336  C     0.58796   0.88516   0.24706   0.00000  Uiso   1.00
C1337  C     0.90983   0.61737   0.73444   0.00000  Uiso   1.00
C1338  C     0.63516   0.83797   0.25304   0.00000  Uiso   1.00
C1339  C     0.83795   0.86492   0.74700   0.00000  Uiso   1.00
C1340  C     0.61866   0.59142   0.26882   0.00000  Uiso   1.00
C1341  C     0.59046   0.88272   0.73379   0.00000  Uiso   1.00
C1342  C     0.86481   0.66207   0.25253   0.00000  Uiso   1.00
C1343  C     0.61957   0.59252   0.72862   0.00000  Uiso   1.00
C1344  C     0.88150   0.90860   0.26875   0.00000  Uiso   1.00
C1345  C     0.90857   0.88155   0.26890   0.00000  Uiso   1.00
C1346  C     0.71675   0.50069   0.91882   0.00000  Uiso   1.00
C1347  C     0.59270   0.61980   0.72841   0.00000  Uiso   1.00
C1348  C     0.83784   0.63517   0.25223   0.00000  Uiso   1.00
C1349  C     0.61739   0.90985   0.73445   0.00000  Uiso   1.00
C1350  C     0.59154   0.61842   0.26915   0.00000  Uiso   1.00
C1351  C     0.86492   0.83801   0.74675   0.00000  Uiso   1.00
C1352  C     0.66212   0.86487   0.25275   0.00000  Uiso   1.00
C1353  C     0.88267   0.59047   0.73369   0.00000  Uiso   1.00
C1354  C     0.53348   0.74931   0.45929   0.00000  Uiso   1.00
C1355  C     0.96653   0.75042   0.54071   0.00000  Uiso   1.00
C1356  C     0.75040   0.96653   0.45931   0.00000  Uiso   1.00
H1357  H     0.59249   0.74828   0.46445   0.00000  Uiso   1.00
H1358  H     0.65751   0.50172   0.03555   0.00000  Uiso   1.00
H1359  H     0.64623   0.58292   0.66543   0.00000  Uiso   1.00
H1360  H     0.61753   0.54525   0.65231   0.00000  Uiso   1.00
H1361  H     0.84692   0.93669   0.32651   0.00000  Uiso   1.00
H1362  H     0.88214   0.96908   0.33720   0.00000  Uiso   1.00
H1363  H     0.89216   0.92141   0.34162   0.00000  Uiso   1.00
H1364  H     0.96364   0.84504   0.31561   0.00000  Uiso   1.00
H1365  H     0.91999   0.86088   0.33449   0.00000  Uiso   1.00
H1366  H     0.96081   0.88698   0.34197   0.00000  Uiso   1.00
H1367  H     0.57053   0.65748   0.67015   0.00000  Uiso   1.00
H1368  H     0.53829   0.62382   0.65459   0.00000  Uiso   1.00
H1369  H     0.50163   0.65752   0.96448   0.00000  Uiso   1.00
H1370  H     0.58582   0.61254   0.65420   0.00000  Uiso   1.00
H1371  H     0.76857   0.61667   0.21734   0.00000  Uiso   1.00
H1372  H     0.80321   0.64368   0.19319   0.00000  Uiso   1.00
H1373  H     0.76450   0.66540   0.21526   0.00000  Uiso   1.00
H1374  H     0.64892   0.94413   0.67821   0.00000  Uiso   1.00
H1375  H     0.61233   0.97625   0.67264   0.00000  Uiso   1.00
H1376  H     0.60351   0.92897   0.66379   0.00000  Uiso   1.00
H1377  H     0.53653   0.65508   0.31563   0.00000  Uiso   1.00
H1378  H     0.58015   0.63929   0.33471   0.00000  Uiso   1.00
H1379  H     0.53927   0.61331   0.34231   0.00000  Uiso   1.00
H1380  H     0.99857   0.84247   0.03551   0.00000  Uiso   1.00
H1381  H     0.88028   0.77665   0.78913   0.00000  Uiso   1.00
H1382  H     0.83533   0.76058   0.77701   0.00000  Uiso   1.00
H1383  H     0.83994   0.80303   0.80185   0.00000  Uiso   1.00
H1384  H     0.73233   0.88254   0.21850   0.00000  Uiso   1.00
H1385  H     0.69718   0.85639   0.19412   0.00000  Uiso   1.00
H1386  H     0.73516   0.83371   0.21652   0.00000  Uiso   1.00
H1387  H     0.86914   0.57911   0.66588   0.00000  Uiso   1.00
H1388  H     0.84722   0.53835   0.68476   0.00000  Uiso   1.00
H1389  H     0.89137   0.53554   0.66272   0.00000  Uiso   1.00
H1390  H     0.65751   0.50173   0.96446   0.00000  Uiso   1.00
H1391  H     0.84248   0.99862   0.03554   0.00000  Uiso   1.00
H1392  H     0.99862   0.84247   0.96442   0.00000  Uiso   1.00
H1393  H     0.50162   0.65753   0.03558   0.00000  Uiso   1.00
H1394  H     0.94102   0.75098   0.40321   0.00000  Uiso   1.00
H1395  H     0.55898   0.74890   0.59680   0.00000  Uiso   1.00
H1396  H     0.74900   0.55897   0.40318   0.00000  Uiso   1.00
H1397  H     0.90752   0.75142   0.53555   0.00000  Uiso   1.00
H1398  H     0.75076   0.94104   0.59682   0.00000  Uiso   1.00
H1399  H     0.55898   0.74890   0.40319   0.00000  Uiso   1.00
H1400  H     0.94103   0.75087   0.59680   0.00000  Uiso   1.00
H1401  H     0.75088   0.94102   0.40322   0.00000  Uiso   1.00
H1402  H     0.74897   0.55898   0.59679   0.00000  Uiso   1.00
H1403  H     0.69101   0.50111   0.90320   0.00000  Uiso   1.00
H1404  H     0.80898   0.99908   0.09679   0.00000  Uiso   1.00
H1405  H     0.99916   0.80896   0.90318   0.00000  Uiso   1.00
H1406  H     0.50103   0.69103   0.09682   0.00000  Uiso   1.00
H1407  H     0.80897   0.99918   0.90320   0.00000  Uiso   1.00
H1408  H     0.75130   0.90753   0.46449   0.00000  Uiso   1.00
H1409  H     0.69102   0.50110   0.09680   0.00000  Uiso   1.00
H1410  H     0.50105   0.69102   0.90321   0.00000  Uiso   1.00
H1411  H     0.99904   0.80897   0.09678   0.00000  Uiso   1.00
H1412  H     0.63260   0.98252   0.28133   0.00000  Uiso   1.00
H1413  H     0.60688   0.94723   0.30598   0.00000  Uiso   1.00
H1414  H     0.58377   0.98506   0.28377   0.00000  Uiso   1.00
H1415  H     0.80582   0.60105   0.82178   0.00000  Uiso   1.00
H1416  H     0.77378   0.63771   0.82739   0.00000  Uiso   1.00
H1417  H     0.82111   0.64642   0.83620   0.00000  Uiso   1.00
H1418  H     0.62969   0.71996   0.16356   0.00000  Uiso   1.00
H1419  H     0.74840   0.59248   0.53552   0.00000  Uiso   1.00
H1420  H     0.59667   0.68512   0.17336   0.00000  Uiso   1.00
H1421  H     0.64274   0.67317   0.15777   0.00000  Uiso   1.00
H1422  H     0.97360   0.86959   0.71105   0.00000  Uiso   1.00
H1423  H     0.98932   0.91474   0.72279   0.00000  Uiso   1.00
H1424  H     0.94691   0.90961   0.69794   0.00000  Uiso   1.00
H1425  H     0.86717   0.51763   0.28192   0.00000  Uiso   1.00
H1426  H     0.89265   0.55308   0.30658   0.00000  Uiso   1.00
H1427  H     0.91598   0.51518   0.28482   0.00000  Uiso   1.00
H1428  H     0.67085   0.88087   0.83415   0.00000  Uiso   1.00
H1429  H     0.71161   0.90280   0.81529   0.00000  Uiso   1.00
H1430  H     0.90752   0.75147   0.46446   0.00000  Uiso   1.00
H1431  H     0.71443   0.85866   0.83735   0.00000  Uiso   1.00
H1432  H     0.90498   0.78653   0.18430   0.00000  Uiso   1.00
H1433  H     0.88896   0.83013   0.16545   0.00000  Uiso   1.00
H1434  H     0.86297   0.78923   0.15802   0.00000  Uiso   1.00
H1435  H     0.59253   0.67954   0.82984   0.00000  Uiso   1.00
H1436  H     0.62628   0.71168   0.84541   0.00000  Uiso   1.00
H1437  H     0.63744   0.66413   0.84578   0.00000  Uiso   1.00
H1438  H     0.71316   0.59296   0.81841   0.00000  Uiso   1.00
H1439  H     0.66711   0.60375   0.83456   0.00000  Uiso   1.00
H1440  H     0.70477   0.63245   0.84768   0.00000  Uiso   1.00
H1441  H     0.59249   0.74827   0.53554   0.00000  Uiso   1.00
H1442  H     0.81326   0.90307   0.17353   0.00000  Uiso   1.00
H1443  H     0.78076   0.86793   0.16295   0.00000  Uiso   1.00
H1444  H     0.82839   0.85780   0.15840   0.00000  Uiso   1.00
H1445  H     0.63841   0.77398   0.82748   0.00000  Uiso   1.00
H1446  H     0.60062   0.80456   0.82118   0.00000  Uiso   1.00
H1447  H     0.64517   0.82155   0.83627   0.00000  Uiso   1.00
H1448  H     0.97026   0.63018   0.29208   0.00000  Uiso   1.00
H1449  H     0.99088   0.58775   0.27776   0.00000  Uiso   1.00
H1450  H     0.94766   0.58685   0.30166   0.00000  Uiso   1.00
H1451  H     0.86732   0.98111   0.71782   0.00000  Uiso   1.00
H1452  H     0.74842   0.59248   0.46442   0.00000  Uiso   1.00
H1453  H     0.89527   0.94678   0.69442   0.00000  Uiso   1.00
H1454  H     0.91613   0.98542   0.71730   0.00000  Uiso   1.00
H1455  H     0.66842   0.61273   0.16413   0.00000  Uiso   1.00
H1456  H     0.71105   0.59421   0.18284   0.00000  Uiso   1.00
H1457  H     0.71063   0.63667   0.15726   0.00000  Uiso   1.00
H1458  H     0.90226   0.71332   0.81399   0.00000  Uiso   1.00
H1459  H     0.88165   0.67207   0.83353   0.00000  Uiso   1.00
H1460  H     0.85828   0.71503   0.83650   0.00000  Uiso   1.00
H1461  H     0.52933   0.87016   0.29129   0.00000  Uiso   1.00
H1462  H     0.50893   0.91255   0.27646   0.00000  Uiso   1.00
H1463  H     0.75125   0.90753   0.53558   0.00000  Uiso   1.00
H1464  H     0.55195   0.91349   0.30076   0.00000  Uiso   1.00
H1465  H     0.97602   0.61159   0.67253   0.00000  Uiso   1.00
H1466  H     0.94545   0.64938   0.67883   0.00000  Uiso   1.00
H1467  H     0.92844   0.60484   0.66375   0.00000  Uiso   1.00
H1468  H     0.62003   0.77858   0.20951   0.00000  Uiso   1.00
H1469  H     0.66296   0.75906   0.22391   0.00000  Uiso   1.00
H1470  H     0.66283   0.80190   0.19922   0.00000  Uiso   1.00
H1471  H     0.76874   0.88270   0.78205   0.00000  Uiso   1.00
H1472  H     0.80320   0.85502   0.80561   0.00000  Uiso   1.00
H1473  H     0.76465   0.83388   0.78282   0.00000  Uiso   1.00
H1474  H     0.84248   0.99867   0.96444   0.00000  Uiso   1.00
H1475  H     0.65317   0.56406   0.32681   0.00000  Uiso   1.00
H1476  H     0.61860   0.53093   0.33730   0.00000  Uiso   1.00
H1477  H     0.60758   0.57838   0.34178   0.00000  Uiso   1.00
H1478  H     0.53675   0.84771   0.68594   0.00000  Uiso   1.00
H1479  H     0.57797   0.86840   0.66642   0.00000  Uiso   1.00
H1480  H     0.53495   0.89169   0.66345   0.00000  Uiso   1.00
H1481  H     0.88045   0.72084   0.20840   0.00000  Uiso   1.00
H1482  H     0.83755   0.74081   0.22222   0.00000  Uiso   1.00
H1483  H     0.83757   0.69773   0.19805   0.00000  Uiso   1.00
H1484  H     0.65703   0.53687   0.68159   0.00000  Uiso   1.00
O1485  O     0.75000   0.50000   0.25000   0.00000  Uiso   1.00
O1486  O     0.75000   0.96963   0.66245   0.00000  Uiso   1.00
O1487  O     0.96963   0.75000   0.33755   0.00000  Uiso   1.00
O1488  O     0.53036   0.75000   0.66245   0.00000  Uiso   1.00
O1489  O     0.50000   0.71963   0.83755   0.00000  Uiso   1.00
O1490  O     0.50000   0.78037   0.16245   0.00000  Uiso   1.00
O1491  O     0.78036   0.50000   0.83755   0.00000  Uiso   1.00
O1492  O     0.71963   0.50000   0.16245   0.00000  Uiso   1.00
O1493  O     0.50000   0.78037   0.83755   0.00000  Uiso   1.00
O1494  O     0.50000   0.71963   0.16245   0.00000  Uiso   1.00
O1495  O     0.71963   0.50000   0.83755   0.00000  Uiso   1.00
O1496  O     0.75000   0.50000   0.75000   0.00000  Uiso   1.00
O1497  O     0.78036   0.50000   0.16245   0.00000  Uiso   1.00
O1498  O     0.70724   0.57307   0.27302   0.00000  Uiso   1.00
O1499  O     0.79275   0.92692   0.72698   0.00000  Uiso   1.00
O1500  O     0.92692   0.70724   0.27302   0.00000  Uiso   1.00
O1501  O     0.57307   0.79276   0.72698   0.00000  Uiso   1.00
O1502  O     0.79275   0.92692   0.27302   0.00000  Uiso   1.00
O1503  O     0.70724   0.57307   0.72698   0.00000  Uiso   1.00
O1504  O     0.57307   0.79276   0.27302   0.00000  Uiso   1.00
O1505  O     0.92692   0.70724   0.72698   0.00000  Uiso   1.00
O1506  O     0.70724   0.92692   0.72698   0.00000  Uiso   1.00
O1507  O     0.50000   0.75000   0.25000   0.00000  Uiso   1.00
O1508  O     0.79275   0.57307   0.27302   0.00000  Uiso   1.00
O1509  O     0.92692   0.79275   0.72698   0.00000  Uiso   1.00
O1510  O     0.57307   0.70725   0.27302   0.00000  Uiso   1.00
O1511  O     0.79275   0.57307   0.72698   0.00000  Uiso   1.00
O1512  O     0.70724   0.92692   0.27302   0.00000  Uiso   1.00
O1513  O     0.57307   0.70725   0.72698   0.00000  Uiso   1.00
O1514  O     0.92692   0.79275   0.27302   0.00000  Uiso   1.00
O1515  O     0.95724   0.82307   0.77302   0.00000  Uiso   1.00
O1516  O     0.54275   0.67693   0.22698   0.00000  Uiso   1.00
O1517  O     0.67692   0.95725   0.77302   0.00000  Uiso   1.00
O1518  O     0.50000   0.75000   0.75000   0.00000  Uiso   1.00
O1519  O     0.82307   0.54275   0.22698   0.00000  Uiso   1.00
O1520  O     0.54275   0.67693   0.77302   0.00000  Uiso   1.00
O1521  O     0.95724   0.82307   0.22698   0.00000  Uiso   1.00
O1522  O     0.82307   0.54275   0.77302   0.00000  Uiso   1.00
O1523  O     0.67692   0.95725   0.22698   0.00000  Uiso   1.00
O1524  O     0.95724   0.67692   0.22698   0.00000  Uiso   1.00
O1525  O     0.54275   0.82308   0.77302   0.00000  Uiso   1.00
O1526  O     0.67692   0.54275   0.22698   0.00000  Uiso   1.00
O1527  O     0.82307   0.95724   0.77302   0.00000  Uiso   1.00
O1528  O     0.54275   0.82308   0.22698   0.00000  Uiso   1.00
O1529  O     0.75000   0.96963   0.33755   0.00000  Uiso   1.00
O1530  O     0.95724   0.67692   0.77302   0.00000  Uiso   1.00
O1531  O     0.82307   0.95724   0.22698   0.00000  Uiso   1.00
O1532  O     0.67692   0.54275   0.77302   0.00000  Uiso   1.00
O1533  O     0.60414   0.94836   0.24407   0.00000  Uiso   1.00
O1534  O     0.80519   0.64100   0.77818   0.00000  Uiso   1.00
O1535  O     0.63828   0.69233   0.21464   0.00000  Uiso   1.00
O1536  O     0.94814   0.89547   0.75749   0.00000  Uiso   1.00
O1537  O     0.89588   0.55162   0.24470   0.00000  Uiso   1.00
O1538  O     0.69342   0.85911   0.78200   0.00000  Uiso   1.00
O1539  O     0.86066   0.80800   0.21418   0.00000  Uiso   1.00
O1540  O     0.75000   0.53036   0.66245   0.00000  Uiso   1.00
O1541  O     0.63582   0.68967   0.79146   0.00000  Uiso   1.00
O1542  O     0.69020   0.63746   0.79029   0.00000  Uiso   1.00
O1543  O     0.80763   0.86138   0.21483   0.00000  Uiso   1.00
O1544  O     0.64110   0.80524   0.77819   0.00000  Uiso   1.00
O1545  O     0.94828   0.60446   0.24342   0.00000  Uiso   1.00
O1546  O     0.89575   0.94822   0.75635   0.00000  Uiso   1.00
O1547  O     0.69170   0.63919   0.21334   0.00000  Uiso   1.00
O1548  O     0.85884   0.69356   0.78137   0.00000  Uiso   1.00
O1549  O     0.55177   0.89552   0.24264   0.00000  Uiso   1.00
O1550  O     0.94477   0.60891   0.72183   0.00000  Uiso   1.00
O1551  O     0.53036   0.75000   0.33755   0.00000  Uiso   1.00
O1552  O     0.64553   0.80181   0.25762   0.00000  Uiso   1.00
O1553  O     0.80177   0.85426   0.74368   0.00000  Uiso   1.00
O1554  O     0.61170   0.55768   0.28539   0.00000  Uiso   1.00
O1555  O     0.55643   0.89114   0.71858   0.00000  Uiso   1.00
O1556  O     0.85442   0.69828   0.25658   0.00000  Uiso   1.00
O1557  O     0.61252   0.55982   0.70970   0.00000  Uiso   1.00
O1558  O     0.88862   0.94233   0.28524   0.00000  Uiso   1.00
O1559  O     0.94203   0.88933   0.28581   0.00000  Uiso   1.00
O1560  O     0.56032   0.61421   0.70853   0.00000  Uiso   1.00
O1561  O     0.80159   0.64591   0.25507   0.00000  Uiso   1.00
O1562  O     0.96963   0.75000   0.66245   0.00000  Uiso   1.00
O1563  O     0.60899   0.94481   0.72182   0.00000  Uiso   1.00
O1564  O     0.55817   0.61056   0.28623   0.00000  Uiso   1.00
O1565  O     0.85453   0.80188   0.74244   0.00000  Uiso   1.00
O1566  O     0.69836   0.85417   0.25605   0.00000  Uiso   1.00
O1567  O     0.89091   0.55658   0.71805   0.00000  Uiso   1.00
O1568  O     0.75000   0.53036   0.33755   0.00000  Uiso   1.00
Zn1569 Zn    0.70659   0.50000   0.21735   0.00000  Uiso   1.00
Zn1570 Zn    0.54340   0.75000   0.28265   0.00000  Uiso   1.00
Zn1571 Zn    0.75000   0.95659   0.71735   0.00000  Uiso   1.00
Zn1572 Zn    0.75000   0.54340   0.28265   0.00000  Uiso   1.00
Zn1573 Zn    0.54340   0.75000   0.71735   0.00000  Uiso   1.00
Zn1574 Zn    0.95659   0.75000   0.28265   0.00000  Uiso   1.00
Zn1575 Zn    0.75000   0.54340   0.71735   0.00000  Uiso   1.00
Zn1576 Zn    0.75000   0.95659   0.28265   0.00000  Uiso   1.00
Zn1577 Zn    0.79340   0.50000   0.78265   0.00000  Uiso   1.00
Zn1578 Zn    0.50000   0.70659   0.21735   0.00000  Uiso   1.00
Zn1579 Zn    0.50000   0.79340   0.78265   0.00000  Uiso   1.00
Zn1580 Zn    0.79340   0.50000   0.21735   0.00000  Uiso   1.00
Zn1581 Zn    0.70659   0.50000   0.78265   0.00000  Uiso   1.00
Zn1582 Zn    0.50000   0.79340   0.21735   0.00000  Uiso   1.00
Zn1583 Zn    0.50000   0.70659   0.78265   0.00000  Uiso   1.00
Zn1584 Zn    0.95659   0.75000   0.71735   0.00000  Uiso   1.00
loop_
_geom_bond_atom_site_label_1
_geom_bond_atom_site_label_2
_geom_bond_distance
_geom_bond_site_symmetry_2
_ccdc_geom_bond_type
C1     H206    1.084   .     S
C1     C4      1.394   .     A
C1     C474    1.403   .     S
C2     H216    1.084   .     S
C2     C14     1.394   .     A
C2     C876    1.403   .     S
C3     C147    1.394   .     A
C3     C90     1.402   .     A
C3     C38     1.411   .     A
C4     C91     1.402   .     A
C4     C430    1.411   .     S
C5     C36     1.411   .     A
C5     C81     1.394   .     A
C5     C93     1.402   .     A
C6     C94     1.402   .     A
C6     C92     1.394   .     A
C6     C37     1.411   .     A
C7     C103    1.394   .     A
C7     C95     1.402   .     A
C7     C830    1.411   .     S
C8     C35     1.394   .     A
C8     C96     1.402   .     A
C8     C831    1.411   .     S
C9     C46     1.394   .     A
C9     C40     1.411   .     A
C9     C97     1.402   .     A
C10    C41     1.411   .     A
C10    C98     1.402   .     A
C10    C57     1.394   .     A
C11    C99     1.402   .     A
C11    C68     1.394   .     A
C11    C438    1.411   .     S
C12    C158    1.394   .     A
C12    C39     1.411   .     A
C12    C100    1.402   .     A
C13    C15     1.394   .     A
C13    H217    1.084   .     S
C13    C481    1.404   .     S
C14    C101    1.402   .     A
C14    C832    1.411   .     S
C15    C102    1.402   .     A
C15    C437    1.411   .     S
C16    C104    1.402   .     A
C16    C24     1.394   .     A
C16    C42     1.411   .     A
C17    C148    1.409   .     A
C17    C120    1.453   .     S
C17    C150    1.409   .     A
C18    C121    1.452   .     S
C18    C149    1.407   .     A
C18    C146    1.409   .     A
C19    C113    1.450   .     S
C19    C145    1.409   .     A
C19    C152    1.406   .     A
C20    C144    1.409   .     A
C20    C151    1.409   .     A
C20    C115    1.449   .     S
C21    C116    1.453   .     S
C21    C154    1.409   .     A
C21    C143    1.409   .     A
C22    C142    1.407   .     A
C22    C153    1.409   .     A
C22    C117    1.452   .     S
C23    C118    1.450   .     S
C23    C156    1.405   .     A
C23    C141    1.405   .     A
C24    C86     1.404   .     A
C24    H218    1.084   .     S
C25    C119    1.449   .     S
C25    C140    1.411   .     A
C25    C155    1.411   .     A
C26    C139    1.405   .     A
C26    C159    1.405   .     A
C26    C129    1.451   .     S
C27    C138    1.410   .     A
C27    C157    1.410   .     A
C27    C130    1.449   .     S
C28    C161    1.406   .     A
C28    C137    1.409   .     A
C28    C122    1.452   .     S
C29    C135    1.410   .     A
C29    C160    1.410   .     A
C29    C123    1.451   .     S
C30    C134    1.408   .     A
C30    C163    1.408   .     A
C30    C124    1.450   .     S
C31    C162    1.409   .     A
C31    C133    1.406   .     A
C31    C126    1.450   .     S
C32    C127    1.452   .     S
C32    C165    1.409   .     A
C32    C132    1.406   .     A
C33    C164    1.410   .     A
C33    C131    1.410   .     A
C33    C128    1.451   .     S
C34    C36     1.403   .     A
C34    C166    1.411   .     A
C34    C400    1.411   1_455 S
C35    H219    1.084   .     S
C35    C875    1.403   .     S
C36    C563    1.411   1_455 S
C37    C38     1.403   .     A
C37    C960    1.411   1_545 S
C38    C799    1.411   1_545 S
C39    C800    1.411   1_545 S
C39    C40     1.403   1_556 S
C40    C806    1.411   1_545 S
C40    C39     1.403   1_554 S
C41    C411    1.411   1_455 S
C41    C42     1.403   1_556 S
C42    C407    1.411   1_455 S
C42    C41     1.403   1_554 S
C43    O345    1.415   .     S
C43    H226    1.109   .     S
C43    H224    1.109   .     S
C43    H225    1.116   .     S
C44    H227    1.112   .     S
C44    O346    1.410   .     S
C44    H229    1.110   .     S
C44    H228    1.108   .     S
C45    O347    1.411   .     S
C45    H230    1.109   .     S
C45    H233    1.110   .     S
C45    H232    1.112   .     S
C46    C84     1.404   .     A
C46    H221    1.084   .     S
C47    H235    1.108   .     S
C47    H236    1.112   .     S
C47    H234    1.110   .     S
C47    O348    1.412   .     S
C48    H239    1.109   .     S
C48    H237    1.109   .     S
C48    O349    1.415   .     S
C48    H238    1.116   .     S
C49    H241    1.109   .     S
C49    H243    1.109   .     S
C49    O350    1.416   .     S
C49    H240    1.116   .     S
C50    O351    1.415   .     S
C50    H246    1.109   .     S
C50    H244    1.110   .     S
C50    H245    1.116   .     S
C51    H247    1.112   .     S
C51    O353    1.411   .     S
C51    H248    1.108   .     S
C51    H249    1.111   .     S
C52    H250    1.110   .     S
C52    H252    1.109   .     S
C52    O354    1.415   .     S
C52    H251    1.116   .     S
C53    H254    1.112   .     S
C53    H256    1.110   .     S
C53    O355    1.411   .     S
C53    H255    1.109   .     S
C54    H258    1.111   .     S
C54    O356    1.410   .     S
C54    H259    1.110   .     S
C54    H257    1.107   .     S
C55    H260    1.111   .     S
C55    H262    1.112   .     S
C55    O357    1.411   .     S
C55    H261    1.108   .     S
C56    O358    1.414   .     S
C56    H266    1.109   .     S
C56    H263    1.108   .     S
C56    H265    1.115   .     S
C57    C85     1.403   .     A
C57    H222    1.084   .     S
C58    O359    1.415   .     S
C58    H268    1.109   .     S
C58    H269    1.109   .     S
C58    H267    1.116   .     S
C59    O360    1.415   .     S
C59    H272    1.109   .     S
C59    H270    1.109   .     S
C59    H271    1.116   .     S
C60    H274    1.108   .     S
C60    O361    1.411   .     S
C60    H276    1.112   .     S
C60    H273    1.111   .     S
C61    H278    1.111   .     S
C61    O362    1.410   .     S
C61    H277    1.107   .     S
C61    H279    1.110   .     S
C62    H281    1.108   .     S
C62    H282    1.112   .     S
C62    H280    1.111   .     S
C62    O364    1.411   .     S
C63    O365    1.414   .     S
C63    H285    1.109   .     S
C63    H284    1.115   .     S
C63    H283    1.108   .     S
C64    H288    1.109   .     S
C64    O366    1.411   .     S
C64    H287    1.112   .     S
C64    H289    1.110   .     S
C65    H290    1.109   .     S
C65    H292    1.109   .     S
C65    O367    1.415   .     S
C65    H291    1.116   .     S
C66    H294    1.108   .     S
C66    O368    1.411   .     S
C66    H295    1.112   .     S
C66    H293    1.111   .     S
C67    H172    1.109   .     S
C67    H296    1.110   .     S
C67    H171    1.116   .     S
C67    O369    1.415   .     S
C68    H223    1.084   .     S
C68    C482    1.403   .     S
C69    H173    1.112   .     S
C69    H175    1.110   .     S
C69    O370    1.411   .     S
C69    H174    1.109   .     S
C70    H176    1.110   .     S
C70    H177    1.116   .     S
C70    O371    1.415   .     S
C70    H178    1.109   .     S
C71    O372    1.411   .     S
C71    H180    1.108   .     S
C71    H179    1.112   .     S
C71    H182    1.111   .     S
C72    H184    1.116   .     S
C72    H185    1.109   .     S
C72    O373    1.415   .     S
C72    H183    1.109   .     S
C73    H186    1.112   .     S
C73    H188    1.110   .     S
C73    H187    1.108   .     S
C73    O375    1.410   .     S
C74    H190    1.116   .     S
C74    H191    1.109   .     S
C74    H189    1.110   .     S
C74    O376    1.415   .     S
C75    O377    1.411   .     S
C75    H194    1.108   .     S
C75    H195    1.112   .     S
C75    H193    1.110   .     S
C76    H197    1.116   .     S
C76    H196    1.109   .     S
C76    O378    1.415   .     S
C76    H198    1.109   .     S
C77    O379    1.416   .     S
C77    H201    1.109   .     S
C77    H200    1.109   .     S
C77    H199    1.116   .     S
C78    C114    1.404   .     A
C78    C397    1.403   1_455 S
C78    C107    1.463   .     S
C79    C108    1.463   .     S
C79    C81     1.404   .     A
C79    C521    1.403   1_455 S
C80    C928    1.403   1_545 A
C80    C105    1.463   .     S
C80    C92     1.404   .     S
C81    H207    1.084   .     S
C82    C106    1.463   .     S
C82    C147    1.403   .     A
C82    C895    1.404   1_545 S
C83    C158    1.403   .     A
C83    C111    1.463   .     S
C83    C827    1.403   1_545 S
C84    C112    1.463   .     S
C84    C794    1.403   1_545 S
C85    C109    1.463   .     S
C85    C409    1.404   1_455 S
C86    C464    1.403   1_455 S
C86    C110    1.463   .     S
C87    H169    1.084   .     S
C87    C93     1.395   .     A
C87    C166    1.402   .     A
C88    C91     1.395   .     A
C88    C167    1.402   .     A
C88    H209    1.084   .     S
C89    C95     1.395   .     A
C89    C168    1.402   .     A
C89    H220    1.084   .     S
C90    C94     1.395   .     A
C90    H231    1.084   .     S
C91    H242    1.084   .     S
C92    H208    1.084   .     S
C93    H253    1.084   .     S
C94    H264    1.084   .     S
C95    H275    1.084   .     S
C96    H286    1.084   .     S
C96    C101    1.395   1_556 S
C97    H170    1.084   .     S
C97    C100    1.395   1_554 S
C98    H181    1.084   .     S
C98    C104    1.395   1_556 S
C99    H192    1.084   .     S
C99    C102    1.395   1_554 S
C100   H202    1.084   .     S
C100   C97     1.395   1_556 S
C101   H203    1.084   .     S
C101   C96     1.395   1_554 S
C102   H204    1.084   .     S
C102   C99     1.395   1_556 S
C103   H210    1.084   .     S
C103   C874    1.404   .     S
C104   H205    1.084   .     S
C104   C98     1.395   1_554 S
C105   O1133   1.280   1_545 A
C105   O380    1.280   .     S
C106   O352    1.280   .     A
C106   O1090   1.280   1_545 S
C107   O695    1.280   1_455 A
C107   O363    1.280   .     S
C108   O300    1.280   .     A
C108   O770    1.280   1_455 S
C109   O305    1.280   .     A
C109   O301    1.280   .     S
C110   O306    1.280   .     A
C110   O302    1.280   .     S
C111   O307    1.280   .     A
C111   O303    1.280   .     A
C112   O304    1.280   .     A
C112   O309    1.280   .     A
C113   O310    1.279   .     A
C113   O338    1.278   .     A
C114   H211    1.084   .     S
C114   C166    1.394   .     A
C115   O311    1.279   .     A
C115   O339    1.279   .     A
C116   O312    1.279   .     A
C116   O336    1.279   .     A
C117   O337    1.280   .     A
C117   O313    1.277   .     A
C118   O314    1.278   .     A
C118   O343    1.279   .     A
C119   O344    1.278   .     A
C119   O315    1.278   .     A
C120   O316    1.279   .     A
C120   O340    1.279   .     A
C121   O317    1.280   .     A
C121   O342    1.277   .     A
C122   O329    1.277   .     A
C122   O318    1.280   .     A
C123   O331    1.278   .     A
C123   O320    1.278   .     A
C124   O321    1.279   .     A
C124   O327    1.279   .     A
C125   H212    1.084   .     S
C125   C167    1.394   .     A
C125   C475    1.403   .     S
C126   O322    1.278   .     A
C126   O328    1.279   .     A
C127   O323    1.277   .     A
C127   O334    1.280   .     A
C128   O335    1.278   .     A
C128   O324    1.278   .     A
C129   O332    1.279   .     A
C129   O325    1.279   .     A
C130   O333    1.278   .     A
C130   O326    1.278   .     A
C131   O345    1.386   .     S
C131   C148    1.394   .     A
C132   O346    1.385   .     S
C132   C146    1.400   .     A
C133   C145    1.399   .     A
C133   O347    1.383   .     S
C134   O348    1.384   .     S
C134   C144    1.392   .     A
C135   C143    1.394   .     A
C135   O349    1.386   .     S
C136   H213    1.084   .     S
C136   C872    1.403   .     A
C136   C168    1.394   .     A
C137   C142    1.400   .     A
C137   O350    1.385   .     S
C138   C141    1.399   .     A
C138   O351    1.385   .     S
C139   C140    1.399   .     A
C139   O353    1.384   .     S
C140   O354    1.387   .     S
C141   O355    1.384   .     S
C142   O356    1.384   .     S
C143   O357    1.384   .     S
C144   O358    1.385   .     S
C145   O359    1.386   .     S
C146   O360    1.384   .     S
C147   H214    1.084   .     S
C148   O361    1.384   .     S
C149   O362    1.384   .     S
C149   C165    1.400   .     A
C150   C164    1.394   .     A
C150   O364    1.384   .     S
C151   O365    1.385   .     S
C151   C163    1.392   .     A
C152   O366    1.384   .     S
C152   C162    1.399   .     A
C153   C161    1.400   .     A
C153   O367    1.384   .     S
C154   O368    1.384   .     S
C154   C160    1.394   .     A
C155   O369    1.387   .     S
C155   C159    1.399   .     A
C156   O370    1.384   .     S
C156   C157    1.399   .     A
C157   O371    1.385   .     S
C158   H215    1.084   .     S
C159   O372    1.384   .     S
C160   O373    1.386   .     S
C161   O375    1.385   .     S
C162   O376    1.385   .     S
C163   O377    1.384   .     S
C164   O378    1.386   .     S
C165   O379    1.385   .     S
C167   C432    1.411   .     S
C168   C829    1.411   .     S
O297   Zn384   1.946   .     S
O297   Zn392   1.946   .     S
O297   Zn381   1.946   .     S
O297   Zn1180  1.946   1_545 S
O298   Zn383   1.950   .     S
O298   C898    1.280   .     S
O299   Zn386   1.951   .     S
O299   C503    1.280   .     A
O300   Zn385   1.951   .     S
O301   Zn395   1.951   .     S
O302   Zn394   1.951   .     S
O303   Zn389   1.951   .     S
O304   Zn381   1.951   .     S
O305   Zn391   1.950   .     S
O306   Zn390   1.950   .     S
O307   Zn393   1.951   .     S
O308   Zn387   1.946   .     S
O308   Zn389   1.946   .     S
O308   Zn393   1.946   .     S
O308   Zn1175  1.946   1_545 S
O309   Zn392   1.951   .     S
O310   Zn384   1.931   .     S
O311   Zn383   1.931   .     S
O312   Zn386   1.934   .     S
O313   Zn385   1.934   .     S
O314   Zn388   1.931   .     S
O315   Zn387   1.931   .     S
O316   Zn382   1.934   .     S
O317   Zn396   1.934   .     S
O318   Zn383   1.934   .     S
O319   Zn382   1.946   .     S
O319   Zn782   1.946   1_455 S
O319   Zn390   1.946   .     S
O319   Zn394   1.946   .     S
O320   Zn384   1.934   .     S
O321   Zn396   1.931   .     S
O322   Zn382   1.931   .     S
O323   Zn387   1.934   .     S
O324   Zn388   1.934   .     S
O325   Zn385   1.931   .     S
O326   Zn386   1.931   .     S
O327   Zn787   1.931   .     S
O328   Zn390   1.931   .     S
O329   Zn1185  1.934   .     S
O330   Zn385   1.946   .     S
O330   Zn391   1.946   .     S
O330   Zn395   1.946   .     S
O330   Zn792   1.946   1_455 S
O331   Zn392   1.934   .     S
O332   Zn395   1.931   .     S
O333   Zn790   1.931   .     S
O334   Zn389   1.934   .     S
O335   Zn1173  1.934   .     S
O336   Zn786   1.934   .     S
O337   Zn391   1.934   .     S
O338   Zn381   1.931   .     S
O339   Zn1181  1.931   .     S
O340   Zn394   1.934   .     S
O341   Zn388   1.951   .     S
O341   C897    1.280   .     A
O342   Zn791   1.934   .     S
O343   Zn1184  1.931   .     S
O344   Zn393   1.931   .     S
O352   Zn387   1.951   .     S
O363   Zn382   1.951   .     S
O374   Zn396   1.951   .     S
O374   C504    1.280   .     S
O380   Zn384   1.950   .     S
Zn381  O1127   1.934   1_545 S
Zn383  O1100   1.946   .     S
Zn386  O715    1.946   .     S
Zn388  O1089   1.946   .     S
Zn389  O1131   1.931   1_545 S
Zn390  O732    1.934   1_455 S
Zn391  O723    1.931   1_455 S
Zn392  O1135   1.931   1_545 S
Zn393  O1121   1.934   1_545 S
Zn394  O729    1.931   1_455 S
Zn395  O738    1.934   1_455 S
Zn396  O726    1.946   .     S
C397   H602    1.084   .     S
C397   C400    1.394   .     A
C397   C78     1.403   1_655 S
C398   H612    1.084   .     S
C398   C410    1.394   .     A
C398   C1272   1.403   .     S
C399   C543    1.394   .     A
C399   C486    1.402   .     A
C399   C434    1.411   .     A
C400   C487    1.402   .     A
C400   C34     1.411   1_655 S
C401   C432    1.411   .     A
C401   C477    1.394   .     A
C401   C489    1.402   .     A
C402   C490    1.402   .     A
C402   C488    1.394   .     A
C402   C433    1.411   .     A
C403   C499    1.394   .     A
C403   C491    1.402   .     A
C403   C1226   1.411   .     S
C404   C431    1.394   .     A
C404   C492    1.402   .     A
C404   C1227   1.411   .     S
C405   C442    1.394   .     A
C405   C436    1.411   .     A
C405   C493    1.402   .     A
C406   C437    1.411   .     A
C406   C494    1.402   .     A
C406   C453    1.394   .     A
C407   C495    1.402   .     A
C407   C464    1.394   .     A
C407   C42     1.411   1_655 S
C408   C554    1.394   .     A
C408   C435    1.411   .     A
C408   C496    1.402   .     A
C409   C411    1.394   .     A
C409   H613    1.084   .     S
C409   C85     1.404   1_655 S
C410   C497    1.402   .     A
C410   C1228   1.411   .     S
C411   C498    1.402   .     A
C411   C41     1.411   1_655 S
C412   C500    1.402   .     A
C412   C420    1.394   .     A
C412   C438    1.411   .     A
C413   C544    1.409   .     A
C413   C516    1.453   .     S
C413   C546    1.409   .     A
C414   C517    1.452   .     S
C414   C545    1.407   .     A
C414   C542    1.409   .     A
C415   C509    1.450   .     S
C415   C541    1.409   .     A
C415   C548    1.406   .     A
C416   C540    1.409   .     A
C416   C547    1.409   .     A
C416   C511    1.449   .     S
C417   C512    1.453   .     S
C417   C550    1.409   .     A
C417   C539    1.409   .     A
C418   C538    1.407   .     A
C418   C549    1.409   .     A
C418   C513    1.452   .     S
C419   C514    1.450   .     S
C419   C552    1.405   .     A
C419   C537    1.405   .     A
C420   C482    1.404   .     A
C420   H614    1.084   .     S
C421   C515    1.449   .     S
C421   C536    1.411   .     A
C421   C551    1.411   .     A
C422   C535    1.405   .     A
C422   C555    1.405   .     A
C422   C525    1.451   .     S
C423   C534    1.410   .     A
C423   C553    1.410   .     A
C423   C526    1.449   .     S
C424   C557    1.406   .     A
C424   C533    1.409   .     A
C424   C518    1.452   .     S
C425   C531    1.410   .     A
C425   C556    1.410   .     A
C425   C519    1.451   .     S
C426   C530    1.408   .     A
C426   C559    1.408   .     A
C426   C520    1.450   .     S
C427   C558    1.409   .     A
C427   C529    1.406   .     A
C427   C522    1.450   .     S
C428   C523    1.452   .     S
C428   C561    1.409   .     A
C428   C528    1.406   .     A
C429   C560    1.410   .     A
C429   C527    1.410   .     A
C429   C524    1.451   .     S
C430   C432    1.403   .     A
C430   C562    1.411   .     A
C431   H615    1.084   .     S
C431   C1271   1.403   .     S
C433   C434    1.403   .     A
C433   C1356   1.411   1_545 S
C434   C1195   1.411   1_545 S
C435   C1196   1.411   1_545 S
C435   C436    1.403   1_556 S
C436   C1202   1.411   1_545 S
C436   C435    1.403   1_554 S
C437   C438    1.403   1_556 S
C438   C437    1.403   1_554 S
C439   O741    1.415   .     S
C439   H622    1.109   .     S
C439   H620    1.109   .     S
C439   H621    1.116   .     S
C440   H623    1.112   .     S
C440   O742    1.410   .     S
C440   H625    1.110   .     S
C440   H624    1.108   .     S
C441   O743    1.411   .     S
C441   H626    1.109   .     S
C441   H629    1.110   .     S
C441   H628    1.112   .     S
C442   C480    1.404   .     A
C442   H617    1.084   .     S
C443   H631    1.108   .     S
C443   H632    1.112   .     S
C443   H630    1.110   .     S
C443   O744    1.412   .     S
C444   H635    1.109   .     S
C444   H633    1.109   .     S
C444   O745    1.415   .     S
C444   H634    1.116   .     S
C445   H637    1.109   .     S
C445   H639    1.109   .     S
C445   O746    1.416   .     S
C445   H636    1.116   .     S
C446   O747    1.415   .     S
C446   H642    1.109   .     S
C446   H640    1.110   .     S
C446   H641    1.116   .     S
C447   H643    1.112   .     S
C447   O749    1.411   .     S
C447   H644    1.108   .     S
C447   H645    1.111   .     S
C448   H646    1.110   .     S
C448   H648    1.109   .     S
C448   O750    1.415   .     S
C448   H647    1.116   .     S
C449   H650    1.112   .     S
C449   H652    1.110   .     S
C449   O751    1.411   .     S
C449   H651    1.109   .     S
C450   H654    1.111   .     S
C450   O752    1.410   .     S
C450   H655    1.110   .     S
C450   H653    1.107   .     S
C451   H656    1.111   .     S
C451   H658    1.112   .     S
C451   O753    1.411   .     S
C451   H657    1.108   .     S
C452   O754    1.414   .     S
C452   H662    1.109   .     S
C452   H659    1.108   .     S
C452   H661    1.115   .     S
C453   C481    1.403   .     A
C453   H618    1.084   .     S
C454   O755    1.415   .     S
C454   H664    1.109   .     S
C454   H665    1.109   .     S
C454   H663    1.116   .     S
C455   O756    1.415   .     S
C455   H668    1.109   .     S
C455   H666    1.109   .     S
C455   H667    1.116   .     S
C456   H670    1.108   .     S
C456   O757    1.411   .     S
C456   H672    1.112   .     S
C456   H669    1.111   .     S
C457   H674    1.111   .     S
C457   O758    1.410   .     S
C457   H673    1.107   .     S
C457   H675    1.110   .     S
C458   H677    1.108   .     S
C458   H678    1.112   .     S
C458   H676    1.111   .     S
C458   O760    1.411   .     S
C459   O761    1.414   .     S
C459   H681    1.109   .     S
C459   H680    1.115   .     S
C459   H679    1.108   .     S
C460   H684    1.109   .     S
C460   O762    1.411   .     S
C460   H683    1.112   .     S
C460   H685    1.110   .     S
C461   H686    1.109   .     S
C461   H688    1.109   .     S
C461   O763    1.415   .     S
C461   H687    1.116   .     S
C462   H690    1.108   .     S
C462   O764    1.411   .     S
C462   H691    1.112   .     S
C462   H689    1.111   .     S
C463   H568    1.109   .     S
C463   H692    1.110   .     S
C463   H567    1.116   .     S
C463   O765    1.415   .     S
C464   H619    1.084   .     S
C464   C86     1.403   1_655 S
C465   H569    1.112   .     S
C465   H571    1.110   .     S
C465   O766    1.411   .     S
C465   H570    1.109   .     S
C466   H572    1.110   .     S
C466   H573    1.116   .     S
C466   O767    1.415   .     S
C466   H574    1.109   .     S
C467   O768    1.411   .     S
C467   H576    1.108   .     S
C467   H575    1.112   .     S
C467   H578    1.111   .     S
C468   H580    1.116   .     S
C468   H581    1.109   .     S
C468   O769    1.415   .     S
C468   H579    1.109   .     S
C469   H582    1.112   .     S
C469   H584    1.110   .     S
C469   H583    1.108   .     S
C469   O771    1.410   .     S
C470   H586    1.116   .     S
C470   H587    1.109   .     S
C470   H585    1.110   .     S
C470   O772    1.415   .     S
C471   O773    1.411   .     S
C471   H590    1.108   .     S
C471   H591    1.112   .     S
C471   H589    1.110   .     S
C472   H593    1.116   .     S
C472   H592    1.109   .     S
C472   O774    1.415   .     S
C472   H594    1.109   .     S
C473   O775    1.416   .     S
C473   H597    1.109   .     S
C473   H596    1.109   .     S
C473   H595    1.116   .     S
C474   C510    1.404   .     A
C474   C503    1.463   .     S
C475   C504    1.463   .     S
C475   C477    1.404   .     A
C476   C1324   1.403   1_545 A
C476   C501    1.463   .     S
C476   C488    1.404   .     S
C477   H603    1.084   .     S
C478   C502    1.463   .     S
C478   C543    1.403   .     A
C478   C1291   1.404   1_545 S
C479   C554    1.403   .     A
C479   C507    1.463   .     S
C479   C1223   1.403   1_545 S
C480   C508    1.463   .     S
C480   C1190   1.403   1_545 S
C481   C505    1.463   .     S
C482   C506    1.463   .     S
C483   H565    1.084   .     S
C483   C489    1.395   .     A
C483   C562    1.402   .     A
C484   C487    1.395   .     A
C484   C563    1.402   .     A
C484   H605    1.084   .     S
C485   C491    1.395   .     A
C485   C564    1.402   .     A
C485   H616    1.084   .     S
C486   C490    1.395   .     A
C486   H627    1.084   .     S
C487   H638    1.084   .     S
C488   H604    1.084   .     S
C489   H649    1.084   .     S
C490   H660    1.084   .     S
C491   H671    1.084   .     S
C492   H682    1.084   .     S
C492   C497    1.395   1_556 S
C493   H566    1.084   .     S
C493   C496    1.395   1_554 S
C494   H577    1.084   .     S
C494   C500    1.395   1_556 S
C495   H588    1.084   .     S
C495   C498    1.395   1_554 S
C496   H598    1.084   .     S
C496   C493    1.395   1_556 S
C497   H599    1.084   .     S
C497   C492    1.395   1_554 S
C498   H600    1.084   .     S
C498   C495    1.395   1_556 S
C499   H606    1.084   .     S
C499   C1270   1.404   .     S
C500   H601    1.084   .     S
C500   C494    1.395   1_554 S
C501   O1529   1.280   1_545 A
C501   O776    1.280   .     S
C502   O748    1.280   .     A
C502   O1486   1.280   1_545 S
C503   O759    1.280   .     S
C504   O696    1.280   .     A
C505   O701    1.280   .     A
C505   O697    1.280   .     S
C506   O702    1.280   .     A
C506   O698    1.280   .     S
C507   O703    1.280   .     A
C507   O699    1.280   .     A
C508   O700    1.280   .     A
C508   O705    1.280   .     A
C509   O706    1.279   .     A
C509   O734    1.278   .     A
C510   H607    1.084   .     S
C510   C562    1.394   .     A
C511   O707    1.279   .     A
C511   O735    1.279   .     A
C512   O708    1.279   .     A
C512   O732    1.279   .     A
C513   O733    1.280   .     A
C513   O709    1.277   .     A
C514   O710    1.278   .     A
C514   O739    1.279   .     A
C515   O740    1.278   .     A
C515   O711    1.278   .     A
C516   O712    1.279   .     A
C516   O736    1.279   .     A
C517   O713    1.280   .     A
C517   O738    1.277   .     A
C518   O725    1.277   .     A
C518   O714    1.280   .     A
C519   O727    1.278   .     A
C519   O716    1.278   .     A
C520   O717    1.279   .     A
C520   O723    1.279   .     A
C521   H608    1.084   .     S
C521   C563    1.394   .     A
C521   C79     1.403   1_655 S
C522   O718    1.278   .     A
C522   O724    1.279   .     A
C523   O719    1.277   .     A
C523   O730    1.280   .     A
C524   O731    1.278   .     A
C524   O720    1.278   .     A
C525   O728    1.279   .     A
C525   O721    1.279   .     A
C526   O729    1.278   .     A
C526   O722    1.278   .     A
C527   O741    1.386   .     S
C527   C544    1.394   .     A
C528   O742    1.385   .     S
C528   C542    1.400   .     A
C529   C541    1.399   .     A
C529   O743    1.383   .     S
C530   O744    1.384   .     S
C530   C540    1.392   .     A
C531   C539    1.394   .     A
C531   O745    1.386   .     S
C532   H609    1.084   .     S
C532   C1268   1.403   .     A
C532   C564    1.394   .     A
C533   C538    1.400   .     A
C533   O746    1.385   .     S
C534   C537    1.399   .     A
C534   O747    1.385   .     S
C535   C536    1.399   .     A
C535   O749    1.384   .     S
C536   O750    1.387   .     S
C537   O751    1.384   .     S
C538   O752    1.384   .     S
C539   O753    1.384   .     S
C540   O754    1.385   .     S
C541   O755    1.386   .     S
C542   O756    1.384   .     S
C543   H610    1.084   .     S
C544   O757    1.384   .     S
C545   O758    1.384   .     S
C545   C561    1.400   .     A
C546   C560    1.394   .     A
C546   O760    1.384   .     S
C547   O761    1.385   .     S
C547   C559    1.392   .     A
C548   O762    1.384   .     S
C548   C558    1.399   .     A
C549   C557    1.400   .     A
C549   O763    1.384   .     S
C550   O764    1.384   .     S
C550   C556    1.394   .     A
C551   O765    1.387   .     S
C551   C555    1.399   .     A
C552   O766    1.384   .     S
C552   C553    1.399   .     A
C553   O767    1.385   .     S
C554   H611    1.084   .     S
C555   O768    1.384   .     S
C556   O769    1.386   .     S
C557   O771    1.385   .     S
C558   O772    1.385   .     S
C559   O773    1.384   .     S
C560   O774    1.386   .     S
C561   O775    1.385   .     S
C563   C36     1.411   1_655 S
C564   C1225   1.411   .     S
O693   Zn780   1.946   .     S
O693   Zn788   1.946   .     S
O693   Zn777   1.946   .     S
O693   Zn1576  1.946   1_545 S
O694   Zn779   1.950   .     S
O694   C1294   1.280   .     S
O695   Zn782   1.951   .     S
O695   C107    1.280   1_655 A
O696   Zn781   1.951   .     S
O697   Zn791   1.951   .     S
O698   Zn790   1.951   .     S
O699   Zn785   1.951   .     S
O700   Zn777   1.951   .     S
O701   Zn787   1.950   .     S
O702   Zn786   1.950   .     S
O703   Zn789   1.951   .     S
O704   Zn783   1.946   .     S
O704   Zn785   1.946   .     S
O704   Zn789   1.946   .     S
O704   Zn1571  1.946   1_545 S
O705   Zn788   1.951   .     S
O706   Zn780   1.931   .     S
O707   Zn779   1.931   .     S
O708   Zn782   1.934   .     S
O709   Zn781   1.934   .     S
O710   Zn784   1.931   .     S
O711   Zn783   1.931   .     S
O712   Zn778   1.934   .     S
O713   Zn792   1.934   .     S
O714   Zn779   1.934   .     S
O715   Zn778   1.946   .     S
O715   Zn786   1.946   .     S
O715   Zn790   1.946   .     S
O716   Zn780   1.934   .     S
O717   Zn792   1.931   .     S
O718   Zn778   1.931   .     S
O719   Zn783   1.934   .     S
O720   Zn784   1.934   .     S
O721   Zn781   1.931   .     S
O722   Zn782   1.931   .     S
O723   Zn391   1.931   1_655 S
O724   Zn786   1.931   .     S
O725   Zn1581  1.934   .     S
O726   Zn781   1.946   .     S
O726   Zn787   1.946   .     S
O726   Zn791   1.946   .     S
O727   Zn788   1.934   .     S
O728   Zn791   1.931   .     S
O729   Zn394   1.931   1_655 S
O730   Zn785   1.934   .     S
O731   Zn1569  1.934   .     S
O732   Zn390   1.934   1_655 S
O733   Zn787   1.934   .     S
O734   Zn777   1.931   .     S
O735   Zn1577  1.931   .     S
O736   Zn790   1.934   .     S
O737   Zn784   1.951   .     S
O737   C1293   1.280   .     A
O738   Zn395   1.934   1_655 S
O739   Zn1580  1.931   .     S
O740   Zn789   1.931   .     S
O748   Zn783   1.951   .     S
O759   Zn778   1.951   .     S
O770   Zn792   1.951   .     S
O770   C108    1.280   1_655 S
O776   Zn780   1.950   .     S
Zn777  O1523   1.934   1_545 S
Zn779  O1496   1.946   .     S
Zn782  O319    1.946   1_655 S
Zn784  O1485   1.946   .     S
Zn785  O1527   1.931   1_545 S
Zn788  O1531   1.931   1_545 S
Zn789  O1517   1.934   1_545 S
Zn792  O330    1.946   1_655 S
C793   H998    1.084   .     S
C793   C796    1.394   .     A
C793   C1266   1.403   .     S
C794   H1008   1.084   .     S
C794   C806    1.394   .     A
C794   C84     1.403   1_565 S
C795   C939    1.394   .     A
C795   C882    1.402   .     A
C795   C830    1.411   .     A
C796   C883    1.402   .     A
C796   C1222   1.411   .     S
C797   C828    1.411   .     A
C797   C873    1.394   .     A
C797   C885    1.402   .     A
C798   C886    1.402   .     A
C798   C884    1.394   .     A
C798   C829    1.411   .     A
C799   C895    1.394   .     A
C799   C887    1.402   .     A
C799   C38     1.411   1_565 S
C800   C827    1.394   .     A
C800   C888    1.402   .     A
C800   C39     1.411   1_565 S
C801   C838    1.394   .     A
C801   C832    1.411   .     A
C801   C889    1.402   .     A
C802   C833    1.411   .     A
C802   C890    1.402   .     A
C802   C849    1.394   .     A
C803   C891    1.402   .     A
C803   C860    1.394   .     A
C803   C1230   1.411   .     S
C804   C950    1.394   .     A
C804   C831    1.411   .     A
C804   C892    1.402   .     A
C805   C807    1.394   .     A
C805   H1009   1.084   .     S
C805   C1273   1.404   .     S
C806   C893    1.402   .     A
C806   C40     1.411   1_565 S
C807   C894    1.402   .     A
C807   C1229   1.411   .     S
C808   C896    1.402   .     A
C808   C816    1.394   .     A
C808   C834    1.411   .     A
C809   C940    1.409   .     A
C809   C912    1.453   .     S
C809   C942    1.409   .     A
C810   C913    1.452   .     S
C810   C941    1.407   .     A
C810   C938    1.409   .     A
C811   C905    1.450   .     S
C811   C937    1.409   .     A
C811   C944    1.406   .     A
C812   C936    1.409   .     A
C812   C943    1.409   .     A
C812   C907    1.449   .     S
C813   C908    1.453   .     S
C813   C946    1.409   .     A
C813   C935    1.409   .     A
C814   C934    1.407   .     A
C814   C945    1.409   .     A
C814   C909    1.452   .     S
C815   C910    1.450   .     S
C815   C948    1.405   .     A
C815   C933    1.405   .     A
C816   C878    1.404   .     A
C816   H1010   1.084   .     S
C817   C911    1.449   .     S
C817   C932    1.411   .     A
C817   C947    1.411   .     A
C818   C931    1.405   .     A
C818   C951    1.405   .     A
C818   C921    1.451   .     S
C819   C930    1.410   .     A
C819   C949    1.410   .     A
C819   C922    1.449   .     S
C820   C953    1.406   .     A
C820   C929    1.409   .     A
C820   C914    1.452   .     S
C821   C927    1.410   .     A
C821   C952    1.410   .     A
C821   C915    1.451   .     S
C822   C926    1.408   .     A
C822   C955    1.408   .     A
C822   C916    1.450   .     S
C823   C954    1.409   .     A
C823   C925    1.406   .     A
C823   C918    1.450   .     S
C824   C919    1.452   .     S
C824   C957    1.409   .     A
C824   C924    1.406   .     A
C825   C956    1.410   .     A
C825   C923    1.410   .     A
C825   C920    1.451   .     S
C826   C828    1.403   .     A
C826   C958    1.411   .     A
C826   C1192   1.411   1_455 S
C827   H1011   1.084   .     S
C827   C83     1.403   1_565 S
C828   C1355   1.411   1_455 S
C829   C830    1.403   .     A
C831   C832    1.403   1_556 S
C832   C831    1.403   1_554 S
C833   C1203   1.411   1_455 S
C833   C834    1.403   1_556 S
C834   C1199   1.411   1_455 S
C834   C833    1.403   1_554 S
C835   O1137   1.415   .     S
C835   H1018   1.109   .     S
C835   H1016   1.109   .     S
C835   H1017   1.116   .     S
C836   H1019   1.112   .     S
C836   O1138   1.410   .     S
C836   H1021   1.110   .     S
C836   H1020   1.108   .     S
C837   O1139   1.411   .     S
C837   H1022   1.109   .     S
C837   H1025   1.110   .     S
C837   H1024   1.112   .     S
C838   C876    1.404   .     A
C838   H1013   1.084   .     S
C839   H1027   1.108   .     S
C839   H1028   1.112   .     S
C839   H1026   1.110   .     S
C839   O1140   1.412   .     S
C840   H1031   1.109   .     S
C840   H1029   1.109   .     S
C840   O1141   1.415   .     S
C840   H1030   1.116   .     S
C841   H1033   1.109   .     S
C841   H1035   1.109   .     S
C841   O1142   1.416   .     S
C841   H1032   1.116   .     S
C842   O1143   1.415   .     S
C842   H1038   1.109   .     S
C842   H1036   1.110   .     S
C842   H1037   1.116   .     S
C843   H1039   1.112   .     S
C843   O1145   1.411   .     S
C843   H1040   1.108   .     S
C843   H1041   1.111   .     S
C844   H1042   1.110   .     S
C844   H1044   1.109   .     S
C844   O1146   1.415   .     S
C844   H1043   1.116   .     S
C845   H1046   1.112   .     S
C845   H1048   1.110   .     S
C845   O1147   1.411   .     S
C845   H1047   1.109   .     S
C846   H1050   1.111   .     S
C846   O1148   1.410   .     S
C846   H1051   1.110   .     S
C846   H1049   1.107   .     S
C847   H1052   1.111   .     S
C847   H1054   1.112   .     S
C847   O1149   1.411   .     S
C847   H1053   1.108   .     S
C848   O1150   1.414   .     S
C848   H1058   1.109   .     S
C848   H1055   1.108   .     S
C848   H1057   1.115   .     S
C849   C877    1.403   .     A
C849   H1014   1.084   .     S
C850   O1151   1.415   .     S
C850   H1060   1.109   .     S
C850   H1061   1.109   .     S
C850   H1059   1.116   .     S
C851   O1152   1.415   .     S
C851   H1064   1.109   .     S
C851   H1062   1.109   .     S
C851   H1063   1.116   .     S
C852   H1066   1.108   .     S
C852   O1153   1.411   .     S
C852   H1068   1.112   .     S
C852   H1065   1.111   .     S
C853   H1070   1.111   .     S
C853   O1154   1.410   .     S
C853   H1069   1.107   .     S
C853   H1071   1.110   .     S
C854   H1073   1.108   .     S
C854   H1074   1.112   .     S
C854   H1072   1.111   .     S
C854   O1156   1.411   .     S
C855   O1157   1.414   .     S
C855   H1077   1.109   .     S
C855   H1076   1.115   .     S
C855   H1075   1.108   .     S
C856   H1080   1.109   .     S
C856   O1158   1.411   .     S
C856   H1079   1.112   .     S
C856   H1081   1.110   .     S
C857   H1082   1.109   .     S
C857   H1084   1.109   .     S
C857   O1159   1.415   .     S
C857   H1083   1.116   .     S
C858   H1086   1.108   .     S
C858   O1160   1.411   .     S
C858   H1087   1.112   .     S
C858   H1085   1.111   .     S
C859   H964    1.109   .     S
C859   H1088   1.110   .     S
C859   H963    1.116   .     S
C859   O1161   1.415   .     S
C860   H1015   1.084   .     S
C860   C1274   1.403   .     S
C861   H965    1.112   .     S
C861   H967    1.110   .     S
C861   O1162   1.411   .     S
C861   H966    1.109   .     S
C862   H968    1.110   .     S
C862   H969    1.116   .     S
C862   O1163   1.415   .     S
C862   H970    1.109   .     S
C863   O1164   1.411   .     S
C863   H972    1.108   .     S
C863   H971    1.112   .     S
C863   H974    1.111   .     S
C864   H976    1.116   .     S
C864   H977    1.109   .     S
C864   O1165   1.415   .     S
C864   H975    1.109   .     S
C865   H978    1.112   .     S
C865   H980    1.110   .     S
C865   H979    1.108   .     S
C865   O1167   1.410   .     S
C866   H982    1.116   .     S
C866   H983    1.109   .     S
C866   H981    1.110   .     S
C866   O1168   1.415   .     S
C867   O1169   1.411   .     S
C867   H986    1.108   .     S
C867   H987    1.112   .     S
C867   H985    1.110   .     S
C868   H989    1.116   .     S
C868   H988    1.109   .     S
C868   O1170   1.415   .     S
C868   H990    1.109   .     S
C869   O1171   1.416   .     S
C869   H993    1.109   .     S
C869   H992    1.109   .     S
C869   H991    1.116   .     S
C870   C906    1.404   .     A
C870   C1189   1.403   1_455 S
C870   C899    1.463   .     S
C871   C900    1.463   .     S
C871   C873    1.404   .     A
C871   C1313   1.403   1_455 S
C872   C897    1.463   .     S
C872   C884    1.404   .     S
C873   H999    1.084   .     S
C874   C898    1.463   .     S
C874   C939    1.403   .     A
C875   C950    1.403   .     A
C875   C903    1.463   .     S
C876   C904    1.463   .     S
C877   C901    1.463   .     S
C877   C1201   1.404   1_455 S
C878   C1256   1.403   1_455 S
C878   C902    1.463   .     S
C879   H961    1.084   .     S
C879   C885    1.395   .     A
C879   C958    1.402   .     A
C880   C883    1.395   .     A
C880   C959    1.402   .     A
C880   H1001   1.084   .     S
C881   C887    1.395   .     A
C881   C960    1.402   .     A
C881   H1012   1.084   .     S
C882   C886    1.395   .     A
C882   H1023   1.084   .     S
C883   H1034   1.084   .     S
C884   H1000   1.084   .     S
C885   H1045   1.084   .     S
C886   H1056   1.084   .     S
C887   H1067   1.084   .     S
C888   H1078   1.084   .     S
C888   C893    1.395   1_556 S
C889   H962    1.084   .     S
C889   C892    1.395   1_554 S
C890   H973    1.084   .     S
C890   C896    1.395   1_556 S
C891   H984    1.084   .     S
C891   C894    1.395   1_554 S
C892   H994    1.084   .     S
C892   C889    1.395   1_556 S
C893   H995    1.084   .     S
C893   C888    1.395   1_554 S
C894   H996    1.084   .     S
C894   C891    1.395   1_556 S
C895   H1002   1.084   .     S
C895   C82     1.404   1_565 S
C896   H997    1.084   .     S
C896   C890    1.395   1_554 S
C897   O1172   1.280   .     S
C898   O1144   1.280   .     A
C899   O1487   1.280   1_455 A
C899   O1155   1.280   .     S
C900   O1092   1.280   .     A
C900   O1562   1.280   1_455 S
C901   O1097   1.280   .     A
C901   O1093   1.280   .     S
C902   O1098   1.280   .     A
C902   O1094   1.280   .     S
C903   O1099   1.280   .     A
C903   O1095   1.280   .     A
C904   O1096   1.280   .     A
C904   O1101   1.280   .     A
C905   O1102   1.279   .     A
C905   O1130   1.278   .     A
C906   H1003   1.084   .     S
C906   C958    1.394   .     A
C907   O1103   1.279   .     A
C907   O1131   1.279   .     A
C908   O1104   1.279   .     A
C908   O1128   1.279   .     A
C909   O1129   1.280   .     A
C909   O1105   1.277   .     A
C910   O1106   1.278   .     A
C910   O1135   1.279   .     A
C911   O1136   1.278   .     A
C911   O1107   1.278   .     A
C912   O1108   1.279   .     A
C912   O1132   1.279   .     A
C913   O1109   1.280   .     A
C913   O1134   1.277   .     A
C914   O1121   1.277   .     A
C914   O1110   1.280   .     A
C915   O1123   1.278   .     A
C915   O1112   1.278   .     A
C916   O1113   1.279   .     A
C916   O1119   1.279   .     A
C917   H1004   1.084   .     S
C917   C959    1.394   .     A
C917   C1267   1.403   .     S
C918   O1114   1.278   .     A
C918   O1120   1.279   .     A
C919   O1115   1.277   .     A
C919   O1126   1.280   .     A
C920   O1127   1.278   .     A
C920   O1116   1.278   .     A
C921   O1124   1.279   .     A
C921   O1117   1.279   .     A
C922   O1125   1.278   .     A
C922   O1118   1.278   .     A
C923   O1137   1.386   .     S
C923   C940    1.394   .     A
C924   O1138   1.385   .     S
C924   C938    1.400   .     A
C925   C937    1.399   .     A
C925   O1139   1.383   .     S
C926   O1140   1.384   .     S
C926   C936    1.392   .     A
C927   C935    1.394   .     A
C927   O1141   1.386   .     S
C928   H1005   1.084   .     S
C928   C80     1.403   1_565 A
C928   C960    1.394   .     A
C929   C934    1.400   .     A
C929   O1142   1.385   .     S
C930   C933    1.399   .     A
C930   O1143   1.385   .     S
C931   C932    1.399   .     A
C931   O1145   1.384   .     S
C932   O1146   1.387   .     S
C933   O1147   1.384   .     S
C934   O1148   1.384   .     S
C935   O1149   1.384   .     S
C936   O1150   1.385   .     S
C937   O1151   1.386   .     S
C938   O1152   1.384   .     S
C939   H1006   1.084   .     S
C940   O1153   1.384   .     S
C941   O1154   1.384   .     S
C941   C957    1.400   .     A
C942   C956    1.394   .     A
C942   O1156   1.384   .     S
C943   O1157   1.385   .     S
C943   C955    1.392   .     A
C944   O1158   1.384   .     S
C944   C954    1.399   .     A
C945   C953    1.400   .     A
C945   O1159   1.384   .     S
C946   O1160   1.384   .     S
C946   C952    1.394   .     A
C947   O1161   1.387   .     S
C947   C951    1.399   .     A
C948   O1162   1.384   .     S
C948   C949    1.399   .     A
C949   O1163   1.385   .     S
C950   H1007   1.084   .     S
C951   O1164   1.384   .     S
C952   O1165   1.386   .     S
C953   O1167   1.385   .     S
C954   O1168   1.385   .     S
C955   O1169   1.384   .     S
C956   O1170   1.386   .     S
C957   O1171   1.385   .     S
C959   C1224   1.411   .     S
C960   C37     1.411   1_565 S
O1089  Zn1176  1.946   .     S
O1089  Zn1184  1.946   .     S
O1089  Zn1173  1.946   .     S
O1090  Zn1175  1.950   .     S
O1090  C106    1.280   1_565 S
O1091  Zn1178  1.951   .     S
O1091  C1295   1.280   .     A
O1092  Zn1177  1.951   .     S
O1093  Zn1187  1.951   .     S
O1094  Zn1186  1.951   .     S
O1095  Zn1181  1.951   .     S
O1096  Zn1173  1.951   .     S
O1097  Zn1183  1.950   .     S
O1098  Zn1182  1.950   .     S
O1099  Zn1185  1.951   .     S
O1100  Zn1179  1.946   .     S
O1100  Zn1181  1.946   .     S
O1100  Zn1185  1.946   .     S
O1101  Zn1184  1.951   .     S
O1102  Zn1176  1.931   .     S
O1103  Zn1175  1.931   .     S
O1104  Zn1178  1.934   .     S
O1105  Zn1177  1.934   .     S
O1106  Zn1180  1.931   .     S
O1107  Zn1179  1.931   .     S
O1108  Zn1174  1.934   .     S
O1109  Zn1188  1.934   .     S
O1110  Zn1175  1.934   .     S
O1111  Zn1174  1.946   .     S
O1111  Zn1574  1.946   1_455 S
O1111  Zn1182  1.946   .     S
O1111  Zn1186  1.946   .     S
O1112  Zn1176  1.934   .     S
O1113  Zn1188  1.931   .     S
O1114  Zn1174  1.931   .     S
O1115  Zn1179  1.934   .     S
O1116  Zn1180  1.934   .     S
O1117  Zn1177  1.931   .     S
O1118  Zn1178  1.931   .     S
O1119  Zn1579  1.931   .     S
O1120  Zn1182  1.931   .     S
O1121  Zn393   1.934   1_565 S
O1122  Zn1177  1.946   .     S
O1122  Zn1183  1.946   .     S
O1122  Zn1187  1.946   .     S
O1122  Zn1584  1.946   1_455 S
O1123  Zn1184  1.934   .     S
O1124  Zn1187  1.931   .     S
O1125  Zn1582  1.931   .     S
O1126  Zn1181  1.934   .     S
O1127  Zn381   1.934   1_565 S
O1128  Zn1578  1.934   .     S
O1129  Zn1183  1.934   .     S
O1130  Zn1173  1.931   .     S
O1131  Zn389   1.931   1_565 S
O1132  Zn1186  1.934   .     S
O1133  Zn1180  1.951   .     S
O1133  C105    1.280   1_565 A
O1134  Zn1583  1.934   .     S
O1135  Zn392   1.931   1_565 S
O1136  Zn1185  1.931   .     S
O1144  Zn1179  1.951   .     S
O1155  Zn1174  1.951   .     S
O1166  Zn1188  1.951   .     S
O1166  C1296   1.280   .     S
O1172  Zn1176  1.950   .     S
Zn1175 O308    1.946   1_565 S
Zn1178 O1507   1.946   .     S
Zn1180 O297    1.946   1_565 S
Zn1182 O1524   1.934   1_455 S
Zn1183 O1515   1.931   1_455 S
Zn1186 O1521   1.931   1_455 S
Zn1187 O1530   1.934   1_455 S
Zn1188 O1518   1.946   .     S
C1189  H1394   1.084   .     S
C1189  C1192   1.394   .     A
C1189  C870    1.403   1_655 S
C1190  H1404   1.084   .     S
C1190  C1202   1.394   .     A
C1190  C480    1.403   1_565 S
C1191  C1335   1.394   .     A
C1191  C1278   1.402   .     A
C1191  C1226   1.411   .     A
C1192  C1279   1.402   .     A
C1192  C826    1.411   1_655 S
C1193  C1224   1.411   .     A
C1193  C1269   1.394   .     A
C1193  C1281   1.402   .     A
C1194  C1282   1.402   .     A
C1194  C1280   1.394   .     A
C1194  C1225   1.411   .     A
C1195  C1291   1.394   .     A
C1195  C1283   1.402   .     A
C1195  C434    1.411   1_565 S
C1196  C1223   1.394   .     A
C1196  C1284   1.402   .     A
C1196  C435    1.411   1_565 S
C1197  C1234   1.394   .     A
C1197  C1228   1.411   .     A
C1197  C1285   1.402   .     A
C1198  C1229   1.411   .     A
C1198  C1286   1.402   .     A
C1198  C1245   1.394   .     A
C1199  C1287   1.402   .     A
C1199  C1256   1.394   .     A
C1199  C834    1.411   1_655 S
C1200  C1346   1.394   .     A
C1200  C1227   1.411   .     A
C1200  C1288   1.402   .     A
C1201  C1203   1.394   .     A
C1201  H1405   1.084   .     S
C1201  C877    1.404   1_655 S
C1202  C1289   1.402   .     A
C1202  C436    1.411   1_565 S
C1203  C1290   1.402   .     A
C1203  C833    1.411   1_655 S
C1204  C1292   1.402   .     A
C1204  C1212   1.394   .     A
C1204  C1230   1.411   .     A
C1205  C1336   1.409   .     A
C1205  C1308   1.453   .     S
C1205  C1338   1.409   .     A
C1206  C1309   1.452   .     S
C1206  C1337   1.407   .     A
C1206  C1334   1.409   .     A
C1207  C1301   1.450   .     S
C1207  C1333   1.409   .     A
C1207  C1340   1.406   .     A
C1208  C1332   1.409   .     A
C1208  C1339   1.409   .     A
C1208  C1303   1.449   .     S
C1209  C1304   1.453   .     S
C1209  C1342   1.409   .     A
C1209  C1331   1.409   .     A
C1210  C1330   1.407   .     A
C1210  C1341   1.409   .     A
C1210  C1305   1.452   .     S
C1211  C1306   1.450   .     S
C1211  C1344   1.405   .     A
C1211  C1329   1.405   .     A
C1212  C1274   1.404   .     A
C1212  H1406   1.084   .     S
C1213  C1307   1.449   .     S
C1213  C1328   1.411   .     A
C1213  C1343   1.411   .     A
C1214  C1327   1.405   .     A
C1214  C1347   1.405   .     A
C1214  C1317   1.451   .     S
C1215  C1326   1.410   .     A
C1215  C1345   1.410   .     A
C1215  C1318   1.449   .     S
C1216  C1349   1.406   .     A
C1216  C1325   1.409   .     A
C1216  C1310   1.452   .     S
C1217  C1323   1.410   .     A
C1217  C1348   1.410   .     A
C1217  C1311   1.451   .     S
C1218  C1322   1.408   .     A
C1218  C1351   1.408   .     A
C1218  C1312   1.450   .     S
C1219  C1350   1.409   .     A
C1219  C1321   1.406   .     A
C1219  C1314   1.450   .     S
C1220  C1315   1.452   .     S
C1220  C1353   1.409   .     A
C1220  C1320   1.406   .     A
C1221  C1352   1.410   .     A
C1221  C1319   1.410   .     A
C1221  C1316   1.451   .     S
C1222  C1224   1.403   .     A
C1222  C1354   1.411   .     A
C1223  H1407   1.084   .     S
C1223  C479    1.403   1_565 S
C1225  C1226   1.403   .     A
C1227  C1228   1.403   1_556 S
C1228  C1227   1.403   1_554 S
C1229  C1230   1.403   1_556 S
C1230  C1229   1.403   1_554 S
C1231  O1533   1.415   .     S
C1231  H1414   1.109   .     S
C1231  H1412   1.109   .     S
C1231  H1413   1.116   .     S
C1232  H1415   1.112   .     S
C1232  O1534   1.410   .     S
C1232  H1417   1.110   .     S
C1232  H1416   1.108   .     S
C1233  O1535   1.411   .     S
C1233  H1418   1.109   .     S
C1233  H1421   1.110   .     S
C1233  H1420   1.112   .     S
C1234  C1272   1.404   .     A
C1234  H1409   1.084   .     S
C1235  H1423   1.108   .     S
C1235  H1424   1.112   .     S
C1235  H1422   1.110   .     S
C1235  O1536   1.412   .     S
C1236  H1427   1.109   .     S
C1236  H1425   1.109   .     S
C1236  O1537   1.415   .     S
C1236  H1426   1.116   .     S
C1237  H1429   1.109   .     S
C1237  H1431   1.109   .     S
C1237  O1538   1.416   .     S
C1237  H1428   1.116   .     S
C1238  O1539   1.415   .     S
C1238  H1434   1.109   .     S
C1238  H1432   1.110   .     S
C1238  H1433   1.116   .     S
C1239  H1435   1.112   .     S
C1239  O1541   1.411   .     S
C1239  H1436   1.108   .     S
C1239  H1437   1.111   .     S
C1240  H1438   1.110   .     S
C1240  H1440   1.109   .     S
C1240  O1542   1.415   .     S
C1240  H1439   1.116   .     S
C1241  H1442   1.112   .     S
C1241  H1444   1.110   .     S
C1241  O1543   1.411   .     S
C1241  H1443   1.109   .     S
C1242  H1446   1.111   .     S
C1242  O1544   1.410   .     S
C1242  H1447   1.110   .     S
C1242  H1445   1.107   .     S
C1243  H1448   1.111   .     S
C1243  H1450   1.112   .     S
C1243  O1545   1.411   .     S
C1243  H1449   1.108   .     S
C1244  O1546   1.414   .     S
C1244  H1454   1.109   .     S
C1244  H1451   1.108   .     S
C1244  H1453   1.115   .     S
C1245  C1273   1.403   .     A
C1245  H1410   1.084   .     S
C1246  O1547   1.415   .     S
C1246  H1456   1.109   .     S
C1246  H1457   1.109   .     S
C1246  H1455   1.116   .     S
C1247  O1548   1.415   .     S
C1247  H1460   1.109   .     S
C1247  H1458   1.109   .     S
C1247  H1459   1.116   .     S
C1248  H1462   1.108   .     S
C1248  O1549   1.411   .     S
C1248  H1464   1.112   .     S
C1248  H1461   1.111   .     S
C1249  H1466   1.111   .     S
C1249  O1550   1.410   .     S
C1249  H1465   1.107   .     S
C1249  H1467   1.110   .     S
C1250  H1469   1.108   .     S
C1250  H1470   1.112   .     S
C1250  H1468   1.111   .     S
C1250  O1552   1.411   .     S
C1251  O1553   1.414   .     S
C1251  H1473   1.109   .     S
C1251  H1472   1.115   .     S
C1251  H1471   1.108   .     S
C1252  H1476   1.109   .     S
C1252  O1554   1.411   .     S
C1252  H1475   1.112   .     S
C1252  H1477   1.110   .     S
C1253  H1478   1.109   .     S
C1253  H1480   1.109   .     S
C1253  O1555   1.415   .     S
C1253  H1479   1.116   .     S
C1254  H1482   1.108   .     S
C1254  O1556   1.411   .     S
C1254  H1483   1.112   .     S
C1254  H1481   1.111   .     S
C1255  H1360   1.109   .     S
C1255  H1484   1.110   .     S
C1255  H1359   1.116   .     S
C1255  O1557   1.415   .     S
C1256  H1411   1.084   .     S
C1256  C878    1.403   1_655 S
C1257  H1361   1.112   .     S
C1257  H1363   1.110   .     S
C1257  O1558   1.411   .     S
C1257  H1362   1.109   .     S
C1258  H1364   1.110   .     S
C1258  H1365   1.116   .     S
C1258  O1559   1.415   .     S
C1258  H1366   1.109   .     S
C1259  O1560   1.411   .     S
C1259  H1368   1.108   .     S
C1259  H1367   1.112   .     S
C1259  H1370   1.111   .     S
C1260  H1372   1.116   .     S
C1260  H1373   1.109   .     S
C1260  O1561   1.415   .     S
C1260  H1371   1.109   .     S
C1261  H1374   1.112   .     S
C1261  H1376   1.110   .     S
C1261  H1375   1.108   .     S
C1261  O1563   1.410   .     S
C1262  H1378   1.116   .     S
C1262  H1379   1.109   .     S
C1262  H1377   1.110   .     S
C1262  O1564   1.415   .     S
C1263  O1565   1.411   .     S
C1263  H1382   1.108   .     S
C1263  H1383   1.112   .     S
C1263  H1381   1.110   .     S
C1264  H1385   1.116   .     S
C1264  H1384   1.109   .     S
C1264  O1566   1.415   .     S
C1264  H1386   1.109   .     S
C1265  O1567   1.416   .     S
C1265  H1389   1.109   .     S
C1265  H1388   1.109   .     S
C1265  H1387   1.116   .     S
C1266  C1302   1.404   .     A
C1266  C1295   1.463   .     S
C1267  C1296   1.463   .     S
C1267  C1269   1.404   .     A
C1268  C1293   1.463   .     S
C1268  C1280   1.404   .     S
C1269  H1395   1.084   .     S
C1270  C1294   1.463   .     S
C1270  C1335   1.403   .     A
C1271  C1346   1.403   .     A
C1271  C1299   1.463   .     S
C1272  C1300   1.463   .     S
C1273  C1297   1.463   .     S
C1274  C1298   1.463   .     S
C1275  H1357   1.084   .     S
C1275  C1281   1.395   .     A
C1275  C1354   1.402   .     A
C1276  C1279   1.395   .     A
C1276  C1355   1.402   .     A
C1276  H1397   1.084   .     S
C1277  C1283   1.395   .     A
C1277  C1356   1.402   .     A
C1277  H1408   1.084   .     S
C1278  C1282   1.395   .     A
C1278  H1419   1.084   .     S
C1279  H1430   1.084   .     S
C1280  H1396   1.084   .     S
C1281  H1441   1.084   .     S
C1282  H1452   1.084   .     S
C1283  H1463   1.084   .     S
C1284  H1474   1.084   .     S
C1284  C1289   1.395   1_556 S
C1285  H1358   1.084   .     S
C1285  C1288   1.395   1_554 S
C1286  H1369   1.084   .     S
C1286  C1292   1.395   1_556 S
C1287  H1380   1.084   .     S
C1287  C1290   1.395   1_554 S
C1288  H1390   1.084   .     S
C1288  C1285   1.395   1_556 S
C1289  H1391   1.084   .     S
C1289  C1284   1.395   1_554 S
C1290  H1392   1.084   .     S
C1290  C1287   1.395   1_556 S
C1291  H1398   1.084   .     S
C1291  C478    1.404   1_565 S
C1292  H1393   1.084   .     S
C1292  C1286   1.395   1_554 S
C1293  O1568   1.280   .     S
C1294  O1540   1.280   .     A
C1295  O1551   1.280   .     S
C1296  O1488   1.280   .     A
C1297  O1493   1.280   .     A
C1297  O1489   1.280   .     S
C1298  O1494   1.280   .     A
C1298  O1490   1.280   .     S
C1299  O1495   1.280   .     A
C1299  O1491   1.280   .     A
C1300  O1492   1.280   .     A
C1300  O1497   1.280   .     A
C1301  O1498   1.279   .     A
C1301  O1526   1.278   .     A
C1302  H1399   1.084   .     S
C1302  C1354   1.394   .     A
C1303  O1499   1.279   .     A
C1303  O1527   1.279   .     A
C1304  O1500   1.279   .     A
C1304  O1524   1.279   .     A
C1305  O1525   1.280   .     A
C1305  O1501   1.277   .     A
C1306  O1502   1.278   .     A
C1306  O1531   1.279   .     A
C1307  O1532   1.278   .     A
C1307  O1503   1.278   .     A
C1308  O1504   1.279   .     A
C1308  O1528   1.279   .     A
C1309  O1505   1.280   .     A
C1309  O1530   1.277   .     A
C1310  O1517   1.277   .     A
C1310  O1506   1.280   .     A
C1311  O1519   1.278   .     A
C1311  O1508   1.278   .     A
C1312  O1509   1.279   .     A
C1312  O1515   1.279   .     A
C1313  H1400   1.084   .     S
C1313  C1355   1.394   .     A
C1313  C871    1.403   1_655 S
C1314  O1510   1.278   .     A
C1314  O1516   1.279   .     A
C1315  O1511   1.277   .     A
C1315  O1522   1.280   .     A
C1316  O1523   1.278   .     A
C1316  O1512   1.278   .     A
C1317  O1520   1.279   .     A
C1317  O1513   1.279   .     A
C1318  O1521   1.278   .     A
C1318  O1514   1.278   .     A
C1319  O1533   1.386   .     S
C1319  C1336   1.394   .     A
C1320  O1534   1.385   .     S
C1320  C1334   1.400   .     A
C1321  C1333   1.399   .     A
C1321  O1535   1.383   .     S
C1322  O1536   1.384   .     S
C1322  C1332   1.392   .     A
C1323  C1331   1.394   .     A
C1323  O1537   1.386   .     S
C1324  H1401   1.084   .     S
C1324  C476    1.403   1_565 A
C1324  C1356   1.394   .     A
C1325  C1330   1.400   .     A
C1325  O1538   1.385   .     S
C1326  C1329   1.399   .     A
C1326  O1539   1.385   .     S
C1327  C1328   1.399   .     A
C1327  O1541   1.384   .     S
C1328  O1542   1.387   .     S
C1329  O1543   1.384   .     S
C1330  O1544   1.384   .     S
C1331  O1545   1.384   .     S
C1332  O1546   1.385   .     S
C1333  O1547   1.386   .     S
C1334  O1548   1.384   .     S
C1335  H1402   1.084   .     S
C1336  O1549   1.384   .     S
C1337  O1550   1.384   .     S
C1337  C1353   1.400   .     A
C1338  C1352   1.394   .     A
C1338  O1552   1.384   .     S
C1339  O1553   1.385   .     S
C1339  C1351   1.392   .     A
C1340  O1554   1.384   .     S
C1340  C1350   1.399   .     A
C1341  C1349   1.400   .     A
C1341  O1555   1.384   .     S
C1342  O1556   1.384   .     S
C1342  C1348   1.394   .     A
C1343  O1557   1.387   .     S
C1343  C1347   1.399   .     A
C1344  O1558   1.384   .     S
C1344  C1345   1.399   .     A
C1345  O1559   1.385   .     S
C1346  H1403   1.084   .     S
C1347  O1560   1.384   .     S
C1348  O1561   1.386   .     S
C1349  O1563   1.385   .     S
C1350  O1564   1.385   .     S
C1351  O1565   1.384   .     S
C1352  O1566   1.386   .     S
C1353  O1567   1.385   .     S
C1355  C828    1.411   1_655 S
C1356  C433    1.411   1_565 S
O1485  Zn1572  1.946   .     S
O1485  Zn1580  1.946   .     S
O1485  Zn1569  1.946   .     S
O1486  Zn1571  1.950   .     S
O1486  C502    1.280   1_565 S
O1487  Zn1574  1.951   .     S
O1487  C899    1.280   1_655 A
O1488  Zn1573  1.951   .     S
O1489  Zn1583  1.951   .     S
O1490  Zn1582  1.951   .     S
O1491  Zn1577  1.951   .     S
O1492  Zn1569  1.951   .     S
O1493  Zn1579  1.950   .     S
O1494  Zn1578  1.950   .     S
O1495  Zn1581  1.951   .     S
O1496  Zn1575  1.946   .     S
O1496  Zn1577  1.946   .     S
O1496  Zn1581  1.946   .     S
O1497  Zn1580  1.951   .     S
O1498  Zn1572  1.931   .     S
O1499  Zn1571  1.931   .     S
O1500  Zn1574  1.934   .     S
O1501  Zn1573  1.934   .     S
O1502  Zn1576  1.931   .     S
O1503  Zn1575  1.931   .     S
O1504  Zn1570  1.934   .     S
O1505  Zn1584  1.934   .     S
O1506  Zn1571  1.934   .     S
O1507  Zn1570  1.946   .     S
O1507  Zn1578  1.946   .     S
O1507  Zn1582  1.946   .     S
O1508  Zn1572  1.934   .     S
O1509  Zn1584  1.931   .     S
O1510  Zn1570  1.931   .     S
O1511  Zn1575  1.934   .     S
O1512  Zn1576  1.934   .     S
O1513  Zn1573  1.931   .     S
O1514  Zn1574  1.931   .     S
O1515  Zn1183  1.931   1_655 S
O1516  Zn1578  1.931   .     S
O1517  Zn789   1.934   1_565 S
O1518  Zn1573  1.946   .     S
O1518  Zn1579  1.946   .     S
O1518  Zn1583  1.946   .     S
O1519  Zn1580  1.934   .     S
O1520  Zn1583  1.931   .     S
O1521  Zn1186  1.931   1_655 S
O1522  Zn1577  1.934   .     S
O1523  Zn777   1.934   1_565 S
O1524  Zn1182  1.934   1_655 S
O1525  Zn1579  1.934   .     S
O1526  Zn1569  1.931   .     S
O1527  Zn785   1.931   1_565 S
O1528  Zn1582  1.934   .     S
O1529  Zn1576  1.951   .     S
O1529  C501    1.280   1_565 A
O1530  Zn1187  1.934   1_655 S
O1531  Zn788   1.931   1_565 S
O1532  Zn1581  1.931   .     S
O1540  Zn1575  1.951   .     S
O1551  Zn1570  1.951   .     S
O1562  Zn1584  1.951   .     S
O1562  C900    1.280   1_655 S
O1568  Zn1572  1.950   .     S
Zn1571 O704    1.946   1_565 S
Zn1574 O1111   1.946   1_655 S
Zn1576 O693    1.946   1_565 S
Zn1584 O1122   1.946   1_655 S
