data_str_m2_o1_o16_pcu_sym.132
_audit_creation_date              2020-01-03
_audit_creation_method            'Materials Studio'
_symmetry_space_group_name_H-M    'P1'
_symmetry_Int_Tables_number       1
_symmetry_cell_setting            triclinic
loop_
_symmetry_equiv_pos_as_xyz
  x,y,z
_cell_length_a                    29.0392
_cell_length_b                    32.4215
_cell_length_c                    26.9735
_cell_angle_alpha                 91.2123
_cell_angle_beta                  73.1643
_cell_angle_gamma                 90.4676
loop_
_atom_site_label
_atom_site_type_symbol
_atom_site_fract_x
_atom_site_fract_y
_atom_site_fract_z
_atom_site_U_iso_or_equiv
_atom_site_adp_type
_atom_site_occupancy
C1     C     0.16730   0.24584   0.24884   0.00000  Uiso   1.00
C2     C     0.14265   0.17897   0.49193   0.00000  Uiso   1.00
C3     C     0.15771   0.18270   0.43706   0.00000  Uiso   1.00
C4     C     0.17935   0.17320   0.01680   0.00000  Uiso   1.00
C5     C     0.22511   0.15889   0.48636   0.00000  Uiso   1.00
C6     C     0.23763   0.16354   0.43244   0.00000  Uiso   1.00
C7     C     0.20728   0.18730   0.41306   0.00000  Uiso   1.00
C8     C     0.17203   0.17913   0.06994   0.00000  Uiso   1.00
C9     C     0.24802   0.14618   0.06433   0.00000  Uiso   1.00
C10    C     0.12479   0.17488   0.40783   0.00000  Uiso   1.00
C11    C     0.21103   0.31294   0.22312   0.00000  Uiso   1.00
C12    C     0.14078   0.16912   0.35006   0.00000  Uiso   1.00
C13    C     0.20953   0.02253   0.22487   0.00000  Uiso   1.00
C14    C     0.16693   0.04323   0.24973   0.00000  Uiso   1.00
C15    C     0.12538   0.02143   0.27413   0.00000  Uiso   1.00
C16    C     0.12624   0.31219   0.27296   0.00000  Uiso   1.00
C17    C     0.16848   0.29074   0.24747   0.00000  Uiso   1.00
C18    C     0.30615   0.20187   0.25938   0.00000  Uiso   1.00
C19    C     0.02117   0.20183   0.26159   0.00000  Uiso   1.00
C20    C     0.02560   0.13073   0.24204   0.00000  Uiso   1.00
C21    C     0.31019   0.13137   0.24134   0.00000  Uiso   1.00
C22    C     0.16650   0.08768   0.25024   0.00000  Uiso   1.00
C23    C     0.19230   0.16645   0.15043   0.00000  Uiso   1.00
C24    C     0.25776   0.14308   0.01067   0.00000  Uiso   1.00
C25    C     0.20552   0.16500   0.09393   0.00000  Uiso   1.00
C26    C     0.07582   0.16939   0.43505   0.00000  Uiso   1.00
C27    C     0.05994   0.17478   0.48851   0.00000  Uiso   1.00
C28    C     0.09238   0.17692   0.01765   0.00000  Uiso   1.00
Cu29   Cu    0.11978   0.16666   0.25000   0.00000  Uiso   1.00
Cu30   Cu    0.21355   0.16667   0.25000   0.00000  Uiso   1.00
H31    H     0.27354   0.13396   0.08260   0.00000  Uiso   1.00
H32    H     0.24147   0.03994   0.20536   0.00000  Uiso   1.00
H33    H     0.09252   0.03730   0.29477   0.00000  Uiso   1.00
H34    H     0.09396   0.29625   0.29322   0.00000  Uiso   1.00
H35    H     0.28564   0.23009   0.26843   0.00000  Uiso   1.00
H36    H     0.29318   0.10268   0.23543   0.00000  Uiso   1.00
H37    H     0.29107   0.12907   0.48853   0.00000  Uiso   1.00
H38    H     0.14100   0.19581   0.09314   0.00000  Uiso   1.00
H39    H     0.02199   0.17125   0.00838   0.00000  Uiso   1.00
N40    N     0.04931   0.16666   0.24999   0.00000  Uiso   1.00
N41    N     0.28402   0.16669   0.25000   0.00000  Uiso   1.00
O42    O     0.12708   0.22678   0.25001   0.00000  Uiso   1.00
O43    O     0.20627   0.22679   0.25001   0.00000  Uiso   1.00
O44    O     0.10775   0.16665   0.32549   0.00000  Uiso   1.00
O45    O     0.18694   0.16666   0.32549   0.00000  Uiso   1.00
O46    O     0.12706   0.10654   0.25000   0.00000  Uiso   1.00
O47    O     0.20625   0.10655   0.25000   0.00000  Uiso   1.00
O48    O     0.14640   0.16667   0.17451   0.00000  Uiso   1.00
O49    O     0.22559   0.16668   0.17451   0.00000  Uiso   1.00
N50    N     0.03740   0.23759   0.28250   0.00000  Uiso   1.00
H51    H     0.02716   0.26485   0.26976   0.00000  Uiso   1.00
C52    C     0.02925   0.23753   0.33819   0.00000  Uiso   1.00
H53    H     0.00511   0.26338   0.35688   0.00000  Uiso   1.00
H54    H     0.06395   0.24141   0.34723   0.00000  Uiso   1.00
H55    H     0.01263   0.20834   0.35544   0.00000  Uiso   1.00
N56    N     0.04597   0.09125   0.24288   0.00000  Uiso   1.00
H57    H     0.02430   0.07257   0.27069   0.00000  Uiso   1.00
C58    C     0.06286   0.06993   0.19336   0.00000  Uiso   1.00
H59    H     0.03294   0.06497   0.17588   0.00000  Uiso   1.00
H60    H     0.07720   0.03927   0.19877   0.00000  Uiso   1.00
H61    H     0.09268   0.08753   0.16713   0.00000  Uiso   1.00
N62    N     0.27405   0.13930   0.39771   0.00000  Uiso   1.00
H63    H     0.28894   0.15258   0.36225   0.00000  Uiso   1.00
C64    C     0.25877   0.09735   0.39151   0.00000  Uiso   1.00
H65    H     0.28780   0.08024   0.36276   0.00000  Uiso   1.00
H66    H     0.22650   0.09721   0.37718   0.00000  Uiso   1.00
H67    H     0.25034   0.08110   0.42894   0.00000  Uiso   1.00
N68    N     0.04287   0.15364   0.40970   0.00000  Uiso   1.00
H69    H     0.00863   0.16477   0.42526   0.00000  Uiso   1.00
C70    C     0.04541   0.10928   0.40125   0.00000  Uiso   1.00
H71    H     0.02846   0.10072   0.37066   0.00000  Uiso   1.00
H72    H     0.02684   0.09325   0.43760   0.00000  Uiso   1.00
H73    H     0.08333   0.09851   0.38758   0.00000  Uiso   1.00
N74    N     0.07340   0.17081   0.07170   0.00000  Uiso   1.00
H75    H     0.04247   0.18747   0.08788   0.00000  Uiso   1.00
C76    C     0.06586   0.12800   0.08553   0.00000  Uiso   1.00
H77    H     0.04766   0.12655   0.12756   0.00000  Uiso   1.00
H78    H     0.10081   0.11153   0.07620   0.00000  Uiso   1.00
H79    H     0.04210   0.11271   0.06489   0.00000  Uiso   1.00
N80    N     0.22667   0.21670   0.37357   0.00000  Uiso   1.00
H81    H     0.26338   0.22018   0.36439   0.00000  Uiso   1.00
C82    C     0.20206   0.25592   0.37838   0.00000  Uiso   1.00
H83    H     0.22098   0.27582   0.34566   0.00000  Uiso   1.00
H84    H     0.16458   0.25163   0.37675   0.00000  Uiso   1.00
H85    H     0.20191   0.27176   0.41535   0.00000  Uiso   1.00
C86    C     0.25705   0.29351   0.19336   0.00000  Uiso   1.00
C87    C     0.25928   0.26775   0.15017   0.00000  Uiso   1.00
C88    C     0.30380   0.25396   0.11840   0.00000  Uiso   1.00
C89    C     0.01292   0.26609   0.12927   0.00000  Uiso   1.00
C90    C     0.01094   0.29107   0.17257   0.00000  Uiso   1.00
C91    C     0.29993   0.30479   0.20451   0.00000  Uiso   1.00
H92    H     0.22680   0.25940   0.14026   0.00000  Uiso   1.00
H93    H     0.30541   0.23459   0.08474   0.00000  Uiso   1.00
H94    H     0.04752   0.25667   0.10389   0.00000  Uiso   1.00
H95    H     0.04385   0.30033   0.18094   0.00000  Uiso   1.00
H96    H     0.29905   0.32491   0.23736   0.00000  Uiso   1.00
C97    C     0.50063   0.24584   0.24884   0.00000  Uiso   1.00
C98    C     0.47598   0.17897   0.49193   0.00000  Uiso   1.00
C99    C     0.49104   0.18270   0.43706   0.00000  Uiso   1.00
C100   C     0.51268   0.17320   0.01680   0.00000  Uiso   1.00
C101   C     0.55844   0.15889   0.48636   0.00000  Uiso   1.00
C102   C     0.57096   0.16354   0.43244   0.00000  Uiso   1.00
C103   C     0.54061   0.18730   0.41306   0.00000  Uiso   1.00
C104   C     0.50536   0.17913   0.06994   0.00000  Uiso   1.00
C105   C     0.58135   0.14618   0.06433   0.00000  Uiso   1.00
C106   C     0.45812   0.17488   0.40783   0.00000  Uiso   1.00
C107   C     0.54436   0.31294   0.22312   0.00000  Uiso   1.00
C108   C     0.47411   0.16912   0.35006   0.00000  Uiso   1.00
C109   C     0.54286   0.02253   0.22487   0.00000  Uiso   1.00
C110   C     0.50026   0.04323   0.24973   0.00000  Uiso   1.00
C111   C     0.45871   0.02143   0.27413   0.00000  Uiso   1.00
C112   C     0.45957   0.31219   0.27296   0.00000  Uiso   1.00
C113   C     0.50181   0.29074   0.24747   0.00000  Uiso   1.00
C114   C     0.63949   0.20187   0.25938   0.00000  Uiso   1.00
C115   C     0.35451   0.20183   0.26159   0.00000  Uiso   1.00
C116   C     0.35893   0.13073   0.24204   0.00000  Uiso   1.00
C117   C     0.64353   0.13137   0.24134   0.00000  Uiso   1.00
C118   C     0.49984   0.08768   0.25024   0.00000  Uiso   1.00
C119   C     0.52563   0.16645   0.15043   0.00000  Uiso   1.00
C120   C     0.59109   0.14308   0.01067   0.00000  Uiso   1.00
C121   C     0.53886   0.16500   0.09393   0.00000  Uiso   1.00
C122   C     0.40916   0.16939   0.43505   0.00000  Uiso   1.00
C123   C     0.39327   0.17478   0.48851   0.00000  Uiso   1.00
C124   C     0.42571   0.17692   0.01765   0.00000  Uiso   1.00
Cu125  Cu    0.45311   0.16666   0.25000   0.00000  Uiso   1.00
Cu126  Cu    0.54689   0.16667   0.25000   0.00000  Uiso   1.00
H127   H     0.60687   0.13396   0.08260   0.00000  Uiso   1.00
H128   H     0.57481   0.03994   0.20536   0.00000  Uiso   1.00
H129   H     0.42586   0.03730   0.29477   0.00000  Uiso   1.00
H130   H     0.42729   0.29625   0.29322   0.00000  Uiso   1.00
H131   H     0.61897   0.23009   0.26843   0.00000  Uiso   1.00
H132   H     0.62651   0.10268   0.23543   0.00000  Uiso   1.00
H133   H     0.62441   0.12907   0.48853   0.00000  Uiso   1.00
H134   H     0.47433   0.19581   0.09314   0.00000  Uiso   1.00
H135   H     0.35532   0.17125   0.00838   0.00000  Uiso   1.00
N136   N     0.38265   0.16666   0.24999   0.00000  Uiso   1.00
N137   N     0.61735   0.16669   0.25000   0.00000  Uiso   1.00
O138   O     0.46042   0.22678   0.25001   0.00000  Uiso   1.00
O139   O     0.53961   0.22679   0.25001   0.00000  Uiso   1.00
O140   O     0.44108   0.16665   0.32549   0.00000  Uiso   1.00
O141   O     0.52027   0.16666   0.32549   0.00000  Uiso   1.00
O142   O     0.46039   0.10654   0.25000   0.00000  Uiso   1.00
O143   O     0.53958   0.10655   0.25000   0.00000  Uiso   1.00
O144   O     0.47973   0.16667   0.17451   0.00000  Uiso   1.00
O145   O     0.55892   0.16668   0.17451   0.00000  Uiso   1.00
N146   N     0.37073   0.23759   0.28250   0.00000  Uiso   1.00
H147   H     0.36049   0.26485   0.26976   0.00000  Uiso   1.00
C148   C     0.36258   0.23753   0.33819   0.00000  Uiso   1.00
H149   H     0.33844   0.26338   0.35688   0.00000  Uiso   1.00
H150   H     0.39728   0.24141   0.34723   0.00000  Uiso   1.00
H151   H     0.34597   0.20834   0.35544   0.00000  Uiso   1.00
N152   N     0.37930   0.09125   0.24288   0.00000  Uiso   1.00
H153   H     0.35763   0.07257   0.27069   0.00000  Uiso   1.00
C154   C     0.39619   0.06993   0.19336   0.00000  Uiso   1.00
H155   H     0.36627   0.06497   0.17588   0.00000  Uiso   1.00
H156   H     0.41053   0.03927   0.19877   0.00000  Uiso   1.00
H157   H     0.42602   0.08753   0.16713   0.00000  Uiso   1.00
N158   N     0.60738   0.13930   0.39771   0.00000  Uiso   1.00
H159   H     0.62227   0.15258   0.36225   0.00000  Uiso   1.00
C160   C     0.59210   0.09735   0.39151   0.00000  Uiso   1.00
H161   H     0.62114   0.08024   0.36276   0.00000  Uiso   1.00
H162   H     0.55984   0.09721   0.37718   0.00000  Uiso   1.00
H163   H     0.58367   0.08110   0.42894   0.00000  Uiso   1.00
N164   N     0.37620   0.15364   0.40970   0.00000  Uiso   1.00
H165   H     0.34197   0.16477   0.42526   0.00000  Uiso   1.00
C166   C     0.37874   0.10928   0.40125   0.00000  Uiso   1.00
H167   H     0.36180   0.10072   0.37066   0.00000  Uiso   1.00
H168   H     0.36017   0.09325   0.43760   0.00000  Uiso   1.00
H169   H     0.41666   0.09851   0.38758   0.00000  Uiso   1.00
N170   N     0.40673   0.17081   0.07170   0.00000  Uiso   1.00
H171   H     0.37580   0.18747   0.08788   0.00000  Uiso   1.00
C172   C     0.39919   0.12800   0.08553   0.00000  Uiso   1.00
H173   H     0.38100   0.12655   0.12756   0.00000  Uiso   1.00
H174   H     0.43414   0.11153   0.07620   0.00000  Uiso   1.00
H175   H     0.37543   0.11271   0.06489   0.00000  Uiso   1.00
N176   N     0.56001   0.21670   0.37357   0.00000  Uiso   1.00
H177   H     0.59672   0.22018   0.36439   0.00000  Uiso   1.00
C178   C     0.53539   0.25592   0.37838   0.00000  Uiso   1.00
H179   H     0.55432   0.27582   0.34566   0.00000  Uiso   1.00
H180   H     0.49792   0.25163   0.37675   0.00000  Uiso   1.00
H181   H     0.53524   0.27176   0.41535   0.00000  Uiso   1.00
C182   C     0.59038   0.29351   0.19336   0.00000  Uiso   1.00
C183   C     0.59262   0.26775   0.15017   0.00000  Uiso   1.00
C184   C     0.63713   0.25396   0.11840   0.00000  Uiso   1.00
C185   C     0.34626   0.26609   0.12927   0.00000  Uiso   1.00
C186   C     0.34428   0.29107   0.17257   0.00000  Uiso   1.00
C187   C     0.63326   0.30479   0.20451   0.00000  Uiso   1.00
H188   H     0.56014   0.25940   0.14026   0.00000  Uiso   1.00
H189   H     0.63875   0.23459   0.08474   0.00000  Uiso   1.00
H190   H     0.38085   0.25667   0.10389   0.00000  Uiso   1.00
H191   H     0.37718   0.30033   0.18094   0.00000  Uiso   1.00
H192   H     0.63238   0.32491   0.23736   0.00000  Uiso   1.00
C193   C     0.83397   0.24584   0.24884   0.00000  Uiso   1.00
C194   C     0.80932   0.17897   0.49193   0.00000  Uiso   1.00
C195   C     0.82437   0.18270   0.43706   0.00000  Uiso   1.00
C196   C     0.84601   0.17320   0.01680   0.00000  Uiso   1.00
C197   C     0.89177   0.15889   0.48636   0.00000  Uiso   1.00
C198   C     0.90429   0.16354   0.43244   0.00000  Uiso   1.00
C199   C     0.87394   0.18730   0.41306   0.00000  Uiso   1.00
C200   C     0.83870   0.17913   0.06994   0.00000  Uiso   1.00
C201   C     0.91468   0.14618   0.06433   0.00000  Uiso   1.00
C202   C     0.79145   0.17488   0.40783   0.00000  Uiso   1.00
C203   C     0.87770   0.31294   0.22312   0.00000  Uiso   1.00
C204   C     0.80744   0.16912   0.35006   0.00000  Uiso   1.00
C205   C     0.87619   0.02253   0.22487   0.00000  Uiso   1.00
C206   C     0.83359   0.04323   0.24973   0.00000  Uiso   1.00
C207   C     0.79204   0.02143   0.27413   0.00000  Uiso   1.00
C208   C     0.79291   0.31219   0.27296   0.00000  Uiso   1.00
C209   C     0.83515   0.29074   0.24747   0.00000  Uiso   1.00
C210   C     0.97282   0.20187   0.25938   0.00000  Uiso   1.00
C211   C     0.68784   0.20183   0.26159   0.00000  Uiso   1.00
C212   C     0.69227   0.13073   0.24204   0.00000  Uiso   1.00
C213   C     0.97686   0.13137   0.24134   0.00000  Uiso   1.00
C214   C     0.83317   0.08768   0.25024   0.00000  Uiso   1.00
C215   C     0.85897   0.16645   0.15043   0.00000  Uiso   1.00
C216   C     0.92443   0.14308   0.01067   0.00000  Uiso   1.00
C217   C     0.87219   0.16500   0.09393   0.00000  Uiso   1.00
C218   C     0.74249   0.16939   0.43505   0.00000  Uiso   1.00
C219   C     0.72660   0.17478   0.48851   0.00000  Uiso   1.00
C220   C     0.75904   0.17692   0.01765   0.00000  Uiso   1.00
Cu221  Cu    0.78645   0.16666   0.25000   0.00000  Uiso   1.00
Cu222  Cu    0.88022   0.16667   0.25000   0.00000  Uiso   1.00
H223   H     0.94021   0.13396   0.08260   0.00000  Uiso   1.00
H224   H     0.90814   0.03994   0.20536   0.00000  Uiso   1.00
H225   H     0.75919   0.03730   0.29477   0.00000  Uiso   1.00
H226   H     0.76063   0.29625   0.29322   0.00000  Uiso   1.00
H227   H     0.95230   0.23009   0.26843   0.00000  Uiso   1.00
H228   H     0.95985   0.10268   0.23543   0.00000  Uiso   1.00
H229   H     0.95774   0.12907   0.48853   0.00000  Uiso   1.00
H230   H     0.80766   0.19581   0.09314   0.00000  Uiso   1.00
H231   H     0.68866   0.17125   0.00838   0.00000  Uiso   1.00
N232   N     0.71598   0.16666   0.24999   0.00000  Uiso   1.00
N233   N     0.95069   0.16669   0.25000   0.00000  Uiso   1.00
O234   O     0.79375   0.22678   0.25001   0.00000  Uiso   1.00
O235   O     0.87294   0.22679   0.25001   0.00000  Uiso   1.00
O236   O     0.77441   0.16665   0.32549   0.00000  Uiso   1.00
O237   O     0.85360   0.16666   0.32549   0.00000  Uiso   1.00
O238   O     0.79373   0.10654   0.25000   0.00000  Uiso   1.00
O239   O     0.87292   0.10655   0.25000   0.00000  Uiso   1.00
O240   O     0.81306   0.16667   0.17451   0.00000  Uiso   1.00
O241   O     0.89225   0.16668   0.17451   0.00000  Uiso   1.00
N242   N     0.70406   0.23759   0.28250   0.00000  Uiso   1.00
H243   H     0.69382   0.26485   0.26976   0.00000  Uiso   1.00
C244   C     0.69592   0.23753   0.33819   0.00000  Uiso   1.00
H245   H     0.67178   0.26338   0.35688   0.00000  Uiso   1.00
H246   H     0.73061   0.24141   0.34723   0.00000  Uiso   1.00
H247   H     0.67930   0.20834   0.35544   0.00000  Uiso   1.00
N248   N     0.71264   0.09125   0.24288   0.00000  Uiso   1.00
H249   H     0.69096   0.07257   0.27069   0.00000  Uiso   1.00
C250   C     0.72952   0.06993   0.19336   0.00000  Uiso   1.00
H251   H     0.69961   0.06497   0.17588   0.00000  Uiso   1.00
H252   H     0.74386   0.03927   0.19877   0.00000  Uiso   1.00
H253   H     0.75935   0.08753   0.16713   0.00000  Uiso   1.00
N254   N     0.94071   0.13930   0.39771   0.00000  Uiso   1.00
H255   H     0.95561   0.15258   0.36225   0.00000  Uiso   1.00
C256   C     0.92544   0.09735   0.39151   0.00000  Uiso   1.00
H257   H     0.95447   0.08024   0.36276   0.00000  Uiso   1.00
H258   H     0.89317   0.09721   0.37718   0.00000  Uiso   1.00
H259   H     0.91701   0.08110   0.42894   0.00000  Uiso   1.00
N260   N     0.70953   0.15364   0.40970   0.00000  Uiso   1.00
H261   H     0.67530   0.16477   0.42526   0.00000  Uiso   1.00
C262   C     0.71208   0.10928   0.40125   0.00000  Uiso   1.00
H263   H     0.69513   0.10072   0.37066   0.00000  Uiso   1.00
H264   H     0.69350   0.09325   0.43760   0.00000  Uiso   1.00
H265   H     0.74999   0.09851   0.38758   0.00000  Uiso   1.00
N266   N     0.74007   0.17081   0.07170   0.00000  Uiso   1.00
H267   H     0.70914   0.18747   0.08788   0.00000  Uiso   1.00
C268   C     0.73252   0.12800   0.08553   0.00000  Uiso   1.00
H269   H     0.71433   0.12655   0.12756   0.00000  Uiso   1.00
H270   H     0.76748   0.11153   0.07620   0.00000  Uiso   1.00
H271   H     0.70876   0.11271   0.06489   0.00000  Uiso   1.00
N272   N     0.89334   0.21670   0.37357   0.00000  Uiso   1.00
H273   H     0.93005   0.22018   0.36439   0.00000  Uiso   1.00
C274   C     0.86873   0.25592   0.37838   0.00000  Uiso   1.00
H275   H     0.88765   0.27582   0.34566   0.00000  Uiso   1.00
H276   H     0.83125   0.25163   0.37675   0.00000  Uiso   1.00
H277   H     0.86858   0.27176   0.41535   0.00000  Uiso   1.00
C278   C     0.92371   0.29351   0.19336   0.00000  Uiso   1.00
C279   C     0.92595   0.26775   0.15017   0.00000  Uiso   1.00
C280   C     0.97047   0.25396   0.11840   0.00000  Uiso   1.00
C281   C     0.67959   0.26609   0.12927   0.00000  Uiso   1.00
C282   C     0.67761   0.29107   0.17257   0.00000  Uiso   1.00
C283   C     0.96660   0.30479   0.20451   0.00000  Uiso   1.00
H284   H     0.89347   0.25940   0.14026   0.00000  Uiso   1.00
H285   H     0.97208   0.23459   0.08474   0.00000  Uiso   1.00
H286   H     0.71419   0.25667   0.10389   0.00000  Uiso   1.00
H287   H     0.71052   0.30033   0.18094   0.00000  Uiso   1.00
H288   H     0.96572   0.32491   0.23736   0.00000  Uiso   1.00
C289   C     0.16730   0.57917   0.24884   0.00000  Uiso   1.00
C290   C     0.14265   0.51230   0.49193   0.00000  Uiso   1.00
C291   C     0.15771   0.51603   0.43706   0.00000  Uiso   1.00
C292   C     0.17935   0.50654   0.01680   0.00000  Uiso   1.00
C293   C     0.22511   0.49222   0.48636   0.00000  Uiso   1.00
C294   C     0.23763   0.49687   0.43244   0.00000  Uiso   1.00
C295   C     0.20728   0.52063   0.41306   0.00000  Uiso   1.00
C296   C     0.17203   0.51246   0.06994   0.00000  Uiso   1.00
C297   C     0.24802   0.47951   0.06433   0.00000  Uiso   1.00
C298   C     0.12479   0.50822   0.40783   0.00000  Uiso   1.00
C299   C     0.21103   0.64628   0.22312   0.00000  Uiso   1.00
C300   C     0.14078   0.50245   0.35006   0.00000  Uiso   1.00
C301   C     0.20953   0.35587   0.22487   0.00000  Uiso   1.00
C302   C     0.16693   0.37656   0.24973   0.00000  Uiso   1.00
C303   C     0.12538   0.35477   0.27413   0.00000  Uiso   1.00
C304   C     0.12624   0.64552   0.27296   0.00000  Uiso   1.00
C305   C     0.16848   0.62408   0.24747   0.00000  Uiso   1.00
C306   C     0.30615   0.53521   0.25938   0.00000  Uiso   1.00
C307   C     0.02117   0.53517   0.26159   0.00000  Uiso   1.00
C308   C     0.02560   0.46406   0.24204   0.00000  Uiso   1.00
C309   C     0.31019   0.46470   0.24134   0.00000  Uiso   1.00
C310   C     0.16650   0.42101   0.25024   0.00000  Uiso   1.00
C311   C     0.19230   0.49979   0.15043   0.00000  Uiso   1.00
C312   C     0.25776   0.47642   0.01067   0.00000  Uiso   1.00
C313   C     0.20552   0.49834   0.09393   0.00000  Uiso   1.00
C314   C     0.07582   0.50273   0.43505   0.00000  Uiso   1.00
C315   C     0.05994   0.50811   0.48851   0.00000  Uiso   1.00
C316   C     0.09238   0.51026   0.01765   0.00000  Uiso   1.00
Cu317  Cu    0.11978   0.49999   0.25000   0.00000  Uiso   1.00
Cu318  Cu    0.21355   0.50001   0.25000   0.00000  Uiso   1.00
H319   H     0.27354   0.46729   0.08260   0.00000  Uiso   1.00
H320   H     0.24147   0.37328   0.20536   0.00000  Uiso   1.00
H321   H     0.09252   0.37063   0.29477   0.00000  Uiso   1.00
H322   H     0.09396   0.62959   0.29322   0.00000  Uiso   1.00
H323   H     0.28564   0.56342   0.26843   0.00000  Uiso   1.00
H324   H     0.29318   0.43601   0.23543   0.00000  Uiso   1.00
H325   H     0.29107   0.46241   0.48853   0.00000  Uiso   1.00
H326   H     0.14100   0.52915   0.09314   0.00000  Uiso   1.00
H327   H     0.02199   0.50458   0.00838   0.00000  Uiso   1.00
N328   N     0.04931   0.49999   0.24999   0.00000  Uiso   1.00
N329   N     0.28402   0.50002   0.25000   0.00000  Uiso   1.00
O330   O     0.12708   0.56011   0.25001   0.00000  Uiso   1.00
O331   O     0.20627   0.56012   0.25001   0.00000  Uiso   1.00
O332   O     0.10775   0.49998   0.32549   0.00000  Uiso   1.00
O333   O     0.18694   0.49999   0.32549   0.00000  Uiso   1.00
O334   O     0.12706   0.43988   0.25000   0.00000  Uiso   1.00
O335   O     0.20625   0.43989   0.25000   0.00000  Uiso   1.00
O336   O     0.14640   0.50001   0.17451   0.00000  Uiso   1.00
O337   O     0.22559   0.50002   0.17451   0.00000  Uiso   1.00
N338   N     0.03740   0.57092   0.28250   0.00000  Uiso   1.00
H339   H     0.02716   0.59818   0.26976   0.00000  Uiso   1.00
C340   C     0.02925   0.57086   0.33819   0.00000  Uiso   1.00
H341   H     0.00511   0.59672   0.35688   0.00000  Uiso   1.00
H342   H     0.06395   0.57474   0.34723   0.00000  Uiso   1.00
H343   H     0.01263   0.54168   0.35544   0.00000  Uiso   1.00
N344   N     0.04597   0.42459   0.24288   0.00000  Uiso   1.00
H345   H     0.02430   0.40590   0.27069   0.00000  Uiso   1.00
C346   C     0.06286   0.40326   0.19336   0.00000  Uiso   1.00
H347   H     0.03294   0.39831   0.17588   0.00000  Uiso   1.00
H348   H     0.07720   0.37260   0.19877   0.00000  Uiso   1.00
H349   H     0.09268   0.42086   0.16713   0.00000  Uiso   1.00
N350   N     0.27405   0.47264   0.39771   0.00000  Uiso   1.00
H351   H     0.28894   0.48591   0.36225   0.00000  Uiso   1.00
C352   C     0.25877   0.43068   0.39151   0.00000  Uiso   1.00
H353   H     0.28780   0.41357   0.36276   0.00000  Uiso   1.00
H354   H     0.22650   0.43054   0.37718   0.00000  Uiso   1.00
H355   H     0.25034   0.41444   0.42894   0.00000  Uiso   1.00
N356   N     0.04287   0.48697   0.40970   0.00000  Uiso   1.00
H357   H     0.00863   0.49810   0.42526   0.00000  Uiso   1.00
C358   C     0.04541   0.44261   0.40125   0.00000  Uiso   1.00
H359   H     0.02846   0.43406   0.37066   0.00000  Uiso   1.00
H360   H     0.02684   0.42658   0.43760   0.00000  Uiso   1.00
H361   H     0.08333   0.43184   0.38758   0.00000  Uiso   1.00
N362   N     0.07340   0.50414   0.07170   0.00000  Uiso   1.00
H363   H     0.04247   0.52080   0.08788   0.00000  Uiso   1.00
C364   C     0.06586   0.46134   0.08553   0.00000  Uiso   1.00
H365   H     0.04766   0.45988   0.12756   0.00000  Uiso   1.00
H366   H     0.10081   0.44487   0.07620   0.00000  Uiso   1.00
H367   H     0.04210   0.44605   0.06489   0.00000  Uiso   1.00
N368   N     0.22667   0.55003   0.37357   0.00000  Uiso   1.00
H369   H     0.26338   0.55352   0.36439   0.00000  Uiso   1.00
C370   C     0.20206   0.58925   0.37838   0.00000  Uiso   1.00
H371   H     0.22098   0.60915   0.34566   0.00000  Uiso   1.00
H372   H     0.16458   0.58497   0.37675   0.00000  Uiso   1.00
H373   H     0.20191   0.60510   0.41535   0.00000  Uiso   1.00
C374   C     0.25705   0.62685   0.19336   0.00000  Uiso   1.00
C375   C     0.25928   0.60108   0.15017   0.00000  Uiso   1.00
C376   C     0.30380   0.58729   0.11840   0.00000  Uiso   1.00
C377   C     0.01292   0.59943   0.12927   0.00000  Uiso   1.00
C378   C     0.01094   0.62441   0.17257   0.00000  Uiso   1.00
C379   C     0.29993   0.63812   0.20451   0.00000  Uiso   1.00
H380   H     0.22680   0.59273   0.14026   0.00000  Uiso   1.00
H381   H     0.30541   0.56793   0.08474   0.00000  Uiso   1.00
H382   H     0.04752   0.59000   0.10389   0.00000  Uiso   1.00
H383   H     0.04385   0.63366   0.18094   0.00000  Uiso   1.00
H384   H     0.29905   0.65824   0.23736   0.00000  Uiso   1.00
C385   C     0.50063   0.57917   0.24884   0.00000  Uiso   1.00
C386   C     0.47598   0.51230   0.49193   0.00000  Uiso   1.00
C387   C     0.49104   0.51603   0.43706   0.00000  Uiso   1.00
C388   C     0.51268   0.50654   0.01680   0.00000  Uiso   1.00
C389   C     0.55844   0.49222   0.48636   0.00000  Uiso   1.00
C390   C     0.57096   0.49687   0.43244   0.00000  Uiso   1.00
C391   C     0.54061   0.52063   0.41306   0.00000  Uiso   1.00
C392   C     0.50536   0.51246   0.06994   0.00000  Uiso   1.00
C393   C     0.58135   0.47951   0.06433   0.00000  Uiso   1.00
C394   C     0.45812   0.50822   0.40783   0.00000  Uiso   1.00
C395   C     0.54436   0.64628   0.22312   0.00000  Uiso   1.00
C396   C     0.47411   0.50245   0.35006   0.00000  Uiso   1.00
C397   C     0.54286   0.35587   0.22487   0.00000  Uiso   1.00
C398   C     0.50026   0.37656   0.24973   0.00000  Uiso   1.00
C399   C     0.45871   0.35477   0.27413   0.00000  Uiso   1.00
C400   C     0.45957   0.64552   0.27296   0.00000  Uiso   1.00
C401   C     0.50181   0.62408   0.24747   0.00000  Uiso   1.00
C402   C     0.63949   0.53521   0.25938   0.00000  Uiso   1.00
C403   C     0.35451   0.53517   0.26159   0.00000  Uiso   1.00
C404   C     0.35893   0.46406   0.24204   0.00000  Uiso   1.00
C405   C     0.64353   0.46470   0.24134   0.00000  Uiso   1.00
C406   C     0.49984   0.42101   0.25024   0.00000  Uiso   1.00
C407   C     0.52563   0.49979   0.15043   0.00000  Uiso   1.00
C408   C     0.59109   0.47642   0.01067   0.00000  Uiso   1.00
C409   C     0.53886   0.49834   0.09393   0.00000  Uiso   1.00
C410   C     0.40916   0.50273   0.43505   0.00000  Uiso   1.00
C411   C     0.39327   0.50811   0.48851   0.00000  Uiso   1.00
C412   C     0.42571   0.51026   0.01765   0.00000  Uiso   1.00
Cu413  Cu    0.45311   0.49999   0.25000   0.00000  Uiso   1.00
Cu414  Cu    0.54689   0.50001   0.25000   0.00000  Uiso   1.00
H415   H     0.60687   0.46729   0.08260   0.00000  Uiso   1.00
H416   H     0.57481   0.37328   0.20536   0.00000  Uiso   1.00
H417   H     0.42586   0.37063   0.29477   0.00000  Uiso   1.00
H418   H     0.42729   0.62959   0.29322   0.00000  Uiso   1.00
H419   H     0.61897   0.56342   0.26843   0.00000  Uiso   1.00
H420   H     0.62651   0.43601   0.23543   0.00000  Uiso   1.00
H421   H     0.62441   0.46241   0.48853   0.00000  Uiso   1.00
H422   H     0.47433   0.52915   0.09314   0.00000  Uiso   1.00
H423   H     0.35532   0.50458   0.00838   0.00000  Uiso   1.00
N424   N     0.38265   0.49999   0.24999   0.00000  Uiso   1.00
N425   N     0.61735   0.50002   0.25000   0.00000  Uiso   1.00
O426   O     0.46042   0.56011   0.25001   0.00000  Uiso   1.00
O427   O     0.53961   0.56012   0.25001   0.00000  Uiso   1.00
O428   O     0.44108   0.49998   0.32549   0.00000  Uiso   1.00
O429   O     0.52027   0.49999   0.32549   0.00000  Uiso   1.00
O430   O     0.46039   0.43988   0.25000   0.00000  Uiso   1.00
O431   O     0.53958   0.43989   0.25000   0.00000  Uiso   1.00
O432   O     0.47973   0.50001   0.17451   0.00000  Uiso   1.00
O433   O     0.55892   0.50002   0.17451   0.00000  Uiso   1.00
N434   N     0.37073   0.57092   0.28250   0.00000  Uiso   1.00
H435   H     0.36049   0.59818   0.26976   0.00000  Uiso   1.00
C436   C     0.36258   0.57086   0.33819   0.00000  Uiso   1.00
H437   H     0.33844   0.59672   0.35688   0.00000  Uiso   1.00
H438   H     0.39728   0.57474   0.34723   0.00000  Uiso   1.00
H439   H     0.34597   0.54168   0.35544   0.00000  Uiso   1.00
N440   N     0.37930   0.42459   0.24288   0.00000  Uiso   1.00
H441   H     0.35763   0.40590   0.27069   0.00000  Uiso   1.00
C442   C     0.39619   0.40326   0.19336   0.00000  Uiso   1.00
H443   H     0.36627   0.39831   0.17588   0.00000  Uiso   1.00
H444   H     0.41053   0.37260   0.19877   0.00000  Uiso   1.00
H445   H     0.42602   0.42086   0.16713   0.00000  Uiso   1.00
N446   N     0.60738   0.47264   0.39771   0.00000  Uiso   1.00
H447   H     0.62227   0.48591   0.36225   0.00000  Uiso   1.00
C448   C     0.59210   0.43068   0.39151   0.00000  Uiso   1.00
H449   H     0.62114   0.41357   0.36276   0.00000  Uiso   1.00
H450   H     0.55984   0.43054   0.37718   0.00000  Uiso   1.00
H451   H     0.58367   0.41444   0.42894   0.00000  Uiso   1.00
N452   N     0.37620   0.48697   0.40970   0.00000  Uiso   1.00
H453   H     0.34197   0.49810   0.42526   0.00000  Uiso   1.00
C454   C     0.37874   0.44261   0.40125   0.00000  Uiso   1.00
H455   H     0.36180   0.43406   0.37066   0.00000  Uiso   1.00
H456   H     0.36017   0.42658   0.43760   0.00000  Uiso   1.00
H457   H     0.41666   0.43184   0.38758   0.00000  Uiso   1.00
N458   N     0.40673   0.50414   0.07170   0.00000  Uiso   1.00
H459   H     0.37580   0.52080   0.08788   0.00000  Uiso   1.00
C460   C     0.39919   0.46134   0.08553   0.00000  Uiso   1.00
H461   H     0.38100   0.45988   0.12756   0.00000  Uiso   1.00
H462   H     0.43414   0.44487   0.07620   0.00000  Uiso   1.00
H463   H     0.37543   0.44605   0.06489   0.00000  Uiso   1.00
N464   N     0.56001   0.55003   0.37357   0.00000  Uiso   1.00
H465   H     0.59672   0.55352   0.36439   0.00000  Uiso   1.00
C466   C     0.53539   0.58925   0.37838   0.00000  Uiso   1.00
H467   H     0.55432   0.60915   0.34566   0.00000  Uiso   1.00
H468   H     0.49792   0.58497   0.37675   0.00000  Uiso   1.00
H469   H     0.53524   0.60510   0.41535   0.00000  Uiso   1.00
C470   C     0.59038   0.62685   0.19336   0.00000  Uiso   1.00
C471   C     0.59262   0.60108   0.15017   0.00000  Uiso   1.00
C472   C     0.63713   0.58729   0.11840   0.00000  Uiso   1.00
C473   C     0.34626   0.59943   0.12927   0.00000  Uiso   1.00
C474   C     0.34428   0.62441   0.17257   0.00000  Uiso   1.00
C475   C     0.63326   0.63812   0.20451   0.00000  Uiso   1.00
H476   H     0.56014   0.59273   0.14026   0.00000  Uiso   1.00
H477   H     0.63875   0.56793   0.08474   0.00000  Uiso   1.00
H478   H     0.38085   0.59000   0.10389   0.00000  Uiso   1.00
H479   H     0.37718   0.63366   0.18094   0.00000  Uiso   1.00
H480   H     0.63238   0.65824   0.23736   0.00000  Uiso   1.00
C481   C     0.83397   0.57917   0.24884   0.00000  Uiso   1.00
C482   C     0.80932   0.51230   0.49193   0.00000  Uiso   1.00
C483   C     0.82437   0.51603   0.43706   0.00000  Uiso   1.00
C484   C     0.84601   0.50654   0.01680   0.00000  Uiso   1.00
C485   C     0.89177   0.49222   0.48636   0.00000  Uiso   1.00
C486   C     0.90429   0.49687   0.43244   0.00000  Uiso   1.00
C487   C     0.87394   0.52063   0.41306   0.00000  Uiso   1.00
C488   C     0.83870   0.51246   0.06994   0.00000  Uiso   1.00
C489   C     0.91468   0.47951   0.06433   0.00000  Uiso   1.00
C490   C     0.79145   0.50822   0.40783   0.00000  Uiso   1.00
C491   C     0.87770   0.64628   0.22312   0.00000  Uiso   1.00
C492   C     0.80744   0.50245   0.35006   0.00000  Uiso   1.00
C493   C     0.87619   0.35587   0.22487   0.00000  Uiso   1.00
C494   C     0.83359   0.37656   0.24973   0.00000  Uiso   1.00
C495   C     0.79204   0.35477   0.27413   0.00000  Uiso   1.00
C496   C     0.79291   0.64552   0.27296   0.00000  Uiso   1.00
C497   C     0.83515   0.62408   0.24747   0.00000  Uiso   1.00
C498   C     0.97282   0.53521   0.25938   0.00000  Uiso   1.00
C499   C     0.68784   0.53517   0.26159   0.00000  Uiso   1.00
C500   C     0.69227   0.46406   0.24204   0.00000  Uiso   1.00
C501   C     0.97686   0.46470   0.24134   0.00000  Uiso   1.00
C502   C     0.83317   0.42101   0.25024   0.00000  Uiso   1.00
C503   C     0.85897   0.49979   0.15043   0.00000  Uiso   1.00
C504   C     0.92443   0.47642   0.01067   0.00000  Uiso   1.00
C505   C     0.87219   0.49834   0.09393   0.00000  Uiso   1.00
C506   C     0.74249   0.50273   0.43505   0.00000  Uiso   1.00
C507   C     0.72660   0.50811   0.48851   0.00000  Uiso   1.00
C508   C     0.75904   0.51026   0.01765   0.00000  Uiso   1.00
Cu509  Cu    0.78645   0.49999   0.25000   0.00000  Uiso   1.00
Cu510  Cu    0.88022   0.50001   0.25000   0.00000  Uiso   1.00
H511   H     0.94021   0.46729   0.08260   0.00000  Uiso   1.00
H512   H     0.90814   0.37328   0.20536   0.00000  Uiso   1.00
H513   H     0.75919   0.37063   0.29477   0.00000  Uiso   1.00
H514   H     0.76063   0.62959   0.29322   0.00000  Uiso   1.00
H515   H     0.95230   0.56342   0.26843   0.00000  Uiso   1.00
H516   H     0.95985   0.43601   0.23543   0.00000  Uiso   1.00
H517   H     0.95774   0.46241   0.48853   0.00000  Uiso   1.00
H518   H     0.80766   0.52915   0.09314   0.00000  Uiso   1.00
H519   H     0.68866   0.50458   0.00838   0.00000  Uiso   1.00
N520   N     0.71598   0.49999   0.24999   0.00000  Uiso   1.00
N521   N     0.95069   0.50002   0.25000   0.00000  Uiso   1.00
O522   O     0.79375   0.56011   0.25001   0.00000  Uiso   1.00
O523   O     0.87294   0.56012   0.25001   0.00000  Uiso   1.00
O524   O     0.77441   0.49998   0.32549   0.00000  Uiso   1.00
O525   O     0.85360   0.49999   0.32549   0.00000  Uiso   1.00
O526   O     0.79373   0.43988   0.25000   0.00000  Uiso   1.00
O527   O     0.87292   0.43989   0.25000   0.00000  Uiso   1.00
O528   O     0.81306   0.50001   0.17451   0.00000  Uiso   1.00
O529   O     0.89225   0.50002   0.17451   0.00000  Uiso   1.00
N530   N     0.70406   0.57092   0.28250   0.00000  Uiso   1.00
H531   H     0.69382   0.59818   0.26976   0.00000  Uiso   1.00
C532   C     0.69592   0.57086   0.33819   0.00000  Uiso   1.00
H533   H     0.67178   0.59672   0.35688   0.00000  Uiso   1.00
H534   H     0.73061   0.57474   0.34723   0.00000  Uiso   1.00
H535   H     0.67930   0.54168   0.35544   0.00000  Uiso   1.00
N536   N     0.71264   0.42459   0.24288   0.00000  Uiso   1.00
H537   H     0.69096   0.40590   0.27069   0.00000  Uiso   1.00
C538   C     0.72952   0.40326   0.19336   0.00000  Uiso   1.00
H539   H     0.69961   0.39831   0.17588   0.00000  Uiso   1.00
H540   H     0.74386   0.37260   0.19877   0.00000  Uiso   1.00
H541   H     0.75935   0.42086   0.16713   0.00000  Uiso   1.00
N542   N     0.94071   0.47264   0.39771   0.00000  Uiso   1.00
H543   H     0.95561   0.48591   0.36225   0.00000  Uiso   1.00
C544   C     0.92544   0.43068   0.39151   0.00000  Uiso   1.00
H545   H     0.95447   0.41357   0.36276   0.00000  Uiso   1.00
H546   H     0.89317   0.43054   0.37718   0.00000  Uiso   1.00
H547   H     0.91701   0.41444   0.42894   0.00000  Uiso   1.00
N548   N     0.70953   0.48697   0.40970   0.00000  Uiso   1.00
H549   H     0.67530   0.49810   0.42526   0.00000  Uiso   1.00
C550   C     0.71208   0.44261   0.40125   0.00000  Uiso   1.00
H551   H     0.69513   0.43406   0.37066   0.00000  Uiso   1.00
H552   H     0.69350   0.42658   0.43760   0.00000  Uiso   1.00
H553   H     0.74999   0.43184   0.38758   0.00000  Uiso   1.00
N554   N     0.74007   0.50414   0.07170   0.00000  Uiso   1.00
H555   H     0.70914   0.52080   0.08788   0.00000  Uiso   1.00
C556   C     0.73252   0.46134   0.08553   0.00000  Uiso   1.00
H557   H     0.71433   0.45988   0.12756   0.00000  Uiso   1.00
H558   H     0.76748   0.44487   0.07620   0.00000  Uiso   1.00
H559   H     0.70876   0.44605   0.06489   0.00000  Uiso   1.00
N560   N     0.89334   0.55003   0.37357   0.00000  Uiso   1.00
H561   H     0.93005   0.55352   0.36439   0.00000  Uiso   1.00
C562   C     0.86873   0.58925   0.37838   0.00000  Uiso   1.00
H563   H     0.88765   0.60915   0.34566   0.00000  Uiso   1.00
H564   H     0.83125   0.58497   0.37675   0.00000  Uiso   1.00
H565   H     0.86858   0.60510   0.41535   0.00000  Uiso   1.00
C566   C     0.92371   0.62685   0.19336   0.00000  Uiso   1.00
C567   C     0.92595   0.60108   0.15017   0.00000  Uiso   1.00
C568   C     0.97047   0.58729   0.11840   0.00000  Uiso   1.00
C569   C     0.67959   0.59943   0.12927   0.00000  Uiso   1.00
C570   C     0.67761   0.62441   0.17257   0.00000  Uiso   1.00
C571   C     0.96660   0.63812   0.20451   0.00000  Uiso   1.00
H572   H     0.89347   0.59273   0.14026   0.00000  Uiso   1.00
H573   H     0.97208   0.56793   0.08474   0.00000  Uiso   1.00
H574   H     0.71419   0.59000   0.10389   0.00000  Uiso   1.00
H575   H     0.71052   0.63366   0.18094   0.00000  Uiso   1.00
H576   H     0.96572   0.65824   0.23736   0.00000  Uiso   1.00
C577   C     0.16730   0.91251   0.24884   0.00000  Uiso   1.00
C578   C     0.14265   0.84563   0.49193   0.00000  Uiso   1.00
C579   C     0.15771   0.84936   0.43706   0.00000  Uiso   1.00
C580   C     0.17935   0.83987   0.01680   0.00000  Uiso   1.00
C581   C     0.22511   0.82555   0.48636   0.00000  Uiso   1.00
C582   C     0.23763   0.83021   0.43244   0.00000  Uiso   1.00
C583   C     0.20728   0.85396   0.41306   0.00000  Uiso   1.00
C584   C     0.17203   0.84579   0.06994   0.00000  Uiso   1.00
C585   C     0.24802   0.81284   0.06433   0.00000  Uiso   1.00
C586   C     0.12479   0.84155   0.40783   0.00000  Uiso   1.00
C587   C     0.21103   0.97961   0.22312   0.00000  Uiso   1.00
C588   C     0.14078   0.83578   0.35006   0.00000  Uiso   1.00
C589   C     0.20953   0.68920   0.22487   0.00000  Uiso   1.00
C590   C     0.16693   0.70989   0.24973   0.00000  Uiso   1.00
C591   C     0.12538   0.68810   0.27413   0.00000  Uiso   1.00
C592   C     0.12624   0.97885   0.27296   0.00000  Uiso   1.00
C593   C     0.16848   0.95741   0.24747   0.00000  Uiso   1.00
C594   C     0.30615   0.86854   0.25938   0.00000  Uiso   1.00
C595   C     0.02117   0.86850   0.26159   0.00000  Uiso   1.00
C596   C     0.02560   0.79740   0.24204   0.00000  Uiso   1.00
C597   C     0.31019   0.79804   0.24134   0.00000  Uiso   1.00
C598   C     0.16650   0.75434   0.25024   0.00000  Uiso   1.00
C599   C     0.19230   0.83312   0.15043   0.00000  Uiso   1.00
C600   C     0.25776   0.80975   0.01067   0.00000  Uiso   1.00
C601   C     0.20552   0.83167   0.09393   0.00000  Uiso   1.00
C602   C     0.07582   0.83606   0.43505   0.00000  Uiso   1.00
C603   C     0.05994   0.84145   0.48851   0.00000  Uiso   1.00
C604   C     0.09238   0.84359   0.01765   0.00000  Uiso   1.00
Cu605  Cu    0.11978   0.83333   0.25000   0.00000  Uiso   1.00
Cu606  Cu    0.21355   0.83334   0.25000   0.00000  Uiso   1.00
H607   H     0.27354   0.80062   0.08260   0.00000  Uiso   1.00
H608   H     0.24147   0.70661   0.20536   0.00000  Uiso   1.00
H609   H     0.09252   0.70396   0.29477   0.00000  Uiso   1.00
H610   H     0.09396   0.96292   0.29322   0.00000  Uiso   1.00
H611   H     0.28564   0.89675   0.26843   0.00000  Uiso   1.00
H612   H     0.29318   0.76935   0.23543   0.00000  Uiso   1.00
H613   H     0.29107   0.79574   0.48853   0.00000  Uiso   1.00
H614   H     0.14100   0.86248   0.09314   0.00000  Uiso   1.00
H615   H     0.02199   0.83791   0.00838   0.00000  Uiso   1.00
N616   N     0.04931   0.83332   0.24999   0.00000  Uiso   1.00
N617   N     0.28402   0.83335   0.25000   0.00000  Uiso   1.00
O618   O     0.12708   0.89345   0.25001   0.00000  Uiso   1.00
O619   O     0.20627   0.89346   0.25001   0.00000  Uiso   1.00
O620   O     0.10775   0.83332   0.32549   0.00000  Uiso   1.00
O621   O     0.18694   0.83333   0.32549   0.00000  Uiso   1.00
O622   O     0.12706   0.77321   0.25000   0.00000  Uiso   1.00
O623   O     0.20625   0.77322   0.25000   0.00000  Uiso   1.00
O624   O     0.14640   0.83334   0.17451   0.00000  Uiso   1.00
O625   O     0.22559   0.83335   0.17451   0.00000  Uiso   1.00
N626   N     0.03740   0.90425   0.28250   0.00000  Uiso   1.00
H627   H     0.02716   0.93151   0.26976   0.00000  Uiso   1.00
C628   C     0.02925   0.90420   0.33819   0.00000  Uiso   1.00
H629   H     0.00511   0.93005   0.35688   0.00000  Uiso   1.00
H630   H     0.06395   0.90807   0.34723   0.00000  Uiso   1.00
H631   H     0.01263   0.87501   0.35544   0.00000  Uiso   1.00
N632   N     0.04597   0.75792   0.24288   0.00000  Uiso   1.00
H633   H     0.02430   0.73923   0.27069   0.00000  Uiso   1.00
C634   C     0.06286   0.73659   0.19336   0.00000  Uiso   1.00
H635   H     0.03294   0.73164   0.17588   0.00000  Uiso   1.00
H636   H     0.07720   0.70593   0.19877   0.00000  Uiso   1.00
H637   H     0.09268   0.75420   0.16713   0.00000  Uiso   1.00
N638   N     0.27405   0.80597   0.39771   0.00000  Uiso   1.00
H639   H     0.28894   0.81925   0.36225   0.00000  Uiso   1.00
C640   C     0.25877   0.76401   0.39151   0.00000  Uiso   1.00
H641   H     0.28780   0.74691   0.36276   0.00000  Uiso   1.00
H642   H     0.22650   0.76387   0.37718   0.00000  Uiso   1.00
H643   H     0.25034   0.74777   0.42894   0.00000  Uiso   1.00
N644   N     0.04287   0.82031   0.40970   0.00000  Uiso   1.00
H645   H     0.00863   0.83144   0.42526   0.00000  Uiso   1.00
C646   C     0.04541   0.77595   0.40125   0.00000  Uiso   1.00
H647   H     0.02846   0.76739   0.37066   0.00000  Uiso   1.00
H648   H     0.02684   0.75992   0.43760   0.00000  Uiso   1.00
H649   H     0.08333   0.76518   0.38758   0.00000  Uiso   1.00
N650   N     0.07340   0.83747   0.07170   0.00000  Uiso   1.00
H651   H     0.04247   0.85413   0.08788   0.00000  Uiso   1.00
C652   C     0.06586   0.79467   0.08553   0.00000  Uiso   1.00
H653   H     0.04766   0.79321   0.12756   0.00000  Uiso   1.00
H654   H     0.10081   0.77820   0.07620   0.00000  Uiso   1.00
H655   H     0.04210   0.77938   0.06489   0.00000  Uiso   1.00
N656   N     0.22667   0.88336   0.37357   0.00000  Uiso   1.00
H657   H     0.26338   0.88685   0.36439   0.00000  Uiso   1.00
C658   C     0.20206   0.92259   0.37838   0.00000  Uiso   1.00
H659   H     0.22098   0.94248   0.34566   0.00000  Uiso   1.00
H660   H     0.16458   0.91830   0.37675   0.00000  Uiso   1.00
H661   H     0.20191   0.93843   0.41535   0.00000  Uiso   1.00
C662   C     0.25705   0.96018   0.19336   0.00000  Uiso   1.00
C663   C     0.25928   0.93441   0.15017   0.00000  Uiso   1.00
C664   C     0.30380   0.92062   0.11840   0.00000  Uiso   1.00
C665   C     0.01292   0.93276   0.12927   0.00000  Uiso   1.00
C666   C     0.01094   0.95774   0.17257   0.00000  Uiso   1.00
C667   C     0.29993   0.97146   0.20451   0.00000  Uiso   1.00
H668   H     0.22680   0.92607   0.14026   0.00000  Uiso   1.00
H669   H     0.30541   0.90126   0.08474   0.00000  Uiso   1.00
H670   H     0.04752   0.92334   0.10389   0.00000  Uiso   1.00
H671   H     0.04385   0.96700   0.18094   0.00000  Uiso   1.00
H672   H     0.29905   0.99158   0.23736   0.00000  Uiso   1.00
C673   C     0.50063   0.91251   0.24884   0.00000  Uiso   1.00
C674   C     0.47598   0.84563   0.49193   0.00000  Uiso   1.00
C675   C     0.49104   0.84936   0.43706   0.00000  Uiso   1.00
C676   C     0.51268   0.83987   0.01680   0.00000  Uiso   1.00
C677   C     0.55844   0.82555   0.48636   0.00000  Uiso   1.00
C678   C     0.57096   0.83021   0.43244   0.00000  Uiso   1.00
C679   C     0.54061   0.85396   0.41306   0.00000  Uiso   1.00
C680   C     0.50536   0.84579   0.06994   0.00000  Uiso   1.00
C681   C     0.58135   0.81284   0.06433   0.00000  Uiso   1.00
C682   C     0.45812   0.84155   0.40783   0.00000  Uiso   1.00
C683   C     0.54436   0.97961   0.22312   0.00000  Uiso   1.00
C684   C     0.47411   0.83578   0.35006   0.00000  Uiso   1.00
C685   C     0.54286   0.68920   0.22487   0.00000  Uiso   1.00
C686   C     0.50026   0.70989   0.24973   0.00000  Uiso   1.00
C687   C     0.45871   0.68810   0.27413   0.00000  Uiso   1.00
C688   C     0.45957   0.97885   0.27296   0.00000  Uiso   1.00
C689   C     0.50181   0.95741   0.24747   0.00000  Uiso   1.00
C690   C     0.63949   0.86854   0.25938   0.00000  Uiso   1.00
C691   C     0.35451   0.86850   0.26159   0.00000  Uiso   1.00
C692   C     0.35893   0.79740   0.24204   0.00000  Uiso   1.00
C693   C     0.64353   0.79804   0.24134   0.00000  Uiso   1.00
C694   C     0.49984   0.75434   0.25024   0.00000  Uiso   1.00
C695   C     0.52563   0.83312   0.15043   0.00000  Uiso   1.00
C696   C     0.59109   0.80975   0.01067   0.00000  Uiso   1.00
C697   C     0.53886   0.83167   0.09393   0.00000  Uiso   1.00
C698   C     0.40916   0.83606   0.43505   0.00000  Uiso   1.00
C699   C     0.39327   0.84145   0.48851   0.00000  Uiso   1.00
C700   C     0.42571   0.84359   0.01765   0.00000  Uiso   1.00
Cu701  Cu    0.45311   0.83333   0.25000   0.00000  Uiso   1.00
Cu702  Cu    0.54689   0.83334   0.25000   0.00000  Uiso   1.00
H703   H     0.60687   0.80062   0.08260   0.00000  Uiso   1.00
H704   H     0.57481   0.70661   0.20536   0.00000  Uiso   1.00
H705   H     0.42586   0.70396   0.29477   0.00000  Uiso   1.00
H706   H     0.42729   0.96292   0.29322   0.00000  Uiso   1.00
H707   H     0.61897   0.89675   0.26843   0.00000  Uiso   1.00
H708   H     0.62651   0.76935   0.23543   0.00000  Uiso   1.00
H709   H     0.62441   0.79574   0.48853   0.00000  Uiso   1.00
H710   H     0.47433   0.86248   0.09314   0.00000  Uiso   1.00
H711   H     0.35532   0.83791   0.00838   0.00000  Uiso   1.00
N712   N     0.38265   0.83332   0.24999   0.00000  Uiso   1.00
N713   N     0.61735   0.83335   0.25000   0.00000  Uiso   1.00
O714   O     0.46042   0.89345   0.25001   0.00000  Uiso   1.00
O715   O     0.53961   0.89346   0.25001   0.00000  Uiso   1.00
O716   O     0.44108   0.83332   0.32549   0.00000  Uiso   1.00
O717   O     0.52027   0.83333   0.32549   0.00000  Uiso   1.00
O718   O     0.46039   0.77321   0.25000   0.00000  Uiso   1.00
O719   O     0.53958   0.77322   0.25000   0.00000  Uiso   1.00
O720   O     0.47973   0.83334   0.17451   0.00000  Uiso   1.00
O721   O     0.55892   0.83335   0.17451   0.00000  Uiso   1.00
N722   N     0.37073   0.90425   0.28250   0.00000  Uiso   1.00
H723   H     0.36049   0.93151   0.26976   0.00000  Uiso   1.00
C724   C     0.36258   0.90420   0.33819   0.00000  Uiso   1.00
H725   H     0.33844   0.93005   0.35688   0.00000  Uiso   1.00
H726   H     0.39728   0.90807   0.34723   0.00000  Uiso   1.00
H727   H     0.34597   0.87501   0.35544   0.00000  Uiso   1.00
N728   N     0.37930   0.75792   0.24288   0.00000  Uiso   1.00
H729   H     0.35763   0.73923   0.27069   0.00000  Uiso   1.00
C730   C     0.39619   0.73659   0.19336   0.00000  Uiso   1.00
H731   H     0.36627   0.73164   0.17588   0.00000  Uiso   1.00
H732   H     0.41053   0.70593   0.19877   0.00000  Uiso   1.00
H733   H     0.42602   0.75420   0.16713   0.00000  Uiso   1.00
N734   N     0.60738   0.80597   0.39771   0.00000  Uiso   1.00
H735   H     0.62227   0.81925   0.36225   0.00000  Uiso   1.00
C736   C     0.59210   0.76401   0.39151   0.00000  Uiso   1.00
H737   H     0.62114   0.74691   0.36276   0.00000  Uiso   1.00
H738   H     0.55984   0.76387   0.37718   0.00000  Uiso   1.00
H739   H     0.58367   0.74777   0.42894   0.00000  Uiso   1.00
N740   N     0.37620   0.82031   0.40970   0.00000  Uiso   1.00
H741   H     0.34197   0.83144   0.42526   0.00000  Uiso   1.00
C742   C     0.37874   0.77595   0.40125   0.00000  Uiso   1.00
H743   H     0.36180   0.76739   0.37066   0.00000  Uiso   1.00
H744   H     0.36017   0.75992   0.43760   0.00000  Uiso   1.00
H745   H     0.41666   0.76518   0.38758   0.00000  Uiso   1.00
N746   N     0.40673   0.83747   0.07170   0.00000  Uiso   1.00
H747   H     0.37580   0.85413   0.08788   0.00000  Uiso   1.00
C748   C     0.39919   0.79467   0.08553   0.00000  Uiso   1.00
H749   H     0.38100   0.79321   0.12756   0.00000  Uiso   1.00
H750   H     0.43414   0.77820   0.07620   0.00000  Uiso   1.00
H751   H     0.37543   0.77938   0.06489   0.00000  Uiso   1.00
N752   N     0.56001   0.88336   0.37357   0.00000  Uiso   1.00
H753   H     0.59672   0.88685   0.36439   0.00000  Uiso   1.00
C754   C     0.53539   0.92259   0.37838   0.00000  Uiso   1.00
H755   H     0.55432   0.94248   0.34566   0.00000  Uiso   1.00
H756   H     0.49792   0.91830   0.37675   0.00000  Uiso   1.00
H757   H     0.53524   0.93843   0.41535   0.00000  Uiso   1.00
C758   C     0.59038   0.96018   0.19336   0.00000  Uiso   1.00
C759   C     0.59262   0.93441   0.15017   0.00000  Uiso   1.00
C760   C     0.63713   0.92062   0.11840   0.00000  Uiso   1.00
C761   C     0.34626   0.93276   0.12927   0.00000  Uiso   1.00
C762   C     0.34428   0.95774   0.17257   0.00000  Uiso   1.00
C763   C     0.63326   0.97146   0.20451   0.00000  Uiso   1.00
H764   H     0.56014   0.92607   0.14026   0.00000  Uiso   1.00
H765   H     0.63875   0.90126   0.08474   0.00000  Uiso   1.00
H766   H     0.38085   0.92334   0.10389   0.00000  Uiso   1.00
H767   H     0.37718   0.96700   0.18094   0.00000  Uiso   1.00
H768   H     0.63238   0.99158   0.23736   0.00000  Uiso   1.00
C769   C     0.83397   0.91251   0.24884   0.00000  Uiso   1.00
C770   C     0.80932   0.84563   0.49193   0.00000  Uiso   1.00
C771   C     0.82437   0.84936   0.43706   0.00000  Uiso   1.00
C772   C     0.84601   0.83987   0.01680   0.00000  Uiso   1.00
C773   C     0.89177   0.82555   0.48636   0.00000  Uiso   1.00
C774   C     0.90429   0.83021   0.43244   0.00000  Uiso   1.00
C775   C     0.87394   0.85396   0.41306   0.00000  Uiso   1.00
C776   C     0.83870   0.84579   0.06994   0.00000  Uiso   1.00
C777   C     0.91468   0.81284   0.06433   0.00000  Uiso   1.00
C778   C     0.79145   0.84155   0.40783   0.00000  Uiso   1.00
C779   C     0.87770   0.97961   0.22312   0.00000  Uiso   1.00
C780   C     0.80744   0.83578   0.35006   0.00000  Uiso   1.00
C781   C     0.87619   0.68920   0.22487   0.00000  Uiso   1.00
C782   C     0.83359   0.70989   0.24973   0.00000  Uiso   1.00
C783   C     0.79204   0.68810   0.27413   0.00000  Uiso   1.00
C784   C     0.79291   0.97885   0.27296   0.00000  Uiso   1.00
C785   C     0.83515   0.95741   0.24747   0.00000  Uiso   1.00
C786   C     0.97282   0.86854   0.25938   0.00000  Uiso   1.00
C787   C     0.68784   0.86850   0.26159   0.00000  Uiso   1.00
C788   C     0.69227   0.79740   0.24204   0.00000  Uiso   1.00
C789   C     0.97686   0.79804   0.24134   0.00000  Uiso   1.00
C790   C     0.83317   0.75434   0.25024   0.00000  Uiso   1.00
C791   C     0.85897   0.83312   0.15043   0.00000  Uiso   1.00
C792   C     0.92443   0.80975   0.01067   0.00000  Uiso   1.00
C793   C     0.87219   0.83167   0.09393   0.00000  Uiso   1.00
C794   C     0.74249   0.83606   0.43505   0.00000  Uiso   1.00
C795   C     0.72660   0.84145   0.48851   0.00000  Uiso   1.00
C796   C     0.75904   0.84359   0.01765   0.00000  Uiso   1.00
Cu797  Cu    0.78645   0.83333   0.25000   0.00000  Uiso   1.00
Cu798  Cu    0.88022   0.83334   0.25000   0.00000  Uiso   1.00
H799   H     0.94021   0.80062   0.08260   0.00000  Uiso   1.00
H800   H     0.90814   0.70661   0.20536   0.00000  Uiso   1.00
H801   H     0.75919   0.70396   0.29477   0.00000  Uiso   1.00
H802   H     0.76063   0.96292   0.29322   0.00000  Uiso   1.00
H803   H     0.95230   0.89675   0.26843   0.00000  Uiso   1.00
H804   H     0.95985   0.76935   0.23543   0.00000  Uiso   1.00
H805   H     0.95774   0.79574   0.48853   0.00000  Uiso   1.00
H806   H     0.80766   0.86248   0.09314   0.00000  Uiso   1.00
H807   H     0.68866   0.83791   0.00838   0.00000  Uiso   1.00
N808   N     0.71598   0.83332   0.24999   0.00000  Uiso   1.00
N809   N     0.95069   0.83335   0.25000   0.00000  Uiso   1.00
O810   O     0.79375   0.89345   0.25001   0.00000  Uiso   1.00
O811   O     0.87294   0.89346   0.25001   0.00000  Uiso   1.00
O812   O     0.77441   0.83332   0.32549   0.00000  Uiso   1.00
O813   O     0.85360   0.83333   0.32549   0.00000  Uiso   1.00
O814   O     0.79373   0.77321   0.25000   0.00000  Uiso   1.00
O815   O     0.87292   0.77322   0.25000   0.00000  Uiso   1.00
O816   O     0.81306   0.83334   0.17451   0.00000  Uiso   1.00
O817   O     0.89225   0.83335   0.17451   0.00000  Uiso   1.00
N818   N     0.70406   0.90425   0.28250   0.00000  Uiso   1.00
H819   H     0.69382   0.93151   0.26976   0.00000  Uiso   1.00
C820   C     0.69592   0.90420   0.33819   0.00000  Uiso   1.00
H821   H     0.67178   0.93005   0.35688   0.00000  Uiso   1.00
H822   H     0.73061   0.90807   0.34723   0.00000  Uiso   1.00
H823   H     0.67930   0.87501   0.35544   0.00000  Uiso   1.00
N824   N     0.71264   0.75792   0.24288   0.00000  Uiso   1.00
H825   H     0.69096   0.73923   0.27069   0.00000  Uiso   1.00
C826   C     0.72952   0.73659   0.19336   0.00000  Uiso   1.00
H827   H     0.69961   0.73164   0.17588   0.00000  Uiso   1.00
H828   H     0.74386   0.70593   0.19877   0.00000  Uiso   1.00
H829   H     0.75935   0.75420   0.16713   0.00000  Uiso   1.00
N830   N     0.94071   0.80597   0.39771   0.00000  Uiso   1.00
H831   H     0.95561   0.81925   0.36225   0.00000  Uiso   1.00
C832   C     0.92544   0.76401   0.39151   0.00000  Uiso   1.00
H833   H     0.95447   0.74691   0.36276   0.00000  Uiso   1.00
H834   H     0.89317   0.76387   0.37718   0.00000  Uiso   1.00
H835   H     0.91701   0.74777   0.42894   0.00000  Uiso   1.00
N836   N     0.70953   0.82031   0.40970   0.00000  Uiso   1.00
H837   H     0.67530   0.83144   0.42526   0.00000  Uiso   1.00
C838   C     0.71208   0.77595   0.40125   0.00000  Uiso   1.00
H839   H     0.69513   0.76739   0.37066   0.00000  Uiso   1.00
H840   H     0.69350   0.75992   0.43760   0.00000  Uiso   1.00
H841   H     0.74999   0.76518   0.38758   0.00000  Uiso   1.00
N842   N     0.74007   0.83747   0.07170   0.00000  Uiso   1.00
H843   H     0.70914   0.85413   0.08788   0.00000  Uiso   1.00
C844   C     0.73252   0.79467   0.08553   0.00000  Uiso   1.00
H845   H     0.71433   0.79321   0.12756   0.00000  Uiso   1.00
H846   H     0.76748   0.77820   0.07620   0.00000  Uiso   1.00
H847   H     0.70876   0.77938   0.06489   0.00000  Uiso   1.00
N848   N     0.89334   0.88336   0.37357   0.00000  Uiso   1.00
H849   H     0.93005   0.88685   0.36439   0.00000  Uiso   1.00
C850   C     0.86873   0.92259   0.37838   0.00000  Uiso   1.00
H851   H     0.88765   0.94248   0.34566   0.00000  Uiso   1.00
H852   H     0.83125   0.91830   0.37675   0.00000  Uiso   1.00
H853   H     0.86858   0.93843   0.41535   0.00000  Uiso   1.00
C854   C     0.92371   0.96018   0.19336   0.00000  Uiso   1.00
C855   C     0.92595   0.93441   0.15017   0.00000  Uiso   1.00
C856   C     0.97047   0.92062   0.11840   0.00000  Uiso   1.00
C857   C     0.67959   0.93276   0.12927   0.00000  Uiso   1.00
C858   C     0.67761   0.95774   0.17257   0.00000  Uiso   1.00
C859   C     0.96660   0.97146   0.20451   0.00000  Uiso   1.00
H860   H     0.89347   0.92607   0.14026   0.00000  Uiso   1.00
H861   H     0.97208   0.90126   0.08474   0.00000  Uiso   1.00
H862   H     0.71419   0.92334   0.10389   0.00000  Uiso   1.00
H863   H     0.71052   0.96700   0.18094   0.00000  Uiso   1.00
H864   H     0.96572   0.99158   0.23736   0.00000  Uiso   1.00
C865   C     0.16730   0.24584   0.74884   0.00000  Uiso   1.00
C866   C     0.14265   0.17897   0.99193   0.00000  Uiso   1.00
C867   C     0.15771   0.18270   0.93706   0.00000  Uiso   1.00
C868   C     0.17935   0.17320   0.51680   0.00000  Uiso   1.00
C869   C     0.22511   0.15889   0.98636   0.00000  Uiso   1.00
C870   C     0.23763   0.16354   0.93244   0.00000  Uiso   1.00
C871   C     0.20728   0.18730   0.91306   0.00000  Uiso   1.00
C872   C     0.17203   0.17913   0.56994   0.00000  Uiso   1.00
C873   C     0.24802   0.14618   0.56433   0.00000  Uiso   1.00
C874   C     0.12479   0.17488   0.90783   0.00000  Uiso   1.00
C875   C     0.21103   0.31294   0.72312   0.00000  Uiso   1.00
C876   C     0.14078   0.16912   0.85006   0.00000  Uiso   1.00
C877   C     0.20953   0.02253   0.72487   0.00000  Uiso   1.00
C878   C     0.16693   0.04323   0.74973   0.00000  Uiso   1.00
C879   C     0.12538   0.02143   0.77413   0.00000  Uiso   1.00
C880   C     0.12624   0.31219   0.77296   0.00000  Uiso   1.00
C881   C     0.16848   0.29074   0.74747   0.00000  Uiso   1.00
C882   C     0.30615   0.20187   0.75938   0.00000  Uiso   1.00
C883   C     0.02117   0.20183   0.76159   0.00000  Uiso   1.00
C884   C     0.02560   0.13073   0.74204   0.00000  Uiso   1.00
C885   C     0.31019   0.13137   0.74134   0.00000  Uiso   1.00
C886   C     0.16650   0.08768   0.75024   0.00000  Uiso   1.00
C887   C     0.19230   0.16645   0.65043   0.00000  Uiso   1.00
C888   C     0.25776   0.14308   0.51067   0.00000  Uiso   1.00
C889   C     0.20552   0.16500   0.59393   0.00000  Uiso   1.00
C890   C     0.07582   0.16939   0.93505   0.00000  Uiso   1.00
C891   C     0.05994   0.17478   0.98851   0.00000  Uiso   1.00
C892   C     0.09238   0.17692   0.51765   0.00000  Uiso   1.00
Cu893  Cu    0.11978   0.16666   0.75000   0.00000  Uiso   1.00
Cu894  Cu    0.21355   0.16667   0.75000   0.00000  Uiso   1.00
H895   H     0.27354   0.13396   0.58260   0.00000  Uiso   1.00
H896   H     0.24147   0.03994   0.70536   0.00000  Uiso   1.00
H897   H     0.09252   0.03730   0.79477   0.00000  Uiso   1.00
H898   H     0.09396   0.29625   0.79322   0.00000  Uiso   1.00
H899   H     0.28564   0.23009   0.76843   0.00000  Uiso   1.00
H900   H     0.29318   0.10268   0.73543   0.00000  Uiso   1.00
H901   H     0.29107   0.12907   0.98853   0.00000  Uiso   1.00
H902   H     0.14100   0.19581   0.59314   0.00000  Uiso   1.00
H903   H     0.02199   0.17125   0.50838   0.00000  Uiso   1.00
N904   N     0.04931   0.16666   0.74999   0.00000  Uiso   1.00
N905   N     0.28402   0.16669   0.75000   0.00000  Uiso   1.00
O906   O     0.12708   0.22678   0.75001   0.00000  Uiso   1.00
O907   O     0.20627   0.22679   0.75001   0.00000  Uiso   1.00
O908   O     0.10775   0.16665   0.82549   0.00000  Uiso   1.00
O909   O     0.18694   0.16666   0.82549   0.00000  Uiso   1.00
O910   O     0.12706   0.10654   0.75000   0.00000  Uiso   1.00
O911   O     0.20625   0.10655   0.75000   0.00000  Uiso   1.00
O912   O     0.14640   0.16667   0.67451   0.00000  Uiso   1.00
O913   O     0.22559   0.16668   0.67451   0.00000  Uiso   1.00
N914   N     0.03740   0.23759   0.78250   0.00000  Uiso   1.00
H915   H     0.02716   0.26485   0.76976   0.00000  Uiso   1.00
C916   C     0.02925   0.23753   0.83819   0.00000  Uiso   1.00
H917   H     0.00511   0.26338   0.85688   0.00000  Uiso   1.00
H918   H     0.06395   0.24141   0.84723   0.00000  Uiso   1.00
H919   H     0.01263   0.20834   0.85544   0.00000  Uiso   1.00
N920   N     0.04597   0.09125   0.74288   0.00000  Uiso   1.00
H921   H     0.02430   0.07257   0.77069   0.00000  Uiso   1.00
C922   C     0.06286   0.06993   0.69336   0.00000  Uiso   1.00
H923   H     0.03294   0.06497   0.67588   0.00000  Uiso   1.00
H924   H     0.07720   0.03927   0.69877   0.00000  Uiso   1.00
H925   H     0.09268   0.08753   0.66713   0.00000  Uiso   1.00
N926   N     0.27405   0.13930   0.89771   0.00000  Uiso   1.00
H927   H     0.28894   0.15258   0.86225   0.00000  Uiso   1.00
C928   C     0.25877   0.09735   0.89151   0.00000  Uiso   1.00
H929   H     0.28780   0.08024   0.86276   0.00000  Uiso   1.00
H930   H     0.22650   0.09721   0.87718   0.00000  Uiso   1.00
H931   H     0.25034   0.08110   0.92894   0.00000  Uiso   1.00
N932   N     0.04287   0.15364   0.90970   0.00000  Uiso   1.00
H933   H     0.00863   0.16477   0.92526   0.00000  Uiso   1.00
C934   C     0.04541   0.10928   0.90125   0.00000  Uiso   1.00
H935   H     0.02846   0.10072   0.87066   0.00000  Uiso   1.00
H936   H     0.02684   0.09325   0.93760   0.00000  Uiso   1.00
H937   H     0.08333   0.09851   0.88758   0.00000  Uiso   1.00
N938   N     0.07340   0.17081   0.57170   0.00000  Uiso   1.00
H939   H     0.04247   0.18747   0.58788   0.00000  Uiso   1.00
C940   C     0.06586   0.12800   0.58553   0.00000  Uiso   1.00
H941   H     0.04766   0.12655   0.62756   0.00000  Uiso   1.00
H942   H     0.10081   0.11153   0.57620   0.00000  Uiso   1.00
H943   H     0.04210   0.11271   0.56489   0.00000  Uiso   1.00
N944   N     0.22667   0.21670   0.87357   0.00000  Uiso   1.00
H945   H     0.26338   0.22018   0.86439   0.00000  Uiso   1.00
C946   C     0.20206   0.25592   0.87838   0.00000  Uiso   1.00
H947   H     0.22098   0.27582   0.84566   0.00000  Uiso   1.00
H948   H     0.16458   0.25163   0.87675   0.00000  Uiso   1.00
H949   H     0.20191   0.27176   0.91535   0.00000  Uiso   1.00
C950   C     0.25705   0.29351   0.69336   0.00000  Uiso   1.00
C951   C     0.25928   0.26775   0.65017   0.00000  Uiso   1.00
C952   C     0.30380   0.25396   0.61840   0.00000  Uiso   1.00
C953   C     0.01292   0.26609   0.62927   0.00000  Uiso   1.00
C954   C     0.01094   0.29107   0.67257   0.00000  Uiso   1.00
C955   C     0.29993   0.30479   0.70451   0.00000  Uiso   1.00
H956   H     0.22680   0.25940   0.64026   0.00000  Uiso   1.00
H957   H     0.30541   0.23459   0.58474   0.00000  Uiso   1.00
H958   H     0.04752   0.25667   0.60389   0.00000  Uiso   1.00
H959   H     0.04385   0.30033   0.68094   0.00000  Uiso   1.00
H960   H     0.29905   0.32491   0.73736   0.00000  Uiso   1.00
C961   C     0.50063   0.24584   0.74884   0.00000  Uiso   1.00
C962   C     0.47598   0.17897   0.99193   0.00000  Uiso   1.00
C963   C     0.49104   0.18270   0.93706   0.00000  Uiso   1.00
C964   C     0.51268   0.17320   0.51680   0.00000  Uiso   1.00
C965   C     0.55844   0.15889   0.98636   0.00000  Uiso   1.00
C966   C     0.57096   0.16354   0.93244   0.00000  Uiso   1.00
C967   C     0.54061   0.18730   0.91306   0.00000  Uiso   1.00
C968   C     0.50536   0.17913   0.56994   0.00000  Uiso   1.00
C969   C     0.58135   0.14618   0.56433   0.00000  Uiso   1.00
C970   C     0.45812   0.17488   0.90783   0.00000  Uiso   1.00
C971   C     0.54436   0.31294   0.72312   0.00000  Uiso   1.00
C972   C     0.47411   0.16912   0.85006   0.00000  Uiso   1.00
C973   C     0.54286   0.02253   0.72487   0.00000  Uiso   1.00
C974   C     0.50026   0.04323   0.74973   0.00000  Uiso   1.00
C975   C     0.45871   0.02143   0.77413   0.00000  Uiso   1.00
C976   C     0.45957   0.31219   0.77296   0.00000  Uiso   1.00
C977   C     0.50181   0.29074   0.74747   0.00000  Uiso   1.00
C978   C     0.63949   0.20187   0.75938   0.00000  Uiso   1.00
C979   C     0.35451   0.20183   0.76159   0.00000  Uiso   1.00
C980   C     0.35893   0.13073   0.74204   0.00000  Uiso   1.00
C981   C     0.64353   0.13137   0.74134   0.00000  Uiso   1.00
C982   C     0.49984   0.08768   0.75024   0.00000  Uiso   1.00
C983   C     0.52563   0.16645   0.65043   0.00000  Uiso   1.00
C984   C     0.59109   0.14308   0.51067   0.00000  Uiso   1.00
C985   C     0.53886   0.16500   0.59393   0.00000  Uiso   1.00
C986   C     0.40916   0.16939   0.93505   0.00000  Uiso   1.00
C987   C     0.39327   0.17478   0.98851   0.00000  Uiso   1.00
C988   C     0.42571   0.17692   0.51765   0.00000  Uiso   1.00
Cu989  Cu    0.45311   0.16666   0.75000   0.00000  Uiso   1.00
Cu990  Cu    0.54689   0.16667   0.75000   0.00000  Uiso   1.00
H991   H     0.60687   0.13396   0.58260   0.00000  Uiso   1.00
H992   H     0.57481   0.03994   0.70536   0.00000  Uiso   1.00
H993   H     0.42586   0.03730   0.79477   0.00000  Uiso   1.00
H994   H     0.42729   0.29625   0.79322   0.00000  Uiso   1.00
H995   H     0.61897   0.23009   0.76843   0.00000  Uiso   1.00
H996   H     0.62651   0.10268   0.73543   0.00000  Uiso   1.00
H997   H     0.62441   0.12907   0.98853   0.00000  Uiso   1.00
H998   H     0.47433   0.19581   0.59314   0.00000  Uiso   1.00
H999   H     0.35532   0.17125   0.50838   0.00000  Uiso   1.00
N1000  N     0.38265   0.16666   0.74999   0.00000  Uiso   1.00
N1001  N     0.61735   0.16669   0.75000   0.00000  Uiso   1.00
O1002  O     0.46042   0.22678   0.75001   0.00000  Uiso   1.00
O1003  O     0.53961   0.22679   0.75001   0.00000  Uiso   1.00
O1004  O     0.44108   0.16665   0.82549   0.00000  Uiso   1.00
O1005  O     0.52027   0.16666   0.82549   0.00000  Uiso   1.00
O1006  O     0.46039   0.10654   0.75000   0.00000  Uiso   1.00
O1007  O     0.53958   0.10655   0.75000   0.00000  Uiso   1.00
O1008  O     0.47973   0.16667   0.67451   0.00000  Uiso   1.00
O1009  O     0.55892   0.16668   0.67451   0.00000  Uiso   1.00
N1010  N     0.37073   0.23759   0.78250   0.00000  Uiso   1.00
H1011  H     0.36049   0.26485   0.76976   0.00000  Uiso   1.00
C1012  C     0.36258   0.23753   0.83819   0.00000  Uiso   1.00
H1013  H     0.33844   0.26338   0.85688   0.00000  Uiso   1.00
H1014  H     0.39728   0.24141   0.84723   0.00000  Uiso   1.00
H1015  H     0.34597   0.20834   0.85544   0.00000  Uiso   1.00
N1016  N     0.37930   0.09125   0.74288   0.00000  Uiso   1.00
H1017  H     0.35763   0.07257   0.77069   0.00000  Uiso   1.00
C1018  C     0.39619   0.06993   0.69336   0.00000  Uiso   1.00
H1019  H     0.36627   0.06497   0.67588   0.00000  Uiso   1.00
H1020  H     0.41053   0.03927   0.69877   0.00000  Uiso   1.00
H1021  H     0.42602   0.08753   0.66713   0.00000  Uiso   1.00
N1022  N     0.60738   0.13930   0.89771   0.00000  Uiso   1.00
H1023  H     0.62227   0.15258   0.86225   0.00000  Uiso   1.00
C1024  C     0.59210   0.09735   0.89151   0.00000  Uiso   1.00
H1025  H     0.62114   0.08024   0.86276   0.00000  Uiso   1.00
H1026  H     0.55984   0.09721   0.87718   0.00000  Uiso   1.00
H1027  H     0.58367   0.08110   0.92894   0.00000  Uiso   1.00
N1028  N     0.37620   0.15364   0.90970   0.00000  Uiso   1.00
H1029  H     0.34197   0.16477   0.92526   0.00000  Uiso   1.00
C1030  C     0.37874   0.10928   0.90125   0.00000  Uiso   1.00
H1031  H     0.36180   0.10072   0.87066   0.00000  Uiso   1.00
H1032  H     0.36017   0.09325   0.93760   0.00000  Uiso   1.00
H1033  H     0.41666   0.09851   0.88758   0.00000  Uiso   1.00
N1034  N     0.40673   0.17081   0.57170   0.00000  Uiso   1.00
H1035  H     0.37580   0.18747   0.58788   0.00000  Uiso   1.00
C1036  C     0.39919   0.12800   0.58553   0.00000  Uiso   1.00
H1037  H     0.38100   0.12655   0.62756   0.00000  Uiso   1.00
H1038  H     0.43414   0.11153   0.57620   0.00000  Uiso   1.00
H1039  H     0.37543   0.11271   0.56489   0.00000  Uiso   1.00
N1040  N     0.56001   0.21670   0.87357   0.00000  Uiso   1.00
H1041  H     0.59672   0.22018   0.86439   0.00000  Uiso   1.00
C1042  C     0.53539   0.25592   0.87838   0.00000  Uiso   1.00
H1043  H     0.55432   0.27582   0.84566   0.00000  Uiso   1.00
H1044  H     0.49792   0.25163   0.87675   0.00000  Uiso   1.00
H1045  H     0.53524   0.27176   0.91535   0.00000  Uiso   1.00
C1046  C     0.59038   0.29351   0.69336   0.00000  Uiso   1.00
C1047  C     0.59262   0.26775   0.65017   0.00000  Uiso   1.00
C1048  C     0.63713   0.25396   0.61840   0.00000  Uiso   1.00
C1049  C     0.34626   0.26609   0.62927   0.00000  Uiso   1.00
C1050  C     0.34428   0.29107   0.67257   0.00000  Uiso   1.00
C1051  C     0.63326   0.30479   0.70451   0.00000  Uiso   1.00
H1052  H     0.56014   0.25940   0.64026   0.00000  Uiso   1.00
H1053  H     0.63875   0.23459   0.58474   0.00000  Uiso   1.00
H1054  H     0.38085   0.25667   0.60389   0.00000  Uiso   1.00
H1055  H     0.37718   0.30033   0.68094   0.00000  Uiso   1.00
H1056  H     0.63238   0.32491   0.73736   0.00000  Uiso   1.00
C1057  C     0.83397   0.24584   0.74884   0.00000  Uiso   1.00
C1058  C     0.80932   0.17897   0.99193   0.00000  Uiso   1.00
C1059  C     0.82437   0.18270   0.93706   0.00000  Uiso   1.00
C1060  C     0.84601   0.17320   0.51680   0.00000  Uiso   1.00
C1061  C     0.89177   0.15889   0.98636   0.00000  Uiso   1.00
C1062  C     0.90429   0.16354   0.93244   0.00000  Uiso   1.00
C1063  C     0.87394   0.18730   0.91306   0.00000  Uiso   1.00
C1064  C     0.83870   0.17913   0.56994   0.00000  Uiso   1.00
C1065  C     0.91468   0.14618   0.56433   0.00000  Uiso   1.00
C1066  C     0.79145   0.17488   0.90783   0.00000  Uiso   1.00
C1067  C     0.87770   0.31294   0.72312   0.00000  Uiso   1.00
C1068  C     0.80744   0.16912   0.85006   0.00000  Uiso   1.00
C1069  C     0.87619   0.02253   0.72487   0.00000  Uiso   1.00
C1070  C     0.83359   0.04323   0.74973   0.00000  Uiso   1.00
C1071  C     0.79204   0.02143   0.77413   0.00000  Uiso   1.00
C1072  C     0.79291   0.31219   0.77296   0.00000  Uiso   1.00
C1073  C     0.83515   0.29074   0.74747   0.00000  Uiso   1.00
C1074  C     0.97282   0.20187   0.75938   0.00000  Uiso   1.00
C1075  C     0.68784   0.20183   0.76159   0.00000  Uiso   1.00
C1076  C     0.69227   0.13073   0.74204   0.00000  Uiso   1.00
C1077  C     0.97686   0.13137   0.74134   0.00000  Uiso   1.00
C1078  C     0.83317   0.08768   0.75024   0.00000  Uiso   1.00
C1079  C     0.85897   0.16645   0.65043   0.00000  Uiso   1.00
C1080  C     0.92443   0.14308   0.51067   0.00000  Uiso   1.00
C1081  C     0.87219   0.16500   0.59393   0.00000  Uiso   1.00
C1082  C     0.74249   0.16939   0.93505   0.00000  Uiso   1.00
C1083  C     0.72660   0.17478   0.98851   0.00000  Uiso   1.00
C1084  C     0.75904   0.17692   0.51765   0.00000  Uiso   1.00
Cu1085 Cu    0.78645   0.16666   0.75000   0.00000  Uiso   1.00
Cu1086 Cu    0.88022   0.16667   0.75000   0.00000  Uiso   1.00
H1087  H     0.94021   0.13396   0.58260   0.00000  Uiso   1.00
H1088  H     0.90814   0.03994   0.70536   0.00000  Uiso   1.00
H1089  H     0.75919   0.03730   0.79477   0.00000  Uiso   1.00
H1090  H     0.76063   0.29625   0.79322   0.00000  Uiso   1.00
H1091  H     0.95230   0.23009   0.76843   0.00000  Uiso   1.00
H1092  H     0.95985   0.10268   0.73543   0.00000  Uiso   1.00
H1093  H     0.95774   0.12907   0.98853   0.00000  Uiso   1.00
H1094  H     0.80766   0.19581   0.59314   0.00000  Uiso   1.00
H1095  H     0.68866   0.17125   0.50838   0.00000  Uiso   1.00
N1096  N     0.71598   0.16666   0.74999   0.00000  Uiso   1.00
N1097  N     0.95069   0.16669   0.75000   0.00000  Uiso   1.00
O1098  O     0.79375   0.22678   0.75001   0.00000  Uiso   1.00
O1099  O     0.87294   0.22679   0.75001   0.00000  Uiso   1.00
O1100  O     0.77441   0.16665   0.82549   0.00000  Uiso   1.00
O1101  O     0.85360   0.16666   0.82549   0.00000  Uiso   1.00
O1102  O     0.79373   0.10654   0.75000   0.00000  Uiso   1.00
O1103  O     0.87292   0.10655   0.75000   0.00000  Uiso   1.00
O1104  O     0.81306   0.16667   0.67451   0.00000  Uiso   1.00
O1105  O     0.89225   0.16668   0.67451   0.00000  Uiso   1.00
N1106  N     0.70406   0.23759   0.78250   0.00000  Uiso   1.00
H1107  H     0.69382   0.26485   0.76976   0.00000  Uiso   1.00
C1108  C     0.69592   0.23753   0.83819   0.00000  Uiso   1.00
H1109  H     0.67178   0.26338   0.85688   0.00000  Uiso   1.00
H1110  H     0.73061   0.24141   0.84723   0.00000  Uiso   1.00
H1111  H     0.67930   0.20834   0.85544   0.00000  Uiso   1.00
N1112  N     0.71264   0.09125   0.74288   0.00000  Uiso   1.00
H1113  H     0.69096   0.07257   0.77069   0.00000  Uiso   1.00
C1114  C     0.72952   0.06993   0.69336   0.00000  Uiso   1.00
H1115  H     0.69961   0.06497   0.67588   0.00000  Uiso   1.00
H1116  H     0.74386   0.03927   0.69877   0.00000  Uiso   1.00
H1117  H     0.75935   0.08753   0.66713   0.00000  Uiso   1.00
N1118  N     0.94071   0.13930   0.89771   0.00000  Uiso   1.00
H1119  H     0.95561   0.15258   0.86225   0.00000  Uiso   1.00
C1120  C     0.92544   0.09735   0.89151   0.00000  Uiso   1.00
H1121  H     0.95447   0.08024   0.86276   0.00000  Uiso   1.00
H1122  H     0.89317   0.09721   0.87718   0.00000  Uiso   1.00
H1123  H     0.91701   0.08110   0.92894   0.00000  Uiso   1.00
N1124  N     0.70953   0.15364   0.90970   0.00000  Uiso   1.00
H1125  H     0.67530   0.16477   0.92526   0.00000  Uiso   1.00
C1126  C     0.71208   0.10928   0.90125   0.00000  Uiso   1.00
H1127  H     0.69513   0.10072   0.87066   0.00000  Uiso   1.00
H1128  H     0.69350   0.09325   0.93760   0.00000  Uiso   1.00
H1129  H     0.74999   0.09851   0.88758   0.00000  Uiso   1.00
N1130  N     0.74007   0.17081   0.57170   0.00000  Uiso   1.00
H1131  H     0.70914   0.18747   0.58788   0.00000  Uiso   1.00
C1132  C     0.73252   0.12800   0.58553   0.00000  Uiso   1.00
H1133  H     0.71433   0.12655   0.62756   0.00000  Uiso   1.00
H1134  H     0.76748   0.11153   0.57620   0.00000  Uiso   1.00
H1135  H     0.70876   0.11271   0.56489   0.00000  Uiso   1.00
N1136  N     0.89334   0.21670   0.87357   0.00000  Uiso   1.00
H1137  H     0.93005   0.22018   0.86439   0.00000  Uiso   1.00
C1138  C     0.86873   0.25592   0.87838   0.00000  Uiso   1.00
H1139  H     0.88765   0.27582   0.84566   0.00000  Uiso   1.00
H1140  H     0.83125   0.25163   0.87675   0.00000  Uiso   1.00
H1141  H     0.86858   0.27176   0.91535   0.00000  Uiso   1.00
C1142  C     0.92371   0.29351   0.69336   0.00000  Uiso   1.00
C1143  C     0.92595   0.26775   0.65017   0.00000  Uiso   1.00
C1144  C     0.97047   0.25396   0.61840   0.00000  Uiso   1.00
C1145  C     0.67959   0.26609   0.62927   0.00000  Uiso   1.00
C1146  C     0.67761   0.29107   0.67257   0.00000  Uiso   1.00
C1147  C     0.96660   0.30479   0.70451   0.00000  Uiso   1.00
H1148  H     0.89347   0.25940   0.64026   0.00000  Uiso   1.00
H1149  H     0.97208   0.23459   0.58474   0.00000  Uiso   1.00
H1150  H     0.71419   0.25667   0.60389   0.00000  Uiso   1.00
H1151  H     0.71052   0.30033   0.68094   0.00000  Uiso   1.00
H1152  H     0.96572   0.32491   0.73736   0.00000  Uiso   1.00
C1153  C     0.16730   0.57917   0.74884   0.00000  Uiso   1.00
C1154  C     0.14265   0.51230   0.99193   0.00000  Uiso   1.00
C1155  C     0.15771   0.51603   0.93706   0.00000  Uiso   1.00
C1156  C     0.17935   0.50654   0.51680   0.00000  Uiso   1.00
C1157  C     0.22511   0.49222   0.98636   0.00000  Uiso   1.00
C1158  C     0.23763   0.49687   0.93244   0.00000  Uiso   1.00
C1159  C     0.20728   0.52063   0.91306   0.00000  Uiso   1.00
C1160  C     0.17203   0.51246   0.56994   0.00000  Uiso   1.00
C1161  C     0.24802   0.47951   0.56433   0.00000  Uiso   1.00
C1162  C     0.12479   0.50822   0.90783   0.00000  Uiso   1.00
C1163  C     0.21103   0.64628   0.72312   0.00000  Uiso   1.00
C1164  C     0.14078   0.50245   0.85006   0.00000  Uiso   1.00
C1165  C     0.20953   0.35587   0.72487   0.00000  Uiso   1.00
C1166  C     0.16693   0.37656   0.74973   0.00000  Uiso   1.00
C1167  C     0.12538   0.35477   0.77413   0.00000  Uiso   1.00
C1168  C     0.12624   0.64552   0.77296   0.00000  Uiso   1.00
C1169  C     0.16848   0.62408   0.74747   0.00000  Uiso   1.00
C1170  C     0.30615   0.53521   0.75938   0.00000  Uiso   1.00
C1171  C     0.02117   0.53517   0.76159   0.00000  Uiso   1.00
C1172  C     0.02560   0.46406   0.74204   0.00000  Uiso   1.00
C1173  C     0.31019   0.46470   0.74134   0.00000  Uiso   1.00
C1174  C     0.16650   0.42101   0.75024   0.00000  Uiso   1.00
C1175  C     0.19230   0.49979   0.65043   0.00000  Uiso   1.00
C1176  C     0.25776   0.47642   0.51067   0.00000  Uiso   1.00
C1177  C     0.20552   0.49834   0.59393   0.00000  Uiso   1.00
C1178  C     0.07582   0.50273   0.93505   0.00000  Uiso   1.00
C1179  C     0.05994   0.50811   0.98851   0.00000  Uiso   1.00
C1180  C     0.09238   0.51026   0.51765   0.00000  Uiso   1.00
Cu1181 Cu    0.11978   0.49999   0.75000   0.00000  Uiso   1.00
Cu1182 Cu    0.21355   0.50001   0.75000   0.00000  Uiso   1.00
H1183  H     0.27354   0.46729   0.58260   0.00000  Uiso   1.00
H1184  H     0.24147   0.37328   0.70536   0.00000  Uiso   1.00
H1185  H     0.09252   0.37063   0.79477   0.00000  Uiso   1.00
H1186  H     0.09396   0.62959   0.79322   0.00000  Uiso   1.00
H1187  H     0.28564   0.56342   0.76843   0.00000  Uiso   1.00
H1188  H     0.29318   0.43601   0.73543   0.00000  Uiso   1.00
H1189  H     0.29107   0.46241   0.98853   0.00000  Uiso   1.00
H1190  H     0.14100   0.52915   0.59314   0.00000  Uiso   1.00
H1191  H     0.02199   0.50458   0.50838   0.00000  Uiso   1.00
N1192  N     0.04931   0.49999   0.74999   0.00000  Uiso   1.00
N1193  N     0.28402   0.50002   0.75000   0.00000  Uiso   1.00
O1194  O     0.12708   0.56011   0.75001   0.00000  Uiso   1.00
O1195  O     0.20627   0.56012   0.75001   0.00000  Uiso   1.00
O1196  O     0.10775   0.49998   0.82549   0.00000  Uiso   1.00
O1197  O     0.18694   0.49999   0.82549   0.00000  Uiso   1.00
O1198  O     0.12706   0.43988   0.75000   0.00000  Uiso   1.00
O1199  O     0.20625   0.43989   0.75000   0.00000  Uiso   1.00
O1200  O     0.14640   0.50001   0.67451   0.00000  Uiso   1.00
O1201  O     0.22559   0.50002   0.67451   0.00000  Uiso   1.00
N1202  N     0.03740   0.57092   0.78250   0.00000  Uiso   1.00
H1203  H     0.02716   0.59818   0.76976   0.00000  Uiso   1.00
C1204  C     0.02925   0.57086   0.83819   0.00000  Uiso   1.00
H1205  H     0.00511   0.59672   0.85688   0.00000  Uiso   1.00
H1206  H     0.06395   0.57474   0.84723   0.00000  Uiso   1.00
H1207  H     0.01263   0.54168   0.85544   0.00000  Uiso   1.00
N1208  N     0.04597   0.42459   0.74288   0.00000  Uiso   1.00
H1209  H     0.02430   0.40590   0.77069   0.00000  Uiso   1.00
C1210  C     0.06286   0.40326   0.69336   0.00000  Uiso   1.00
H1211  H     0.03294   0.39831   0.67588   0.00000  Uiso   1.00
H1212  H     0.07720   0.37260   0.69877   0.00000  Uiso   1.00
H1213  H     0.09268   0.42086   0.66713   0.00000  Uiso   1.00
N1214  N     0.27405   0.47264   0.89771   0.00000  Uiso   1.00
H1215  H     0.28894   0.48591   0.86225   0.00000  Uiso   1.00
C1216  C     0.25877   0.43068   0.89151   0.00000  Uiso   1.00
H1217  H     0.28780   0.41357   0.86276   0.00000  Uiso   1.00
H1218  H     0.22650   0.43054   0.87718   0.00000  Uiso   1.00
H1219  H     0.25034   0.41444   0.92894   0.00000  Uiso   1.00
N1220  N     0.04287   0.48697   0.90970   0.00000  Uiso   1.00
H1221  H     0.00863   0.49810   0.92526   0.00000  Uiso   1.00
C1222  C     0.04541   0.44261   0.90125   0.00000  Uiso   1.00
H1223  H     0.02846   0.43406   0.87066   0.00000  Uiso   1.00
H1224  H     0.02684   0.42658   0.93760   0.00000  Uiso   1.00
H1225  H     0.08333   0.43184   0.88758   0.00000  Uiso   1.00
N1226  N     0.07340   0.50414   0.57170   0.00000  Uiso   1.00
H1227  H     0.04247   0.52080   0.58788   0.00000  Uiso   1.00
C1228  C     0.06586   0.46134   0.58553   0.00000  Uiso   1.00
H1229  H     0.04766   0.45988   0.62756   0.00000  Uiso   1.00
H1230  H     0.10081   0.44487   0.57620   0.00000  Uiso   1.00
H1231  H     0.04210   0.44605   0.56489   0.00000  Uiso   1.00
N1232  N     0.22667   0.55003   0.87357   0.00000  Uiso   1.00
H1233  H     0.26338   0.55352   0.86439   0.00000  Uiso   1.00
C1234  C     0.20206   0.58925   0.87838   0.00000  Uiso   1.00
H1235  H     0.22098   0.60915   0.84566   0.00000  Uiso   1.00
H1236  H     0.16458   0.58497   0.87675   0.00000  Uiso   1.00
H1237  H     0.20191   0.60510   0.91535   0.00000  Uiso   1.00
C1238  C     0.25705   0.62685   0.69336   0.00000  Uiso   1.00
C1239  C     0.25928   0.60108   0.65017   0.00000  Uiso   1.00
C1240  C     0.30380   0.58729   0.61840   0.00000  Uiso   1.00
C1241  C     0.01292   0.59943   0.62927   0.00000  Uiso   1.00
C1242  C     0.01094   0.62441   0.67257   0.00000  Uiso   1.00
C1243  C     0.29993   0.63812   0.70451   0.00000  Uiso   1.00
H1244  H     0.22680   0.59273   0.64026   0.00000  Uiso   1.00
H1245  H     0.30541   0.56793   0.58474   0.00000  Uiso   1.00
H1246  H     0.04752   0.59000   0.60389   0.00000  Uiso   1.00
H1247  H     0.04385   0.63366   0.68094   0.00000  Uiso   1.00
H1248  H     0.29905   0.65824   0.73736   0.00000  Uiso   1.00
C1249  C     0.50063   0.57917   0.74884   0.00000  Uiso   1.00
C1250  C     0.47598   0.51230   0.99193   0.00000  Uiso   1.00
C1251  C     0.49104   0.51603   0.93706   0.00000  Uiso   1.00
C1252  C     0.51268   0.50654   0.51680   0.00000  Uiso   1.00
C1253  C     0.55844   0.49222   0.98636   0.00000  Uiso   1.00
C1254  C     0.57096   0.49687   0.93244   0.00000  Uiso   1.00
C1255  C     0.54061   0.52063   0.91306   0.00000  Uiso   1.00
C1256  C     0.50536   0.51246   0.56994   0.00000  Uiso   1.00
C1257  C     0.58135   0.47951   0.56433   0.00000  Uiso   1.00
C1258  C     0.45812   0.50822   0.90783   0.00000  Uiso   1.00
C1259  C     0.54436   0.64628   0.72312   0.00000  Uiso   1.00
C1260  C     0.47411   0.50245   0.85006   0.00000  Uiso   1.00
C1261  C     0.54286   0.35587   0.72487   0.00000  Uiso   1.00
C1262  C     0.50026   0.37656   0.74973   0.00000  Uiso   1.00
C1263  C     0.45871   0.35477   0.77413   0.00000  Uiso   1.00
C1264  C     0.45957   0.64552   0.77296   0.00000  Uiso   1.00
C1265  C     0.50181   0.62408   0.74747   0.00000  Uiso   1.00
C1266  C     0.63949   0.53521   0.75938   0.00000  Uiso   1.00
C1267  C     0.35451   0.53517   0.76159   0.00000  Uiso   1.00
C1268  C     0.35893   0.46406   0.74204   0.00000  Uiso   1.00
C1269  C     0.64353   0.46470   0.74134   0.00000  Uiso   1.00
C1270  C     0.49984   0.42101   0.75024   0.00000  Uiso   1.00
C1271  C     0.52563   0.49979   0.65043   0.00000  Uiso   1.00
C1272  C     0.59109   0.47642   0.51067   0.00000  Uiso   1.00
C1273  C     0.53886   0.49834   0.59393   0.00000  Uiso   1.00
C1274  C     0.40916   0.50273   0.93505   0.00000  Uiso   1.00
C1275  C     0.39327   0.50811   0.98851   0.00000  Uiso   1.00
C1276  C     0.42571   0.51026   0.51765   0.00000  Uiso   1.00
Cu1277 Cu    0.45311   0.49999   0.75000   0.00000  Uiso   1.00
Cu1278 Cu    0.54689   0.50001   0.75000   0.00000  Uiso   1.00
H1279  H     0.60687   0.46729   0.58260   0.00000  Uiso   1.00
H1280  H     0.57481   0.37328   0.70536   0.00000  Uiso   1.00
H1281  H     0.42586   0.37063   0.79477   0.00000  Uiso   1.00
H1282  H     0.42729   0.62959   0.79322   0.00000  Uiso   1.00
H1283  H     0.61897   0.56342   0.76843   0.00000  Uiso   1.00
H1284  H     0.62651   0.43601   0.73543   0.00000  Uiso   1.00
H1285  H     0.62441   0.46241   0.98853   0.00000  Uiso   1.00
H1286  H     0.47433   0.52915   0.59314   0.00000  Uiso   1.00
H1287  H     0.35532   0.50458   0.50838   0.00000  Uiso   1.00
N1288  N     0.38265   0.49999   0.74999   0.00000  Uiso   1.00
N1289  N     0.61735   0.50002   0.75000   0.00000  Uiso   1.00
O1290  O     0.46042   0.56011   0.75001   0.00000  Uiso   1.00
O1291  O     0.53961   0.56012   0.75001   0.00000  Uiso   1.00
O1292  O     0.44108   0.49998   0.82549   0.00000  Uiso   1.00
O1293  O     0.52027   0.49999   0.82549   0.00000  Uiso   1.00
O1294  O     0.46039   0.43988   0.75000   0.00000  Uiso   1.00
O1295  O     0.53958   0.43989   0.75000   0.00000  Uiso   1.00
O1296  O     0.47973   0.50001   0.67451   0.00000  Uiso   1.00
O1297  O     0.55892   0.50002   0.67451   0.00000  Uiso   1.00
N1298  N     0.37073   0.57092   0.78250   0.00000  Uiso   1.00
H1299  H     0.36049   0.59818   0.76976   0.00000  Uiso   1.00
C1300  C     0.36258   0.57086   0.83819   0.00000  Uiso   1.00
H1301  H     0.33844   0.59672   0.85688   0.00000  Uiso   1.00
H1302  H     0.39728   0.57474   0.84723   0.00000  Uiso   1.00
H1303  H     0.34597   0.54168   0.85544   0.00000  Uiso   1.00
N1304  N     0.37930   0.42459   0.74288   0.00000  Uiso   1.00
H1305  H     0.35763   0.40590   0.77069   0.00000  Uiso   1.00
C1306  C     0.39619   0.40326   0.69336   0.00000  Uiso   1.00
H1307  H     0.36627   0.39831   0.67588   0.00000  Uiso   1.00
H1308  H     0.41053   0.37260   0.69877   0.00000  Uiso   1.00
H1309  H     0.42602   0.42086   0.66713   0.00000  Uiso   1.00
N1310  N     0.60738   0.47264   0.89771   0.00000  Uiso   1.00
H1311  H     0.62227   0.48591   0.86225   0.00000  Uiso   1.00
C1312  C     0.59210   0.43068   0.89151   0.00000  Uiso   1.00
H1313  H     0.62114   0.41357   0.86276   0.00000  Uiso   1.00
H1314  H     0.55984   0.43054   0.87718   0.00000  Uiso   1.00
H1315  H     0.58367   0.41444   0.92894   0.00000  Uiso   1.00
N1316  N     0.37620   0.48697   0.90970   0.00000  Uiso   1.00
H1317  H     0.34197   0.49810   0.92526   0.00000  Uiso   1.00
C1318  C     0.37874   0.44261   0.90125   0.00000  Uiso   1.00
H1319  H     0.36180   0.43406   0.87066   0.00000  Uiso   1.00
H1320  H     0.36017   0.42658   0.93760   0.00000  Uiso   1.00
H1321  H     0.41666   0.43184   0.88758   0.00000  Uiso   1.00
N1322  N     0.40673   0.50414   0.57170   0.00000  Uiso   1.00
H1323  H     0.37580   0.52080   0.58788   0.00000  Uiso   1.00
C1324  C     0.39919   0.46134   0.58553   0.00000  Uiso   1.00
H1325  H     0.38100   0.45988   0.62756   0.00000  Uiso   1.00
H1326  H     0.43414   0.44487   0.57620   0.00000  Uiso   1.00
H1327  H     0.37543   0.44605   0.56489   0.00000  Uiso   1.00
N1328  N     0.56001   0.55003   0.87357   0.00000  Uiso   1.00
H1329  H     0.59672   0.55352   0.86439   0.00000  Uiso   1.00
C1330  C     0.53539   0.58925   0.87838   0.00000  Uiso   1.00
H1331  H     0.55432   0.60915   0.84566   0.00000  Uiso   1.00
H1332  H     0.49792   0.58497   0.87675   0.00000  Uiso   1.00
H1333  H     0.53524   0.60510   0.91535   0.00000  Uiso   1.00
C1334  C     0.59038   0.62685   0.69336   0.00000  Uiso   1.00
C1335  C     0.59262   0.60108   0.65017   0.00000  Uiso   1.00
C1336  C     0.63713   0.58729   0.61840   0.00000  Uiso   1.00
C1337  C     0.34626   0.59943   0.62927   0.00000  Uiso   1.00
C1338  C     0.34428   0.62441   0.67257   0.00000  Uiso   1.00
C1339  C     0.63326   0.63812   0.70451   0.00000  Uiso   1.00
H1340  H     0.56014   0.59273   0.64026   0.00000  Uiso   1.00
H1341  H     0.63875   0.56793   0.58474   0.00000  Uiso   1.00
H1342  H     0.38085   0.59000   0.60389   0.00000  Uiso   1.00
H1343  H     0.37718   0.63366   0.68094   0.00000  Uiso   1.00
H1344  H     0.63238   0.65824   0.73736   0.00000  Uiso   1.00
C1345  C     0.83397   0.57917   0.74884   0.00000  Uiso   1.00
C1346  C     0.80932   0.51230   0.99193   0.00000  Uiso   1.00
C1347  C     0.82437   0.51603   0.93706   0.00000  Uiso   1.00
C1348  C     0.84601   0.50654   0.51680   0.00000  Uiso   1.00
C1349  C     0.89177   0.49222   0.98636   0.00000  Uiso   1.00
C1350  C     0.90429   0.49687   0.93244   0.00000  Uiso   1.00
C1351  C     0.87394   0.52063   0.91306   0.00000  Uiso   1.00
C1352  C     0.83870   0.51246   0.56994   0.00000  Uiso   1.00
C1353  C     0.91468   0.47951   0.56433   0.00000  Uiso   1.00
C1354  C     0.79145   0.50822   0.90783   0.00000  Uiso   1.00
C1355  C     0.87770   0.64628   0.72312   0.00000  Uiso   1.00
C1356  C     0.80744   0.50245   0.85006   0.00000  Uiso   1.00
C1357  C     0.87619   0.35587   0.72487   0.00000  Uiso   1.00
C1358  C     0.83359   0.37656   0.74973   0.00000  Uiso   1.00
C1359  C     0.79204   0.35477   0.77413   0.00000  Uiso   1.00
C1360  C     0.79291   0.64552   0.77296   0.00000  Uiso   1.00
C1361  C     0.83515   0.62408   0.74747   0.00000  Uiso   1.00
C1362  C     0.97282   0.53521   0.75938   0.00000  Uiso   1.00
C1363  C     0.68784   0.53517   0.76159   0.00000  Uiso   1.00
C1364  C     0.69227   0.46406   0.74204   0.00000  Uiso   1.00
C1365  C     0.97686   0.46470   0.74134   0.00000  Uiso   1.00
C1366  C     0.83317   0.42101   0.75024   0.00000  Uiso   1.00
C1367  C     0.85897   0.49979   0.65043   0.00000  Uiso   1.00
C1368  C     0.92443   0.47642   0.51067   0.00000  Uiso   1.00
C1369  C     0.87219   0.49834   0.59393   0.00000  Uiso   1.00
C1370  C     0.74249   0.50273   0.93505   0.00000  Uiso   1.00
C1371  C     0.72660   0.50811   0.98851   0.00000  Uiso   1.00
C1372  C     0.75904   0.51026   0.51765   0.00000  Uiso   1.00
Cu1373 Cu    0.78645   0.49999   0.75000   0.00000  Uiso   1.00
Cu1374 Cu    0.88022   0.50001   0.75000   0.00000  Uiso   1.00
H1375  H     0.94021   0.46729   0.58260   0.00000  Uiso   1.00
H1376  H     0.90814   0.37328   0.70536   0.00000  Uiso   1.00
H1377  H     0.75919   0.37063   0.79477   0.00000  Uiso   1.00
H1378  H     0.76063   0.62959   0.79322   0.00000  Uiso   1.00
H1379  H     0.95230   0.56342   0.76843   0.00000  Uiso   1.00
H1380  H     0.95985   0.43601   0.73543   0.00000  Uiso   1.00
H1381  H     0.95774   0.46241   0.98853   0.00000  Uiso   1.00
H1382  H     0.80766   0.52915   0.59314   0.00000  Uiso   1.00
H1383  H     0.68866   0.50458   0.50838   0.00000  Uiso   1.00
N1384  N     0.71598   0.49999   0.74999   0.00000  Uiso   1.00
N1385  N     0.95069   0.50002   0.75000   0.00000  Uiso   1.00
O1386  O     0.79375   0.56011   0.75001   0.00000  Uiso   1.00
O1387  O     0.87294   0.56012   0.75001   0.00000  Uiso   1.00
O1388  O     0.77441   0.49998   0.82549   0.00000  Uiso   1.00
O1389  O     0.85360   0.49999   0.82549   0.00000  Uiso   1.00
O1390  O     0.79373   0.43988   0.75000   0.00000  Uiso   1.00
O1391  O     0.87292   0.43989   0.75000   0.00000  Uiso   1.00
O1392  O     0.81306   0.50001   0.67451   0.00000  Uiso   1.00
O1393  O     0.89225   0.50002   0.67451   0.00000  Uiso   1.00
N1394  N     0.70406   0.57092   0.78250   0.00000  Uiso   1.00
H1395  H     0.69382   0.59818   0.76976   0.00000  Uiso   1.00
C1396  C     0.69592   0.57086   0.83819   0.00000  Uiso   1.00
H1397  H     0.67178   0.59672   0.85688   0.00000  Uiso   1.00
H1398  H     0.73061   0.57474   0.84723   0.00000  Uiso   1.00
H1399  H     0.67930   0.54168   0.85544   0.00000  Uiso   1.00
N1400  N     0.71264   0.42459   0.74288   0.00000  Uiso   1.00
H1401  H     0.69096   0.40590   0.77069   0.00000  Uiso   1.00
C1402  C     0.72952   0.40326   0.69336   0.00000  Uiso   1.00
H1403  H     0.69961   0.39831   0.67588   0.00000  Uiso   1.00
H1404  H     0.74386   0.37260   0.69877   0.00000  Uiso   1.00
H1405  H     0.75935   0.42086   0.66713   0.00000  Uiso   1.00
N1406  N     0.94071   0.47264   0.89771   0.00000  Uiso   1.00
H1407  H     0.95561   0.48591   0.86225   0.00000  Uiso   1.00
C1408  C     0.92544   0.43068   0.89151   0.00000  Uiso   1.00
H1409  H     0.95447   0.41357   0.86276   0.00000  Uiso   1.00
H1410  H     0.89317   0.43054   0.87718   0.00000  Uiso   1.00
H1411  H     0.91701   0.41444   0.92894   0.00000  Uiso   1.00
N1412  N     0.70953   0.48697   0.90970   0.00000  Uiso   1.00
H1413  H     0.67530   0.49810   0.92526   0.00000  Uiso   1.00
C1414  C     0.71208   0.44261   0.90125   0.00000  Uiso   1.00
H1415  H     0.69513   0.43406   0.87066   0.00000  Uiso   1.00
H1416  H     0.69350   0.42658   0.93760   0.00000  Uiso   1.00
H1417  H     0.74999   0.43184   0.88758   0.00000  Uiso   1.00
N1418  N     0.74007   0.50414   0.57170   0.00000  Uiso   1.00
H1419  H     0.70914   0.52080   0.58788   0.00000  Uiso   1.00
C1420  C     0.73252   0.46134   0.58553   0.00000  Uiso   1.00
H1421  H     0.71433   0.45988   0.62756   0.00000  Uiso   1.00
H1422  H     0.76748   0.44487   0.57620   0.00000  Uiso   1.00
H1423  H     0.70876   0.44605   0.56489   0.00000  Uiso   1.00
N1424  N     0.89334   0.55003   0.87357   0.00000  Uiso   1.00
H1425  H     0.93005   0.55352   0.86439   0.00000  Uiso   1.00
C1426  C     0.86873   0.58925   0.87838   0.00000  Uiso   1.00
H1427  H     0.88765   0.60915   0.84566   0.00000  Uiso   1.00
H1428  H     0.83125   0.58497   0.87675   0.00000  Uiso   1.00
H1429  H     0.86858   0.60510   0.91535   0.00000  Uiso   1.00
C1430  C     0.92371   0.62685   0.69336   0.00000  Uiso   1.00
C1431  C     0.92595   0.60108   0.65017   0.00000  Uiso   1.00
C1432  C     0.97047   0.58729   0.61840   0.00000  Uiso   1.00
C1433  C     0.67959   0.59943   0.62927   0.00000  Uiso   1.00
C1434  C     0.67761   0.62441   0.67257   0.00000  Uiso   1.00
C1435  C     0.96660   0.63812   0.70451   0.00000  Uiso   1.00
H1436  H     0.89347   0.59273   0.64026   0.00000  Uiso   1.00
H1437  H     0.97208   0.56793   0.58474   0.00000  Uiso   1.00
H1438  H     0.71419   0.59000   0.60389   0.00000  Uiso   1.00
H1439  H     0.71052   0.63366   0.68094   0.00000  Uiso   1.00
H1440  H     0.96572   0.65824   0.73736   0.00000  Uiso   1.00
C1441  C     0.16730   0.91251   0.74884   0.00000  Uiso   1.00
C1442  C     0.14265   0.84563   0.99193   0.00000  Uiso   1.00
C1443  C     0.15771   0.84936   0.93706   0.00000  Uiso   1.00
C1444  C     0.17935   0.83987   0.51680   0.00000  Uiso   1.00
C1445  C     0.22511   0.82555   0.98636   0.00000  Uiso   1.00
C1446  C     0.23763   0.83021   0.93244   0.00000  Uiso   1.00
C1447  C     0.20728   0.85396   0.91306   0.00000  Uiso   1.00
C1448  C     0.17203   0.84579   0.56994   0.00000  Uiso   1.00
C1449  C     0.24802   0.81284   0.56433   0.00000  Uiso   1.00
C1450  C     0.12479   0.84155   0.90783   0.00000  Uiso   1.00
C1451  C     0.21103   0.97961   0.72312   0.00000  Uiso   1.00
C1452  C     0.14078   0.83578   0.85006   0.00000  Uiso   1.00
C1453  C     0.20953   0.68920   0.72487   0.00000  Uiso   1.00
C1454  C     0.16693   0.70989   0.74973   0.00000  Uiso   1.00
C1455  C     0.12538   0.68810   0.77413   0.00000  Uiso   1.00
C1456  C     0.12624   0.97885   0.77296   0.00000  Uiso   1.00
C1457  C     0.16848   0.95741   0.74747   0.00000  Uiso   1.00
C1458  C     0.30615   0.86854   0.75938   0.00000  Uiso   1.00
C1459  C     0.02117   0.86850   0.76159   0.00000  Uiso   1.00
C1460  C     0.02560   0.79740   0.74204   0.00000  Uiso   1.00
C1461  C     0.31019   0.79804   0.74134   0.00000  Uiso   1.00
C1462  C     0.16650   0.75434   0.75024   0.00000  Uiso   1.00
C1463  C     0.19230   0.83312   0.65043   0.00000  Uiso   1.00
C1464  C     0.25776   0.80975   0.51067   0.00000  Uiso   1.00
C1465  C     0.20552   0.83167   0.59393   0.00000  Uiso   1.00
C1466  C     0.07582   0.83606   0.93505   0.00000  Uiso   1.00
C1467  C     0.05994   0.84145   0.98851   0.00000  Uiso   1.00
C1468  C     0.09238   0.84359   0.51765   0.00000  Uiso   1.00
Cu1469 Cu    0.11978   0.83333   0.75000   0.00000  Uiso   1.00
Cu1470 Cu    0.21355   0.83334   0.75000   0.00000  Uiso   1.00
H1471  H     0.27354   0.80062   0.58260   0.00000  Uiso   1.00
H1472  H     0.24147   0.70661   0.70536   0.00000  Uiso   1.00
H1473  H     0.09252   0.70396   0.79477   0.00000  Uiso   1.00
H1474  H     0.09396   0.96292   0.79322   0.00000  Uiso   1.00
H1475  H     0.28564   0.89675   0.76843   0.00000  Uiso   1.00
H1476  H     0.29318   0.76935   0.73543   0.00000  Uiso   1.00
H1477  H     0.29107   0.79574   0.98853   0.00000  Uiso   1.00
H1478  H     0.14100   0.86248   0.59314   0.00000  Uiso   1.00
H1479  H     0.02199   0.83791   0.50838   0.00000  Uiso   1.00
N1480  N     0.04931   0.83332   0.74999   0.00000  Uiso   1.00
N1481  N     0.28402   0.83335   0.75000   0.00000  Uiso   1.00
O1482  O     0.12708   0.89345   0.75001   0.00000  Uiso   1.00
O1483  O     0.20627   0.89346   0.75001   0.00000  Uiso   1.00
O1484  O     0.10775   0.83332   0.82549   0.00000  Uiso   1.00
O1485  O     0.18694   0.83333   0.82549   0.00000  Uiso   1.00
O1486  O     0.12706   0.77321   0.75000   0.00000  Uiso   1.00
O1487  O     0.20625   0.77322   0.75000   0.00000  Uiso   1.00
O1488  O     0.14640   0.83334   0.67451   0.00000  Uiso   1.00
O1489  O     0.22559   0.83335   0.67451   0.00000  Uiso   1.00
N1490  N     0.03740   0.90425   0.78250   0.00000  Uiso   1.00
H1491  H     0.02716   0.93151   0.76976   0.00000  Uiso   1.00
C1492  C     0.02925   0.90420   0.83819   0.00000  Uiso   1.00
H1493  H     0.00511   0.93005   0.85688   0.00000  Uiso   1.00
H1494  H     0.06395   0.90807   0.84723   0.00000  Uiso   1.00
H1495  H     0.01263   0.87501   0.85544   0.00000  Uiso   1.00
N1496  N     0.04597   0.75792   0.74288   0.00000  Uiso   1.00
H1497  H     0.02430   0.73923   0.77069   0.00000  Uiso   1.00
C1498  C     0.06286   0.73659   0.69336   0.00000  Uiso   1.00
H1499  H     0.03294   0.73164   0.67588   0.00000  Uiso   1.00
H1500  H     0.07720   0.70593   0.69877   0.00000  Uiso   1.00
H1501  H     0.09268   0.75420   0.66713   0.00000  Uiso   1.00
N1502  N     0.27405   0.80597   0.89771   0.00000  Uiso   1.00
H1503  H     0.28894   0.81925   0.86225   0.00000  Uiso   1.00
C1504  C     0.25877   0.76401   0.89151   0.00000  Uiso   1.00
H1505  H     0.28780   0.74691   0.86276   0.00000  Uiso   1.00
H1506  H     0.22650   0.76387   0.87718   0.00000  Uiso   1.00
H1507  H     0.25034   0.74777   0.92894   0.00000  Uiso   1.00
N1508  N     0.04287   0.82031   0.90970   0.00000  Uiso   1.00
H1509  H     0.00863   0.83144   0.92526   0.00000  Uiso   1.00
C1510  C     0.04541   0.77595   0.90125   0.00000  Uiso   1.00
H1511  H     0.02846   0.76739   0.87066   0.00000  Uiso   1.00
H1512  H     0.02684   0.75992   0.93760   0.00000  Uiso   1.00
H1513  H     0.08333   0.76518   0.88758   0.00000  Uiso   1.00
N1514  N     0.07340   0.83747   0.57170   0.00000  Uiso   1.00
H1515  H     0.04247   0.85413   0.58788   0.00000  Uiso   1.00
C1516  C     0.06586   0.79467   0.58553   0.00000  Uiso   1.00
H1517  H     0.04766   0.79321   0.62756   0.00000  Uiso   1.00
H1518  H     0.10081   0.77820   0.57620   0.00000  Uiso   1.00
H1519  H     0.04210   0.77938   0.56489   0.00000  Uiso   1.00
N1520  N     0.22667   0.88336   0.87357   0.00000  Uiso   1.00
H1521  H     0.26338   0.88685   0.86439   0.00000  Uiso   1.00
C1522  C     0.20206   0.92259   0.87838   0.00000  Uiso   1.00
H1523  H     0.22098   0.94248   0.84566   0.00000  Uiso   1.00
H1524  H     0.16458   0.91830   0.87675   0.00000  Uiso   1.00
H1525  H     0.20191   0.93843   0.91535   0.00000  Uiso   1.00
C1526  C     0.25705   0.96018   0.69336   0.00000  Uiso   1.00
C1527  C     0.25928   0.93441   0.65017   0.00000  Uiso   1.00
C1528  C     0.30380   0.92062   0.61840   0.00000  Uiso   1.00
C1529  C     0.01292   0.93276   0.62927   0.00000  Uiso   1.00
C1530  C     0.01094   0.95774   0.67257   0.00000  Uiso   1.00
C1531  C     0.29993   0.97146   0.70451   0.00000  Uiso   1.00
H1532  H     0.22680   0.92607   0.64026   0.00000  Uiso   1.00
H1533  H     0.30541   0.90126   0.58474   0.00000  Uiso   1.00
H1534  H     0.04752   0.92334   0.60389   0.00000  Uiso   1.00
H1535  H     0.04385   0.96700   0.68094   0.00000  Uiso   1.00
H1536  H     0.29905   0.99158   0.73736   0.00000  Uiso   1.00
C1537  C     0.50063   0.91251   0.74884   0.00000  Uiso   1.00
C1538  C     0.47598   0.84563   0.99193   0.00000  Uiso   1.00
C1539  C     0.49104   0.84936   0.93706   0.00000  Uiso   1.00
C1540  C     0.51268   0.83987   0.51680   0.00000  Uiso   1.00
C1541  C     0.55844   0.82555   0.98636   0.00000  Uiso   1.00
C1542  C     0.57096   0.83021   0.93244   0.00000  Uiso   1.00
C1543  C     0.54061   0.85396   0.91306   0.00000  Uiso   1.00
C1544  C     0.50536   0.84579   0.56994   0.00000  Uiso   1.00
C1545  C     0.58135   0.81284   0.56433   0.00000  Uiso   1.00
C1546  C     0.45812   0.84155   0.90783   0.00000  Uiso   1.00
C1547  C     0.54436   0.97961   0.72312   0.00000  Uiso   1.00
C1548  C     0.47411   0.83578   0.85006   0.00000  Uiso   1.00
C1549  C     0.54286   0.68920   0.72487   0.00000  Uiso   1.00
C1550  C     0.50026   0.70989   0.74973   0.00000  Uiso   1.00
C1551  C     0.45871   0.68810   0.77413   0.00000  Uiso   1.00
C1552  C     0.45957   0.97885   0.77296   0.00000  Uiso   1.00
C1553  C     0.50181   0.95741   0.74747   0.00000  Uiso   1.00
C1554  C     0.63949   0.86854   0.75938   0.00000  Uiso   1.00
C1555  C     0.35451   0.86850   0.76159   0.00000  Uiso   1.00
C1556  C     0.35893   0.79740   0.74204   0.00000  Uiso   1.00
C1557  C     0.64353   0.79804   0.74134   0.00000  Uiso   1.00
C1558  C     0.49984   0.75434   0.75024   0.00000  Uiso   1.00
C1559  C     0.52563   0.83312   0.65043   0.00000  Uiso   1.00
C1560  C     0.59109   0.80975   0.51067   0.00000  Uiso   1.00
C1561  C     0.53886   0.83167   0.59393   0.00000  Uiso   1.00
C1562  C     0.40916   0.83606   0.93505   0.00000  Uiso   1.00
C1563  C     0.39327   0.84145   0.98851   0.00000  Uiso   1.00
C1564  C     0.42571   0.84359   0.51765   0.00000  Uiso   1.00
Cu1565 Cu    0.45311   0.83333   0.75000   0.00000  Uiso   1.00
Cu1566 Cu    0.54689   0.83334   0.75000   0.00000  Uiso   1.00
H1567  H     0.60687   0.80062   0.58260   0.00000  Uiso   1.00
H1568  H     0.57481   0.70661   0.70536   0.00000  Uiso   1.00
H1569  H     0.42586   0.70396   0.79477   0.00000  Uiso   1.00
H1570  H     0.42729   0.96292   0.79322   0.00000  Uiso   1.00
H1571  H     0.61897   0.89675   0.76843   0.00000  Uiso   1.00
H1572  H     0.62651   0.76935   0.73543   0.00000  Uiso   1.00
H1573  H     0.62441   0.79574   0.98853   0.00000  Uiso   1.00
H1574  H     0.47433   0.86248   0.59314   0.00000  Uiso   1.00
H1575  H     0.35532   0.83791   0.50838   0.00000  Uiso   1.00
N1576  N     0.38265   0.83332   0.74999   0.00000  Uiso   1.00
N1577  N     0.61735   0.83335   0.75000   0.00000  Uiso   1.00
O1578  O     0.46042   0.89345   0.75001   0.00000  Uiso   1.00
O1579  O     0.53961   0.89346   0.75001   0.00000  Uiso   1.00
O1580  O     0.44108   0.83332   0.82549   0.00000  Uiso   1.00
O1581  O     0.52027   0.83333   0.82549   0.00000  Uiso   1.00
O1582  O     0.46039   0.77321   0.75000   0.00000  Uiso   1.00
O1583  O     0.53958   0.77322   0.75000   0.00000  Uiso   1.00
O1584  O     0.47973   0.83334   0.67451   0.00000  Uiso   1.00
O1585  O     0.55892   0.83335   0.67451   0.00000  Uiso   1.00
N1586  N     0.37073   0.90425   0.78250   0.00000  Uiso   1.00
H1587  H     0.36049   0.93151   0.76976   0.00000  Uiso   1.00
C1588  C     0.36258   0.90420   0.83819   0.00000  Uiso   1.00
H1589  H     0.33844   0.93005   0.85688   0.00000  Uiso   1.00
H1590  H     0.39728   0.90807   0.84723   0.00000  Uiso   1.00
H1591  H     0.34597   0.87501   0.85544   0.00000  Uiso   1.00
N1592  N     0.37930   0.75792   0.74288   0.00000  Uiso   1.00
H1593  H     0.35763   0.73923   0.77069   0.00000  Uiso   1.00
C1594  C     0.39619   0.73659   0.69336   0.00000  Uiso   1.00
H1595  H     0.36627   0.73164   0.67588   0.00000  Uiso   1.00
H1596  H     0.41053   0.70593   0.69877   0.00000  Uiso   1.00
H1597  H     0.42602   0.75420   0.66713   0.00000  Uiso   1.00
N1598  N     0.60738   0.80597   0.89771   0.00000  Uiso   1.00
H1599  H     0.62227   0.81925   0.86225   0.00000  Uiso   1.00
C1600  C     0.59210   0.76401   0.89151   0.00000  Uiso   1.00
H1601  H     0.62114   0.74691   0.86276   0.00000  Uiso   1.00
H1602  H     0.55984   0.76387   0.87718   0.00000  Uiso   1.00
H1603  H     0.58367   0.74777   0.92894   0.00000  Uiso   1.00
N1604  N     0.37620   0.82031   0.90970   0.00000  Uiso   1.00
H1605  H     0.34197   0.83144   0.92526   0.00000  Uiso   1.00
C1606  C     0.37874   0.77595   0.90125   0.00000  Uiso   1.00
H1607  H     0.36180   0.76739   0.87066   0.00000  Uiso   1.00
H1608  H     0.36017   0.75992   0.93760   0.00000  Uiso   1.00
H1609  H     0.41666   0.76518   0.88758   0.00000  Uiso   1.00
N1610  N     0.40673   0.83747   0.57170   0.00000  Uiso   1.00
H1611  H     0.37580   0.85413   0.58788   0.00000  Uiso   1.00
C1612  C     0.39919   0.79467   0.58553   0.00000  Uiso   1.00
H1613  H     0.38100   0.79321   0.62756   0.00000  Uiso   1.00
H1614  H     0.43414   0.77820   0.57620   0.00000  Uiso   1.00
H1615  H     0.37543   0.77938   0.56489   0.00000  Uiso   1.00
N1616  N     0.56001   0.88336   0.87357   0.00000  Uiso   1.00
H1617  H     0.59672   0.88685   0.86439   0.00000  Uiso   1.00
C1618  C     0.53539   0.92259   0.87838   0.00000  Uiso   1.00
H1619  H     0.55432   0.94248   0.84566   0.00000  Uiso   1.00
H1620  H     0.49792   0.91830   0.87675   0.00000  Uiso   1.00
H1621  H     0.53524   0.93843   0.91535   0.00000  Uiso   1.00
C1622  C     0.59038   0.96018   0.69336   0.00000  Uiso   1.00
C1623  C     0.59262   0.93441   0.65017   0.00000  Uiso   1.00
C1624  C     0.63713   0.92062   0.61840   0.00000  Uiso   1.00
C1625  C     0.34626   0.93276   0.62927   0.00000  Uiso   1.00
C1626  C     0.34428   0.95774   0.67257   0.00000  Uiso   1.00
C1627  C     0.63326   0.97146   0.70451   0.00000  Uiso   1.00
H1628  H     0.56014   0.92607   0.64026   0.00000  Uiso   1.00
H1629  H     0.63875   0.90126   0.58474   0.00000  Uiso   1.00
H1630  H     0.38085   0.92334   0.60389   0.00000  Uiso   1.00
H1631  H     0.37718   0.96700   0.68094   0.00000  Uiso   1.00
H1632  H     0.63238   0.99158   0.73736   0.00000  Uiso   1.00
C1633  C     0.83397   0.91251   0.74884   0.00000  Uiso   1.00
C1634  C     0.80932   0.84563   0.99193   0.00000  Uiso   1.00
C1635  C     0.82437   0.84936   0.93706   0.00000  Uiso   1.00
C1636  C     0.84601   0.83987   0.51680   0.00000  Uiso   1.00
C1637  C     0.89177   0.82555   0.98636   0.00000  Uiso   1.00
C1638  C     0.90429   0.83021   0.93244   0.00000  Uiso   1.00
C1639  C     0.87394   0.85396   0.91306   0.00000  Uiso   1.00
C1640  C     0.83870   0.84579   0.56994   0.00000  Uiso   1.00
C1641  C     0.91468   0.81284   0.56433   0.00000  Uiso   1.00
C1642  C     0.79145   0.84155   0.90783   0.00000  Uiso   1.00
C1643  C     0.87770   0.97961   0.72312   0.00000  Uiso   1.00
C1644  C     0.80744   0.83578   0.85006   0.00000  Uiso   1.00
C1645  C     0.87619   0.68920   0.72487   0.00000  Uiso   1.00
C1646  C     0.83359   0.70989   0.74973   0.00000  Uiso   1.00
C1647  C     0.79204   0.68810   0.77413   0.00000  Uiso   1.00
C1648  C     0.79291   0.97885   0.77296   0.00000  Uiso   1.00
C1649  C     0.83515   0.95741   0.74747   0.00000  Uiso   1.00
C1650  C     0.97282   0.86854   0.75938   0.00000  Uiso   1.00
C1651  C     0.68784   0.86850   0.76159   0.00000  Uiso   1.00
C1652  C     0.69227   0.79740   0.74204   0.00000  Uiso   1.00
C1653  C     0.97686   0.79804   0.74134   0.00000  Uiso   1.00
C1654  C     0.83317   0.75434   0.75024   0.00000  Uiso   1.00
C1655  C     0.85897   0.83312   0.65043   0.00000  Uiso   1.00
C1656  C     0.92443   0.80975   0.51067   0.00000  Uiso   1.00
C1657  C     0.87219   0.83167   0.59393   0.00000  Uiso   1.00
C1658  C     0.74249   0.83606   0.93505   0.00000  Uiso   1.00
C1659  C     0.72660   0.84145   0.98851   0.00000  Uiso   1.00
C1660  C     0.75904   0.84359   0.51765   0.00000  Uiso   1.00
Cu1661 Cu    0.78645   0.83333   0.75000   0.00000  Uiso   1.00
Cu1662 Cu    0.88022   0.83334   0.75000   0.00000  Uiso   1.00
H1663  H     0.94021   0.80062   0.58260   0.00000  Uiso   1.00
H1664  H     0.90814   0.70661   0.70536   0.00000  Uiso   1.00
H1665  H     0.75919   0.70396   0.79477   0.00000  Uiso   1.00
H1666  H     0.76063   0.96292   0.79322   0.00000  Uiso   1.00
H1667  H     0.95230   0.89675   0.76843   0.00000  Uiso   1.00
H1668  H     0.95985   0.76935   0.73543   0.00000  Uiso   1.00
H1669  H     0.95774   0.79574   0.98853   0.00000  Uiso   1.00
H1670  H     0.80766   0.86248   0.59314   0.00000  Uiso   1.00
H1671  H     0.68866   0.83791   0.50838   0.00000  Uiso   1.00
N1672  N     0.71598   0.83332   0.74999   0.00000  Uiso   1.00
N1673  N     0.95069   0.83335   0.75000   0.00000  Uiso   1.00
O1674  O     0.79375   0.89345   0.75001   0.00000  Uiso   1.00
O1675  O     0.87294   0.89346   0.75001   0.00000  Uiso   1.00
O1676  O     0.77441   0.83332   0.82549   0.00000  Uiso   1.00
O1677  O     0.85360   0.83333   0.82549   0.00000  Uiso   1.00
O1678  O     0.79373   0.77321   0.75000   0.00000  Uiso   1.00
O1679  O     0.87292   0.77322   0.75000   0.00000  Uiso   1.00
O1680  O     0.81306   0.83334   0.67451   0.00000  Uiso   1.00
O1681  O     0.89225   0.83335   0.67451   0.00000  Uiso   1.00
N1682  N     0.70406   0.90425   0.78250   0.00000  Uiso   1.00
H1683  H     0.69382   0.93151   0.76976   0.00000  Uiso   1.00
C1684  C     0.69592   0.90420   0.83819   0.00000  Uiso   1.00
H1685  H     0.67178   0.93005   0.85688   0.00000  Uiso   1.00
H1686  H     0.73061   0.90807   0.84723   0.00000  Uiso   1.00
H1687  H     0.67930   0.87501   0.85544   0.00000  Uiso   1.00
N1688  N     0.71264   0.75792   0.74288   0.00000  Uiso   1.00
H1689  H     0.69096   0.73923   0.77069   0.00000  Uiso   1.00
C1690  C     0.72952   0.73659   0.69336   0.00000  Uiso   1.00
H1691  H     0.69961   0.73164   0.67588   0.00000  Uiso   1.00
H1692  H     0.74386   0.70593   0.69877   0.00000  Uiso   1.00
H1693  H     0.75935   0.75420   0.66713   0.00000  Uiso   1.00
N1694  N     0.94071   0.80597   0.89771   0.00000  Uiso   1.00
H1695  H     0.95561   0.81925   0.86225   0.00000  Uiso   1.00
C1696  C     0.92544   0.76401   0.89151   0.00000  Uiso   1.00
H1697  H     0.95447   0.74691   0.86276   0.00000  Uiso   1.00
H1698  H     0.89317   0.76387   0.87718   0.00000  Uiso   1.00
H1699  H     0.91701   0.74777   0.92894   0.00000  Uiso   1.00
N1700  N     0.70953   0.82031   0.90970   0.00000  Uiso   1.00
H1701  H     0.67530   0.83144   0.92526   0.00000  Uiso   1.00
C1702  C     0.71208   0.77595   0.90125   0.00000  Uiso   1.00
H1703  H     0.69513   0.76739   0.87066   0.00000  Uiso   1.00
H1704  H     0.69350   0.75992   0.93760   0.00000  Uiso   1.00
H1705  H     0.74999   0.76518   0.88758   0.00000  Uiso   1.00
N1706  N     0.74007   0.83747   0.57170   0.00000  Uiso   1.00
H1707  H     0.70914   0.85413   0.58788   0.00000  Uiso   1.00
C1708  C     0.73252   0.79467   0.58553   0.00000  Uiso   1.00
H1709  H     0.71433   0.79321   0.62756   0.00000  Uiso   1.00
H1710  H     0.76748   0.77820   0.57620   0.00000  Uiso   1.00
H1711  H     0.70876   0.77938   0.56489   0.00000  Uiso   1.00
N1712  N     0.89334   0.88336   0.87357   0.00000  Uiso   1.00
H1713  H     0.93005   0.88685   0.86439   0.00000  Uiso   1.00
C1714  C     0.86873   0.92259   0.87838   0.00000  Uiso   1.00
H1715  H     0.88765   0.94248   0.84566   0.00000  Uiso   1.00
H1716  H     0.83125   0.91830   0.87675   0.00000  Uiso   1.00
H1717  H     0.86858   0.93843   0.91535   0.00000  Uiso   1.00
C1718  C     0.92371   0.96018   0.69336   0.00000  Uiso   1.00
C1719  C     0.92595   0.93441   0.65017   0.00000  Uiso   1.00
C1720  C     0.97047   0.92062   0.61840   0.00000  Uiso   1.00
C1721  C     0.67959   0.93276   0.62927   0.00000  Uiso   1.00
C1722  C     0.67761   0.95774   0.67257   0.00000  Uiso   1.00
C1723  C     0.96660   0.97146   0.70451   0.00000  Uiso   1.00
H1724  H     0.89347   0.92607   0.64026   0.00000  Uiso   1.00
H1725  H     0.97208   0.90126   0.58474   0.00000  Uiso   1.00
H1726  H     0.71419   0.92334   0.60389   0.00000  Uiso   1.00
H1727  H     0.71052   0.96700   0.68094   0.00000  Uiso   1.00
H1728  H     0.96572   0.99158   0.73736   0.00000  Uiso   1.00
loop_
_geom_bond_atom_site_label_1
_geom_bond_atom_site_label_2
_geom_bond_distance
_geom_bond_site_symmetry_2
_ccdc_geom_bond_type
C1     O43     1.302   .     A
C1     C17     1.457   .     S
C1     O42     1.309   .     A
C2     C3      1.424   .     A
C2     C868    1.429   .     S
C2     C892    1.425   .     S
C3     C7      1.405   .     A
C3     C10     1.423   .     A
C4     C8      1.396   .     A
C4     C866    1.429   1_554 S
C4     C869    1.420   1_554 S
C5     C6      1.404   .     A
C5     C868    1.420   .     S
C5     C888    1.405   .     S
C6     C7      1.392   .     A
C6     N62     1.422   .     S
C7     N80     1.431   .     S
C8     C25     1.400   .     A
C8     H38     1.079   .     S
C9     C25     1.398   .     A
C9     C24     1.394   .     A
C9     H31     1.083   .     S
C10    C26     1.410   .     A
C10    C12     1.500   .     S
C11    C86     1.483   .     S
C11    C17     1.418   .     A
C11    C301    1.392   .     S
C12    O45     1.314   .     A
C12    O44     1.315   .     A
C13    H32     1.085   .     S
C13    C14     1.394   .     A
C13    C587    1.392   1_545 S
C14    C22     1.441   .     S
C14    C15     1.391   .     A
C15    H33     1.083   .     S
C15    C592    1.381   1_545 S
C16    H34     1.073   .     S
C16    C17     1.402   .     A
C16    C303    1.381   .     S
C18    H35     1.080   .     S
C18    N41     1.360   .     A
C18    C115    1.423   .     S
C19    N50     1.415   .     S
C19    N40     1.385   .     A
C19    C210    1.423   1_455 S
C20    N56     1.418   .     S
C20    N40     1.392   .     A
C20    C213    1.421   1_455 S
C21    H36     1.080   .     S
C21    N41     1.358   .     A
C21    C116    1.421   .     S
C22    O47     1.300   .     A
C22    O46     1.305   .     A
C23    O49     1.311   .     A
C23    O48     1.303   .     A
C23    C25     1.460   .     S
C24    C869    1.405   1_554 S
C24    H901    1.077   1_554 S
C26    C27     1.389   .     A
C26    N68     1.414   .     S
C27    C892    1.391   .     S
C27    H903    1.083   .     S
C28    N74     1.419   .     S
C28    C891    1.391   1_554 S
C28    C866    1.425   1_554 S
Cu29   O42     1.959   .     S
Cu29   Cu30    2.723   .     S
Cu29   O48     1.958   .     S
Cu29   O44     1.964   .     S
Cu29   O46     1.962   .     S
Cu29   N40     2.046   .     S
Cu30   O45     1.958   .     S
Cu30   N41     2.046   .     S
Cu30   O47     1.959   .     S
Cu30   O49     1.964   .     S
Cu30   O43     1.962   .     S
H37    C888    1.077   .     S
H39    C891    1.083   1_554 S
N50    C52     1.451   .     S
N50    H51     1.032   .     S
C52    H55     1.107   .     S
C52    H54     1.109   .     S
C52    H53     1.111   .     S
N56    H57     1.032   .     S
N56    C58     1.446   .     S
C58    H60     1.109   .     S
C58    H61     1.109   .     S
C58    H59     1.111   .     S
N62    C64     1.449   .     S
N62    H63     1.030   .     S
C64    H67     1.111   .     S
C64    H66     1.112   .     S
C64    H65     1.109   .     S
N68    H69     1.026   .     S
N68    C70     1.451   .     S
C70    H71     1.106   .     S
C70    H73     1.112   .     S
C70    H72     1.110   .     S
N74    C76     1.443   .     S
N74    H75     1.030   .     S
C76    H79     1.112   .     S
C76    H78     1.111   .     S
C76    H77     1.105   .     S
N80    H81     1.028   .     S
N80    C82     1.449   .     S
C82    H84     1.109   .     S
C82    H85     1.111   .     S
C82    H83     1.111   .     S
C86    C91     1.407   .     A
C86    C87     1.405   .     A
C87    C88     1.399   .     A
C87    H92     1.083   .     S
C88    H93     1.083   .     S
C88    C185    1.399   .     S
C89    H94     1.081   .     S
C89    C90     1.395   .     A
C89    C280    1.399   1_455 S
C90    H95     1.082   .     S
C90    C283    1.396   1_455 S
C91    H96     1.083   .     S
C91    C186    1.396   .     S
C97    O139    1.302   .     A
C97    C113    1.457   .     S
C97    O138    1.309   .     A
C98    C99     1.424   .     A
C98    C964    1.429   .     S
C98    C988    1.425   .     S
C99    C103    1.405   .     A
C99    C106    1.423   .     A
C100   C104    1.396   .     A
C100   C962    1.429   1_554 S
C100   C965    1.420   1_554 S
C101   C102    1.404   .     A
C101   C964    1.420   .     S
C101   C984    1.405   .     S
C102   C103    1.392   .     A
C102   N158    1.422   .     S
C103   N176    1.431   .     S
C104   C121    1.400   .     A
C104   H134    1.079   .     S
C105   C121    1.398   .     A
C105   C120    1.394   .     A
C105   H127    1.083   .     S
C106   C122    1.410   .     A
C106   C108    1.500   .     S
C107   C182    1.483   .     S
C107   C113    1.418   .     A
C107   C397    1.392   .     S
C108   O141    1.314   .     A
C108   O140    1.315   .     A
C109   H128    1.085   .     S
C109   C110    1.394   .     A
C109   C683    1.392   1_545 S
C110   C118    1.441   .     S
C110   C111    1.391   .     A
C111   H129    1.083   .     S
C111   C688    1.381   1_545 S
C112   H130    1.073   .     S
C112   C113    1.402   .     A
C112   C399    1.381   .     S
C114   H131    1.080   .     S
C114   N137    1.360   .     A
C114   C211    1.423   .     S
C115   N146    1.415   .     S
C115   N136    1.385   .     A
C116   N152    1.418   .     S
C116   N136    1.392   .     A
C117   H132    1.080   .     S
C117   N137    1.358   .     A
C117   C212    1.421   .     S
C118   O143    1.300   .     A
C118   O142    1.305   .     A
C119   O145    1.311   .     A
C119   O144    1.303   .     A
C119   C121    1.460   .     S
C120   C965    1.405   1_554 S
C120   H997    1.077   1_554 S
C122   C123    1.389   .     A
C122   N164    1.414   .     S
C123   C988    1.391   .     S
C123   H999    1.083   .     S
C124   N170    1.419   .     S
C124   C987    1.391   1_554 S
C124   C962    1.425   1_554 S
Cu125  O138    1.959   .     S
Cu125  Cu126   2.723   .     S
Cu125  O144    1.958   .     S
Cu125  O140    1.964   .     S
Cu125  O142    1.962   .     S
Cu125  N136    2.046   .     S
Cu126  O141    1.958   .     S
Cu126  N137    2.046   .     S
Cu126  O143    1.959   .     S
Cu126  O145    1.964   .     S
Cu126  O139    1.962   .     S
H133   C984    1.077   .     S
H135   C987    1.083   1_554 S
N146   C148    1.451   .     S
N146   H147    1.032   .     S
C148   H151    1.107   .     S
C148   H150    1.109   .     S
C148   H149    1.111   .     S
N152   H153    1.032   .     S
N152   C154    1.446   .     S
C154   H156    1.109   .     S
C154   H157    1.109   .     S
C154   H155    1.111   .     S
N158   C160    1.449   .     S
N158   H159    1.030   .     S
C160   H163    1.111   .     S
C160   H162    1.112   .     S
C160   H161    1.109   .     S
N164   H165    1.026   .     S
N164   C166    1.451   .     S
C166   H167    1.106   .     S
C166   H169    1.112   .     S
C166   H168    1.110   .     S
N170   C172    1.443   .     S
N170   H171    1.030   .     S
C172   H175    1.112   .     S
C172   H174    1.111   .     S
C172   H173    1.105   .     S
N176   H177    1.028   .     S
N176   C178    1.449   .     S
C178   H180    1.109   .     S
C178   H181    1.111   .     S
C178   H179    1.111   .     S
C182   C187    1.407   .     A
C182   C183    1.405   .     A
C183   C184    1.399   .     A
C183   H188    1.083   .     S
C184   H189    1.083   .     S
C184   C281    1.399   .     S
C185   H190    1.081   .     S
C185   C186    1.395   .     A
C186   H191    1.082   .     S
C187   H192    1.083   .     S
C187   C282    1.396   .     S
C193   O235    1.302   .     A
C193   C209    1.457   .     S
C193   O234    1.309   .     A
C194   C195    1.424   .     A
C194   C1060   1.429   .     S
C194   C1084   1.425   .     S
C195   C199    1.405   .     A
C195   C202    1.423   .     A
C196   C200    1.396   .     A
C196   C1058   1.429   1_554 S
C196   C1061   1.420   1_554 S
C197   C198    1.404   .     A
C197   C1060   1.420   .     S
C197   C1080   1.405   .     S
C198   C199    1.392   .     A
C198   N254    1.422   .     S
C199   N272    1.431   .     S
C200   C217    1.400   .     A
C200   H230    1.079   .     S
C201   C217    1.398   .     A
C201   C216    1.394   .     A
C201   H223    1.083   .     S
C202   C218    1.410   .     A
C202   C204    1.500   .     S
C203   C278    1.483   .     S
C203   C209    1.418   .     A
C203   C493    1.392   .     S
C204   O237    1.314   .     A
C204   O236    1.315   .     A
C205   H224    1.085   .     S
C205   C206    1.394   .     A
C205   C779    1.392   1_545 S
C206   C214    1.441   .     S
C206   C207    1.391   .     A
C207   H225    1.083   .     S
C207   C784    1.381   1_545 S
C208   H226    1.073   .     S
C208   C209    1.402   .     A
C208   C495    1.381   .     S
C210   H227    1.080   .     S
C210   N233    1.360   .     A
C210   C19     1.423   1_655 S
C211   N242    1.415   .     S
C211   N232    1.385   .     A
C212   N248    1.418   .     S
C212   N232    1.392   .     A
C213   H228    1.080   .     S
C213   N233    1.358   .     A
C213   C20     1.421   1_655 S
C214   O239    1.300   .     A
C214   O238    1.305   .     A
C215   O241    1.311   .     A
C215   O240    1.303   .     A
C215   C217    1.460   .     S
C216   C1061   1.405   1_554 S
C216   H1093   1.077   1_554 S
C218   C219    1.389   .     A
C218   N260    1.414   .     S
C219   C1084   1.391   .     S
C219   H1095   1.083   .     S
C220   N266    1.419   .     S
C220   C1083   1.391   1_554 S
C220   C1058   1.425   1_554 S
Cu221  O234    1.959   .     S
Cu221  Cu222   2.723   .     S
Cu221  O240    1.958   .     S
Cu221  O236    1.964   .     S
Cu221  O238    1.962   .     S
Cu221  N232    2.046   .     S
Cu222  O237    1.958   .     S
Cu222  N233    2.046   .     S
Cu222  O239    1.959   .     S
Cu222  O241    1.964   .     S
Cu222  O235    1.962   .     S
H229   C1080   1.077   .     S
H231   C1083   1.083   1_554 S
N242   C244    1.451   .     S
N242   H243    1.032   .     S
C244   H247    1.107   .     S
C244   H246    1.109   .     S
C244   H245    1.111   .     S
N248   H249    1.032   .     S
N248   C250    1.446   .     S
C250   H252    1.109   .     S
C250   H253    1.109   .     S
C250   H251    1.111   .     S
N254   C256    1.449   .     S
N254   H255    1.030   .     S
C256   H259    1.111   .     S
C256   H258    1.112   .     S
C256   H257    1.109   .     S
N260   H261    1.026   .     S
N260   C262    1.451   .     S
C262   H263    1.106   .     S
C262   H265    1.112   .     S
C262   H264    1.110   .     S
N266   C268    1.443   .     S
N266   H267    1.030   .     S
C268   H271    1.112   .     S
C268   H270    1.111   .     S
C268   H269    1.105   .     S
N272   H273    1.028   .     S
N272   C274    1.449   .     S
C274   H276    1.109   .     S
C274   H277    1.111   .     S
C274   H275    1.111   .     S
C278   C283    1.407   .     A
C278   C279    1.405   .     A
C279   C280    1.399   .     A
C279   H284    1.083   .     S
C280   H285    1.083   .     S
C280   C89     1.399   1_655 S
C281   H286    1.081   .     S
C281   C282    1.395   .     A
C282   H287    1.082   .     S
C283   H288    1.083   .     S
C283   C90     1.396   1_655 S
C289   O331    1.302   .     A
C289   C305    1.457   .     S
C289   O330    1.309   .     A
C290   C291    1.424   .     A
C290   C1156   1.429   .     S
C290   C1180   1.425   .     S
C291   C295    1.405   .     A
C291   C298    1.423   .     A
C292   C296    1.396   .     A
C292   C1154   1.429   1_554 S
C292   C1157   1.420   1_554 S
C293   C294    1.404   .     A
C293   C1156   1.420   .     S
C293   C1176   1.405   .     S
C294   C295    1.392   .     A
C294   N350    1.422   .     S
C295   N368    1.431   .     S
C296   C313    1.400   .     A
C296   H326    1.079   .     S
C297   C313    1.398   .     A
C297   C312    1.394   .     A
C297   H319    1.083   .     S
C298   C314    1.410   .     A
C298   C300    1.500   .     S
C299   C374    1.483   .     S
C299   C305    1.418   .     A
C299   C589    1.392   .     S
C300   O333    1.314   .     A
C300   O332    1.315   .     A
C301   H320    1.085   .     S
C301   C302    1.394   .     A
C302   C310    1.441   .     S
C302   C303    1.391   .     A
C303   H321    1.083   .     S
C304   H322    1.073   .     S
C304   C305    1.402   .     A
C304   C591    1.381   .     S
C306   H323    1.080   .     S
C306   N329    1.360   .     A
C306   C403    1.423   .     S
C307   N338    1.415   .     S
C307   N328    1.385   .     A
C307   C498    1.423   1_455 S
C308   N344    1.418   .     S
C308   N328    1.392   .     A
C308   C501    1.421   1_455 S
C309   H324    1.080   .     S
C309   N329    1.358   .     A
C309   C404    1.421   .     S
C310   O335    1.300   .     A
C310   O334    1.305   .     A
C311   O337    1.311   .     A
C311   O336    1.303   .     A
C311   C313    1.460   .     S
C312   C1157   1.405   1_554 S
C312   H1189   1.077   1_554 S
C314   C315    1.389   .     A
C314   N356    1.414   .     S
C315   C1180   1.391   .     S
C315   H1191   1.083   .     S
C316   N362    1.419   .     S
C316   C1179   1.391   1_554 S
C316   C1154   1.425   1_554 S
Cu317  O330    1.959   .     S
Cu317  Cu318   2.723   .     S
Cu317  O336    1.958   .     S
Cu317  O332    1.964   .     S
Cu317  O334    1.962   .     S
Cu317  N328    2.046   .     S
Cu318  O333    1.958   .     S
Cu318  N329    2.046   .     S
Cu318  O335    1.959   .     S
Cu318  O337    1.964   .     S
Cu318  O331    1.962   .     S
H325   C1176   1.077   .     S
H327   C1179   1.083   1_554 S
N338   C340    1.451   .     S
N338   H339    1.032   .     S
C340   H343    1.107   .     S
C340   H342    1.109   .     S
C340   H341    1.111   .     S
N344   H345    1.032   .     S
N344   C346    1.446   .     S
C346   H348    1.109   .     S
C346   H349    1.109   .     S
C346   H347    1.111   .     S
N350   C352    1.449   .     S
N350   H351    1.030   .     S
C352   H355    1.111   .     S
C352   H354    1.112   .     S
C352   H353    1.109   .     S
N356   H357    1.026   .     S
N356   C358    1.451   .     S
C358   H359    1.106   .     S
C358   H361    1.112   .     S
C358   H360    1.110   .     S
N362   C364    1.443   .     S
N362   H363    1.030   .     S
C364   H367    1.112   .     S
C364   H366    1.111   .     S
C364   H365    1.105   .     S
N368   H369    1.028   .     S
N368   C370    1.449   .     S
C370   H372    1.109   .     S
C370   H373    1.111   .     S
C370   H371    1.111   .     S
C374   C379    1.407   .     A
C374   C375    1.405   .     A
C375   C376    1.399   .     A
C375   H380    1.083   .     S
C376   H381    1.083   .     S
C376   C473    1.399   .     S
C377   H382    1.081   .     S
C377   C378    1.395   .     A
C377   C568    1.399   1_455 S
C378   H383    1.082   .     S
C378   C571    1.396   1_455 S
C379   H384    1.083   .     S
C379   C474    1.396   .     S
C385   O427    1.302   .     A
C385   C401    1.457   .     S
C385   O426    1.309   .     A
C386   C387    1.424   .     A
C386   C1252   1.429   .     S
C386   C1276   1.425   .     S
C387   C391    1.405   .     A
C387   C394    1.423   .     A
C388   C392    1.396   .     A
C388   C1250   1.429   1_554 S
C388   C1253   1.420   1_554 S
C389   C390    1.404   .     A
C389   C1252   1.420   .     S
C389   C1272   1.405   .     S
C390   C391    1.392   .     A
C390   N446    1.422   .     S
C391   N464    1.431   .     S
C392   C409    1.400   .     A
C392   H422    1.079   .     S
C393   C409    1.398   .     A
C393   C408    1.394   .     A
C393   H415    1.083   .     S
C394   C410    1.410   .     A
C394   C396    1.500   .     S
C395   C470    1.483   .     S
C395   C401    1.418   .     A
C395   C685    1.392   .     S
C396   O429    1.314   .     A
C396   O428    1.315   .     A
C397   H416    1.085   .     S
C397   C398    1.394   .     A
C398   C406    1.441   .     S
C398   C399    1.391   .     A
C399   H417    1.083   .     S
C400   H418    1.073   .     S
C400   C401    1.402   .     A
C400   C687    1.381   .     S
C402   H419    1.080   .     S
C402   N425    1.360   .     A
C402   C499    1.423   .     S
C403   N434    1.415   .     S
C403   N424    1.385   .     A
C404   N440    1.418   .     S
C404   N424    1.392   .     A
C405   H420    1.080   .     S
C405   N425    1.358   .     A
C405   C500    1.421   .     S
C406   O431    1.300   .     A
C406   O430    1.305   .     A
C407   O433    1.311   .     A
C407   O432    1.303   .     A
C407   C409    1.460   .     S
C408   C1253   1.405   1_554 S
C408   H1285   1.077   1_554 S
C410   C411    1.389   .     A
C410   N452    1.414   .     S
C411   C1276   1.391   .     S
C411   H1287   1.083   .     S
C412   N458    1.419   .     S
C412   C1275   1.391   1_554 S
C412   C1250   1.425   1_554 S
Cu413  O426    1.959   .     S
Cu413  Cu414   2.723   .     S
Cu413  O432    1.958   .     S
Cu413  O428    1.964   .     S
Cu413  O430    1.962   .     S
Cu413  N424    2.046   .     S
Cu414  O429    1.958   .     S
Cu414  N425    2.046   .     S
Cu414  O431    1.959   .     S
Cu414  O433    1.964   .     S
Cu414  O427    1.962   .     S
H421   C1272   1.077   .     S
H423   C1275   1.083   1_554 S
N434   C436    1.451   .     S
N434   H435    1.032   .     S
C436   H439    1.107   .     S
C436   H438    1.109   .     S
C436   H437    1.111   .     S
N440   H441    1.032   .     S
N440   C442    1.446   .     S
C442   H444    1.109   .     S
C442   H445    1.109   .     S
C442   H443    1.111   .     S
N446   C448    1.449   .     S
N446   H447    1.030   .     S
C448   H451    1.111   .     S
C448   H450    1.112   .     S
C448   H449    1.109   .     S
N452   H453    1.026   .     S
N452   C454    1.451   .     S
C454   H455    1.106   .     S
C454   H457    1.112   .     S
C454   H456    1.110   .     S
N458   C460    1.443   .     S
N458   H459    1.030   .     S
C460   H463    1.112   .     S
C460   H462    1.111   .     S
C460   H461    1.105   .     S
N464   H465    1.028   .     S
N464   C466    1.449   .     S
C466   H468    1.109   .     S
C466   H469    1.111   .     S
C466   H467    1.111   .     S
C470   C475    1.407   .     A
C470   C471    1.405   .     A
C471   C472    1.399   .     A
C471   H476    1.083   .     S
C472   H477    1.083   .     S
C472   C569    1.399   .     S
C473   H478    1.081   .     S
C473   C474    1.395   .     A
C474   H479    1.082   .     S
C475   H480    1.083   .     S
C475   C570    1.396   .     S
C481   O523    1.302   .     A
C481   C497    1.457   .     S
C481   O522    1.309   .     A
C482   C483    1.424   .     A
C482   C1348   1.429   .     S
C482   C1372   1.425   .     S
C483   C487    1.405   .     A
C483   C490    1.423   .     A
C484   C488    1.396   .     A
C484   C1346   1.429   1_554 S
C484   C1349   1.420   1_554 S
C485   C486    1.404   .     A
C485   C1348   1.420   .     S
C485   C1368   1.405   .     S
C486   C487    1.392   .     A
C486   N542    1.422   .     S
C487   N560    1.431   .     S
C488   C505    1.400   .     A
C488   H518    1.079   .     S
C489   C505    1.398   .     A
C489   C504    1.394   .     A
C489   H511    1.083   .     S
C490   C506    1.410   .     A
C490   C492    1.500   .     S
C491   C566    1.483   .     S
C491   C497    1.418   .     A
C491   C781    1.392   .     S
C492   O525    1.314   .     A
C492   O524    1.315   .     A
C493   H512    1.085   .     S
C493   C494    1.394   .     A
C494   C502    1.441   .     S
C494   C495    1.391   .     A
C495   H513    1.083   .     S
C496   H514    1.073   .     S
C496   C497    1.402   .     A
C496   C783    1.381   .     S
C498   H515    1.080   .     S
C498   N521    1.360   .     A
C498   C307    1.423   1_655 S
C499   N530    1.415   .     S
C499   N520    1.385   .     A
C500   N536    1.418   .     S
C500   N520    1.392   .     A
C501   H516    1.080   .     S
C501   N521    1.358   .     A
C501   C308    1.421   1_655 S
C502   O527    1.300   .     A
C502   O526    1.305   .     A
C503   O529    1.311   .     A
C503   O528    1.303   .     A
C503   C505    1.460   .     S
C504   C1349   1.405   1_554 S
C504   H1381   1.077   1_554 S
C506   C507    1.389   .     A
C506   N548    1.414   .     S
C507   C1372   1.391   .     S
C507   H1383   1.083   .     S
C508   N554    1.419   .     S
C508   C1371   1.391   1_554 S
C508   C1346   1.425   1_554 S
Cu509  O522    1.959   .     S
Cu509  Cu510   2.723   .     S
Cu509  O528    1.958   .     S
Cu509  O524    1.964   .     S
Cu509  O526    1.962   .     S
Cu509  N520    2.046   .     S
Cu510  O525    1.958   .     S
Cu510  N521    2.046   .     S
Cu510  O527    1.959   .     S
Cu510  O529    1.964   .     S
Cu510  O523    1.962   .     S
H517   C1368   1.077   .     S
H519   C1371   1.083   1_554 S
N530   C532    1.451   .     S
N530   H531    1.032   .     S
C532   H535    1.107   .     S
C532   H534    1.109   .     S
C532   H533    1.111   .     S
N536   H537    1.032   .     S
N536   C538    1.446   .     S
C538   H540    1.109   .     S
C538   H541    1.109   .     S
C538   H539    1.111   .     S
N542   C544    1.449   .     S
N542   H543    1.030   .     S
C544   H547    1.111   .     S
C544   H546    1.112   .     S
C544   H545    1.109   .     S
N548   H549    1.026   .     S
N548   C550    1.451   .     S
C550   H551    1.106   .     S
C550   H553    1.112   .     S
C550   H552    1.110   .     S
N554   C556    1.443   .     S
N554   H555    1.030   .     S
C556   H559    1.112   .     S
C556   H558    1.111   .     S
C556   H557    1.105   .     S
N560   H561    1.028   .     S
N560   C562    1.449   .     S
C562   H564    1.109   .     S
C562   H565    1.111   .     S
C562   H563    1.111   .     S
C566   C571    1.407   .     A
C566   C567    1.405   .     A
C567   C568    1.399   .     A
C567   H572    1.083   .     S
C568   H573    1.083   .     S
C568   C377    1.399   1_655 S
C569   H574    1.081   .     S
C569   C570    1.395   .     A
C570   H575    1.082   .     S
C571   H576    1.083   .     S
C571   C378    1.396   1_655 S
C577   O619    1.302   .     A
C577   C593    1.457   .     S
C577   O618    1.309   .     A
C578   C579    1.424   .     A
C578   C1444   1.429   .     S
C578   C1468   1.425   .     S
C579   C583    1.405   .     A
C579   C586    1.423   .     A
C580   C584    1.396   .     A
C580   C1442   1.429   1_554 S
C580   C1445   1.420   1_554 S
C581   C582    1.404   .     A
C581   C1444   1.420   .     S
C581   C1464   1.405   .     S
C582   C583    1.392   .     A
C582   N638    1.422   .     S
C583   N656    1.431   .     S
C584   C601    1.400   .     A
C584   H614    1.079   .     S
C585   C601    1.398   .     A
C585   C600    1.394   .     A
C585   H607    1.083   .     S
C586   C602    1.410   .     A
C586   C588    1.500   .     S
C587   C662    1.483   .     S
C587   C593    1.418   .     A
C587   C13     1.392   1_565 S
C588   O621    1.314   .     A
C588   O620    1.315   .     A
C589   H608    1.085   .     S
C589   C590    1.394   .     A
C590   C598    1.441   .     S
C590   C591    1.391   .     A
C591   H609    1.083   .     S
C592   H610    1.073   .     S
C592   C593    1.402   .     A
C592   C15     1.381   1_565 S
C594   H611    1.080   .     S
C594   N617    1.360   .     A
C594   C691    1.423   .     S
C595   N626    1.415   .     S
C595   N616    1.385   .     A
C595   C786    1.423   1_455 S
C596   N632    1.418   .     S
C596   N616    1.392   .     A
C596   C789    1.421   1_455 S
C597   H612    1.080   .     S
C597   N617    1.358   .     A
C597   C692    1.421   .     S
C598   O623    1.300   .     A
C598   O622    1.305   .     A
C599   O625    1.311   .     A
C599   O624    1.303   .     A
C599   C601    1.460   .     S
C600   C1445   1.405   1_554 S
C600   H1477   1.077   1_554 S
C602   C603    1.389   .     A
C602   N644    1.414   .     S
C603   C1468   1.391   .     S
C603   H1479   1.083   .     S
C604   N650    1.419   .     S
C604   C1467   1.391   1_554 S
C604   C1442   1.425   1_554 S
Cu605  O618    1.959   .     S
Cu605  Cu606   2.723   .     S
Cu605  O624    1.958   .     S
Cu605  O620    1.964   .     S
Cu605  O622    1.962   .     S
Cu605  N616    2.046   .     S
Cu606  O621    1.958   .     S
Cu606  N617    2.046   .     S
Cu606  O623    1.959   .     S
Cu606  O625    1.964   .     S
Cu606  O619    1.962   .     S
H613   C1464   1.077   .     S
H615   C1467   1.083   1_554 S
N626   C628    1.451   .     S
N626   H627    1.032   .     S
C628   H631    1.107   .     S
C628   H630    1.109   .     S
C628   H629    1.111   .     S
N632   H633    1.032   .     S
N632   C634    1.446   .     S
C634   H636    1.109   .     S
C634   H637    1.109   .     S
C634   H635    1.111   .     S
N638   C640    1.449   .     S
N638   H639    1.030   .     S
C640   H643    1.111   .     S
C640   H642    1.112   .     S
C640   H641    1.109   .     S
N644   H645    1.026   .     S
N644   C646    1.451   .     S
C646   H647    1.106   .     S
C646   H649    1.112   .     S
C646   H648    1.110   .     S
N650   C652    1.443   .     S
N650   H651    1.030   .     S
C652   H655    1.112   .     S
C652   H654    1.111   .     S
C652   H653    1.105   .     S
N656   H657    1.028   .     S
N656   C658    1.449   .     S
C658   H660    1.109   .     S
C658   H661    1.111   .     S
C658   H659    1.111   .     S
C662   C667    1.407   .     A
C662   C663    1.405   .     A
C663   C664    1.399   .     A
C663   H668    1.083   .     S
C664   H669    1.083   .     S
C664   C761    1.399   .     S
C665   H670    1.081   .     S
C665   C666    1.395   .     A
C665   C856    1.399   1_455 S
C666   H671    1.082   .     S
C666   C859    1.396   1_455 S
C667   H672    1.083   .     S
C667   C762    1.396   .     S
C673   O715    1.302   .     A
C673   C689    1.457   .     S
C673   O714    1.309   .     A
C674   C675    1.424   .     A
C674   C1540   1.429   .     S
C674   C1564   1.425   .     S
C675   C679    1.405   .     A
C675   C682    1.423   .     A
C676   C680    1.396   .     A
C676   C1538   1.429   1_554 S
C676   C1541   1.420   1_554 S
C677   C678    1.404   .     A
C677   C1540   1.420   .     S
C677   C1560   1.405   .     S
C678   C679    1.392   .     A
C678   N734    1.422   .     S
C679   N752    1.431   .     S
C680   C697    1.400   .     A
C680   H710    1.079   .     S
C681   C697    1.398   .     A
C681   C696    1.394   .     A
C681   H703    1.083   .     S
C682   C698    1.410   .     A
C682   C684    1.500   .     S
C683   C758    1.483   .     S
C683   C689    1.418   .     A
C683   C109    1.392   1_565 S
C684   O717    1.314   .     A
C684   O716    1.315   .     A
C685   H704    1.085   .     S
C685   C686    1.394   .     A
C686   C694    1.441   .     S
C686   C687    1.391   .     A
C687   H705    1.083   .     S
C688   H706    1.073   .     S
C688   C689    1.402   .     A
C688   C111    1.381   1_565 S
C690   H707    1.080   .     S
C690   N713    1.360   .     A
C690   C787    1.423   .     S
C691   N722    1.415   .     S
C691   N712    1.385   .     A
C692   N728    1.418   .     S
C692   N712    1.392   .     A
C693   H708    1.080   .     S
C693   N713    1.358   .     A
C693   C788    1.421   .     S
C694   O719    1.300   .     A
C694   O718    1.305   .     A
C695   O721    1.311   .     A
C695   O720    1.303   .     A
C695   C697    1.460   .     S
C696   C1541   1.405   1_554 S
C696   H1573   1.077   1_554 S
C698   C699    1.389   .     A
C698   N740    1.414   .     S
C699   C1564   1.391   .     S
C699   H1575   1.083   .     S
C700   N746    1.419   .     S
C700   C1563   1.391   1_554 S
C700   C1538   1.425   1_554 S
Cu701  O714    1.959   .     S
Cu701  Cu702   2.723   .     S
Cu701  O720    1.958   .     S
Cu701  O716    1.964   .     S
Cu701  O718    1.962   .     S
Cu701  N712    2.046   .     S
Cu702  O717    1.958   .     S
Cu702  N713    2.046   .     S
Cu702  O719    1.959   .     S
Cu702  O721    1.964   .     S
Cu702  O715    1.962   .     S
H709   C1560   1.077   .     S
H711   C1563   1.083   1_554 S
N722   C724    1.451   .     S
N722   H723    1.032   .     S
C724   H727    1.107   .     S
C724   H726    1.109   .     S
C724   H725    1.111   .     S
N728   H729    1.032   .     S
N728   C730    1.446   .     S
C730   H732    1.109   .     S
C730   H733    1.109   .     S
C730   H731    1.111   .     S
N734   C736    1.449   .     S
N734   H735    1.030   .     S
C736   H739    1.111   .     S
C736   H738    1.112   .     S
C736   H737    1.109   .     S
N740   H741    1.026   .     S
N740   C742    1.451   .     S
C742   H743    1.106   .     S
C742   H745    1.112   .     S
C742   H744    1.110   .     S
N746   C748    1.443   .     S
N746   H747    1.030   .     S
C748   H751    1.112   .     S
C748   H750    1.111   .     S
C748   H749    1.105   .     S
N752   H753    1.028   .     S
N752   C754    1.449   .     S
C754   H756    1.109   .     S
C754   H757    1.111   .     S
C754   H755    1.111   .     S
C758   C763    1.407   .     A
C758   C759    1.405   .     A
C759   C760    1.399   .     A
C759   H764    1.083   .     S
C760   H765    1.083   .     S
C760   C857    1.399   .     S
C761   H766    1.081   .     S
C761   C762    1.395   .     A
C762   H767    1.082   .     S
C763   H768    1.083   .     S
C763   C858    1.396   .     S
C769   O811    1.302   .     A
C769   C785    1.457   .     S
C769   O810    1.309   .     A
C770   C771    1.424   .     A
C770   C1636   1.429   .     S
C770   C1660   1.425   .     S
C771   C775    1.405   .     A
C771   C778    1.423   .     A
C772   C776    1.396   .     A
C772   C1634   1.429   1_554 S
C772   C1637   1.420   1_554 S
C773   C774    1.404   .     A
C773   C1636   1.420   .     S
C773   C1656   1.405   .     S
C774   C775    1.392   .     A
C774   N830    1.422   .     S
C775   N848    1.431   .     S
C776   C793    1.400   .     A
C776   H806    1.079   .     S
C777   C793    1.398   .     A
C777   C792    1.394   .     A
C777   H799    1.083   .     S
C778   C794    1.410   .     A
C778   C780    1.500   .     S
C779   C854    1.483   .     S
C779   C785    1.418   .     A
C779   C205    1.392   1_565 S
C780   O813    1.314   .     A
C780   O812    1.315   .     A
C781   H800    1.085   .     S
C781   C782    1.394   .     A
C782   C790    1.441   .     S
C782   C783    1.391   .     A
C783   H801    1.083   .     S
C784   H802    1.073   .     S
C784   C785    1.402   .     A
C784   C207    1.381   1_565 S
C786   H803    1.080   .     S
C786   N809    1.360   .     A
C786   C595    1.423   1_655 S
C787   N818    1.415   .     S
C787   N808    1.385   .     A
C788   N824    1.418   .     S
C788   N808    1.392   .     A
C789   H804    1.080   .     S
C789   N809    1.358   .     A
C789   C596    1.421   1_655 S
C790   O815    1.300   .     A
C790   O814    1.305   .     A
C791   O817    1.311   .     A
C791   O816    1.303   .     A
C791   C793    1.460   .     S
C792   C1637   1.405   1_554 S
C792   H1669   1.077   1_554 S
C794   C795    1.389   .     A
C794   N836    1.414   .     S
C795   C1660   1.391   .     S
C795   H1671   1.083   .     S
C796   N842    1.419   .     S
C796   C1659   1.391   1_554 S
C796   C1634   1.425   1_554 S
Cu797  O810    1.959   .     S
Cu797  Cu798   2.723   .     S
Cu797  O816    1.958   .     S
Cu797  O812    1.964   .     S
Cu797  O814    1.962   .     S
Cu797  N808    2.046   .     S
Cu798  O813    1.958   .     S
Cu798  N809    2.046   .     S
Cu798  O815    1.959   .     S
Cu798  O817    1.964   .     S
Cu798  O811    1.962   .     S
H805   C1656   1.077   .     S
H807   C1659   1.083   1_554 S
N818   C820    1.451   .     S
N818   H819    1.032   .     S
C820   H823    1.107   .     S
C820   H822    1.109   .     S
C820   H821    1.111   .     S
N824   H825    1.032   .     S
N824   C826    1.446   .     S
C826   H828    1.109   .     S
C826   H829    1.109   .     S
C826   H827    1.111   .     S
N830   C832    1.449   .     S
N830   H831    1.030   .     S
C832   H835    1.111   .     S
C832   H834    1.112   .     S
C832   H833    1.109   .     S
N836   H837    1.026   .     S
N836   C838    1.451   .     S
C838   H839    1.106   .     S
C838   H841    1.112   .     S
C838   H840    1.110   .     S
N842   C844    1.443   .     S
N842   H843    1.030   .     S
C844   H847    1.112   .     S
C844   H846    1.111   .     S
C844   H845    1.105   .     S
N848   H849    1.028   .     S
N848   C850    1.449   .     S
C850   H852    1.109   .     S
C850   H853    1.111   .     S
C850   H851    1.111   .     S
C854   C859    1.407   .     A
C854   C855    1.405   .     A
C855   C856    1.399   .     A
C855   H860    1.083   .     S
C856   H861    1.083   .     S
C856   C665    1.399   1_655 S
C857   H862    1.081   .     S
C857   C858    1.395   .     A
C858   H863    1.082   .     S
C859   H864    1.083   .     S
C859   C666    1.396   1_655 S
C865   O907    1.302   .     A
C865   C881    1.457   .     S
C865   O906    1.309   .     A
C866   C867    1.424   .     A
C866   C4      1.429   1_556 S
C866   C28     1.425   1_556 S
C867   C871    1.405   .     A
C867   C874    1.423   .     A
C868   C872    1.396   .     A
C869   C870    1.404   .     A
C869   C4      1.420   1_556 S
C869   C24     1.405   1_556 S
C870   C871    1.392   .     A
C870   N926    1.422   .     S
C871   N944    1.431   .     S
C872   C889    1.400   .     A
C872   H902    1.079   .     S
C873   C889    1.398   .     A
C873   C888    1.394   .     A
C873   H895    1.083   .     S
C874   C890    1.410   .     A
C874   C876    1.500   .     S
C875   C950    1.483   .     S
C875   C881    1.418   .     A
C875   C1165   1.392   .     S
C876   O909    1.314   .     A
C876   O908    1.315   .     A
C877   H896    1.085   .     S
C877   C878    1.394   .     A
C877   C1451   1.392   1_545 S
C878   C886    1.441   .     S
C878   C879    1.391   .     A
C879   H897    1.083   .     S
C879   C1456   1.381   1_545 S
C880   H898    1.073   .     S
C880   C881    1.402   .     A
C880   C1167   1.381   .     S
C882   H899    1.080   .     S
C882   N905    1.360   .     A
C882   C979    1.423   .     S
C883   N914    1.415   .     S
C883   N904    1.385   .     A
C883   C1074   1.423   1_455 S
C884   N920    1.418   .     S
C884   N904    1.392   .     A
C884   C1077   1.421   1_455 S
C885   H900    1.080   .     S
C885   N905    1.358   .     A
C885   C980    1.421   .     S
C886   O911    1.300   .     A
C886   O910    1.305   .     A
C887   O913    1.311   .     A
C887   O912    1.303   .     A
C887   C889    1.460   .     S
C890   C891    1.389   .     A
C890   N932    1.414   .     S
C891   C28     1.391   1_556 S
C891   H39     1.083   1_556 S
C892   N938    1.419   .     S
Cu893  O906    1.959   .     S
Cu893  Cu894   2.723   .     S
Cu893  O912    1.958   .     S
Cu893  O908    1.964   .     S
Cu893  O910    1.962   .     S
Cu893  N904    2.046   .     S
Cu894  O909    1.958   .     S
Cu894  N905    2.046   .     S
Cu894  O911    1.959   .     S
Cu894  O913    1.964   .     S
Cu894  O907    1.962   .     S
H901   C24     1.077   1_556 S
N914   C916    1.451   .     S
N914   H915    1.032   .     S
C916   H919    1.107   .     S
C916   H918    1.109   .     S
C916   H917    1.111   .     S
N920   H921    1.032   .     S
N920   C922    1.446   .     S
C922   H924    1.109   .     S
C922   H925    1.109   .     S
C922   H923    1.111   .     S
N926   C928    1.449   .     S
N926   H927    1.030   .     S
C928   H931    1.111   .     S
C928   H930    1.112   .     S
C928   H929    1.109   .     S
N932   H933    1.026   .     S
N932   C934    1.451   .     S
C934   H935    1.106   .     S
C934   H937    1.112   .     S
C934   H936    1.110   .     S
N938   C940    1.443   .     S
N938   H939    1.030   .     S
C940   H943    1.112   .     S
C940   H942    1.111   .     S
C940   H941    1.105   .     S
N944   H945    1.028   .     S
N944   C946    1.449   .     S
C946   H948    1.109   .     S
C946   H949    1.111   .     S
C946   H947    1.111   .     S
C950   C955    1.407   .     A
C950   C951    1.405   .     A
C951   C952    1.399   .     A
C951   H956    1.083   .     S
C952   H957    1.083   .     S
C952   C1049   1.399   .     S
C953   H958    1.081   .     S
C953   C954    1.395   .     A
C953   C1144   1.399   1_455 S
C954   H959    1.082   .     S
C954   C1147   1.396   1_455 S
C955   H960    1.083   .     S
C955   C1050   1.396   .     S
C961   O1003   1.302   .     A
C961   C977    1.457   .     S
C961   O1002   1.309   .     A
C962   C963    1.424   .     A
C962   C100    1.429   1_556 S
C962   C124    1.425   1_556 S
C963   C967    1.405   .     A
C963   C970    1.423   .     A
C964   C968    1.396   .     A
C965   C966    1.404   .     A
C965   C100    1.420   1_556 S
C965   C120    1.405   1_556 S
C966   C967    1.392   .     A
C966   N1022   1.422   .     S
C967   N1040   1.431   .     S
C968   C985    1.400   .     A
C968   H998    1.079   .     S
C969   C985    1.398   .     A
C969   C984    1.394   .     A
C969   H991    1.083   .     S
C970   C986    1.410   .     A
C970   C972    1.500   .     S
C971   C1046   1.483   .     S
C971   C977    1.418   .     A
C971   C1261   1.392   .     S
C972   O1005   1.314   .     A
C972   O1004   1.315   .     A
C973   H992    1.085   .     S
C973   C974    1.394   .     A
C973   C1547   1.392   1_545 S
C974   C982    1.441   .     S
C974   C975    1.391   .     A
C975   H993    1.083   .     S
C975   C1552   1.381   1_545 S
C976   H994    1.073   .     S
C976   C977    1.402   .     A
C976   C1263   1.381   .     S
C978   H995    1.080   .     S
C978   N1001   1.360   .     A
C978   C1075   1.423   .     S
C979   N1010   1.415   .     S
C979   N1000   1.385   .     A
C980   N1016   1.418   .     S
C980   N1000   1.392   .     A
C981   H996    1.080   .     S
C981   N1001   1.358   .     A
C981   C1076   1.421   .     S
C982   O1007   1.300   .     A
C982   O1006   1.305   .     A
C983   O1009   1.311   .     A
C983   O1008   1.303   .     A
C983   C985    1.460   .     S
C986   C987    1.389   .     A
C986   N1028   1.414   .     S
C987   C124    1.391   1_556 S
C987   H135    1.083   1_556 S
C988   N1034   1.419   .     S
Cu989  O1002   1.959   .     S
Cu989  Cu990   2.723   .     S
Cu989  O1008   1.958   .     S
Cu989  O1004   1.964   .     S
Cu989  O1006   1.962   .     S
Cu989  N1000   2.046   .     S
Cu990  O1005   1.958   .     S
Cu990  N1001   2.046   .     S
Cu990  O1007   1.959   .     S
Cu990  O1009   1.964   .     S
Cu990  O1003   1.962   .     S
H997   C120    1.077   1_556 S
N1010  C1012   1.451   .     S
N1010  H1011   1.032   .     S
C1012  H1015   1.107   .     S
C1012  H1014   1.109   .     S
C1012  H1013   1.111   .     S
N1016  H1017   1.032   .     S
N1016  C1018   1.446   .     S
C1018  H1020   1.109   .     S
C1018  H1021   1.109   .     S
C1018  H1019   1.111   .     S
N1022  C1024   1.449   .     S
N1022  H1023   1.030   .     S
C1024  H1027   1.111   .     S
C1024  H1026   1.112   .     S
C1024  H1025   1.109   .     S
N1028  H1029   1.026   .     S
N1028  C1030   1.451   .     S
C1030  H1031   1.106   .     S
C1030  H1033   1.112   .     S
C1030  H1032   1.110   .     S
N1034  C1036   1.443   .     S
N1034  H1035   1.030   .     S
C1036  H1039   1.112   .     S
C1036  H1038   1.111   .     S
C1036  H1037   1.105   .     S
N1040  H1041   1.028   .     S
N1040  C1042   1.449   .     S
C1042  H1044   1.109   .     S
C1042  H1045   1.111   .     S
C1042  H1043   1.111   .     S
C1046  C1051   1.407   .     A
C1046  C1047   1.405   .     A
C1047  C1048   1.399   .     A
C1047  H1052   1.083   .     S
C1048  H1053   1.083   .     S
C1048  C1145   1.399   .     S
C1049  H1054   1.081   .     S
C1049  C1050   1.395   .     A
C1050  H1055   1.082   .     S
C1051  H1056   1.083   .     S
C1051  C1146   1.396   .     S
C1057  O1099   1.302   .     A
C1057  C1073   1.457   .     S
C1057  O1098   1.309   .     A
C1058  C1059   1.424   .     A
C1058  C196    1.429   1_556 S
C1058  C220    1.425   1_556 S
C1059  C1063   1.405   .     A
C1059  C1066   1.423   .     A
C1060  C1064   1.396   .     A
C1061  C1062   1.404   .     A
C1061  C196    1.420   1_556 S
C1061  C216    1.405   1_556 S
C1062  C1063   1.392   .     A
C1062  N1118   1.422   .     S
C1063  N1136   1.431   .     S
C1064  C1081   1.400   .     A
C1064  H1094   1.079   .     S
C1065  C1081   1.398   .     A
C1065  C1080   1.394   .     A
C1065  H1087   1.083   .     S
C1066  C1082   1.410   .     A
C1066  C1068   1.500   .     S
C1067  C1142   1.483   .     S
C1067  C1073   1.418   .     A
C1067  C1357   1.392   .     S
C1068  O1101   1.314   .     A
C1068  O1100   1.315   .     A
C1069  H1088   1.085   .     S
C1069  C1070   1.394   .     A
C1069  C1643   1.392   1_545 S
C1070  C1078   1.441   .     S
C1070  C1071   1.391   .     A
C1071  H1089   1.083   .     S
C1071  C1648   1.381   1_545 S
C1072  H1090   1.073   .     S
C1072  C1073   1.402   .     A
C1072  C1359   1.381   .     S
C1074  H1091   1.080   .     S
C1074  N1097   1.360   .     A
C1074  C883    1.423   1_655 S
C1075  N1106   1.415   .     S
C1075  N1096   1.385   .     A
C1076  N1112   1.418   .     S
C1076  N1096   1.392   .     A
C1077  H1092   1.080   .     S
C1077  N1097   1.358   .     A
C1077  C884    1.421   1_655 S
C1078  O1103   1.300   .     A
C1078  O1102   1.305   .     A
C1079  O1105   1.311   .     A
C1079  O1104   1.303   .     A
C1079  C1081   1.460   .     S
C1082  C1083   1.389   .     A
C1082  N1124   1.414   .     S
C1083  C220    1.391   1_556 S
C1083  H231    1.083   1_556 S
C1084  N1130   1.419   .     S
Cu1085 O1098   1.959   .     S
Cu1085 Cu1086  2.723   .     S
Cu1085 O1104   1.958   .     S
Cu1085 O1100   1.964   .     S
Cu1085 O1102   1.962   .     S
Cu1085 N1096   2.046   .     S
Cu1086 O1101   1.958   .     S
Cu1086 N1097   2.046   .     S
Cu1086 O1103   1.959   .     S
Cu1086 O1105   1.964   .     S
Cu1086 O1099   1.962   .     S
H1093  C216    1.077   1_556 S
N1106  C1108   1.451   .     S
N1106  H1107   1.032   .     S
C1108  H1111   1.107   .     S
C1108  H1110   1.109   .     S
C1108  H1109   1.111   .     S
N1112  H1113   1.032   .     S
N1112  C1114   1.446   .     S
C1114  H1116   1.109   .     S
C1114  H1117   1.109   .     S
C1114  H1115   1.111   .     S
N1118  C1120   1.449   .     S
N1118  H1119   1.030   .     S
C1120  H1123   1.111   .     S
C1120  H1122   1.112   .     S
C1120  H1121   1.109   .     S
N1124  H1125   1.026   .     S
N1124  C1126   1.451   .     S
C1126  H1127   1.106   .     S
C1126  H1129   1.112   .     S
C1126  H1128   1.110   .     S
N1130  C1132   1.443   .     S
N1130  H1131   1.030   .     S
C1132  H1135   1.112   .     S
C1132  H1134   1.111   .     S
C1132  H1133   1.105   .     S
N1136  H1137   1.028   .     S
N1136  C1138   1.449   .     S
C1138  H1140   1.109   .     S
C1138  H1141   1.111   .     S
C1138  H1139   1.111   .     S
C1142  C1147   1.407   .     A
C1142  C1143   1.405   .     A
C1143  C1144   1.399   .     A
C1143  H1148   1.083   .     S
C1144  H1149   1.083   .     S
C1144  C953    1.399   1_655 S
C1145  H1150   1.081   .     S
C1145  C1146   1.395   .     A
C1146  H1151   1.082   .     S
C1147  H1152   1.083   .     S
C1147  C954    1.396   1_655 S
C1153  O1195   1.302   .     A
C1153  C1169   1.457   .     S
C1153  O1194   1.309   .     A
C1154  C1155   1.424   .     A
C1154  C292    1.429   1_556 S
C1154  C316    1.425   1_556 S
C1155  C1159   1.405   .     A
C1155  C1162   1.423   .     A
C1156  C1160   1.396   .     A
C1157  C1158   1.404   .     A
C1157  C292    1.420   1_556 S
C1157  C312    1.405   1_556 S
C1158  C1159   1.392   .     A
C1158  N1214   1.422   .     S
C1159  N1232   1.431   .     S
C1160  C1177   1.400   .     A
C1160  H1190   1.079   .     S
C1161  C1177   1.398   .     A
C1161  C1176   1.394   .     A
C1161  H1183   1.083   .     S
C1162  C1178   1.410   .     A
C1162  C1164   1.500   .     S
C1163  C1238   1.483   .     S
C1163  C1169   1.418   .     A
C1163  C1453   1.392   .     S
C1164  O1197   1.314   .     A
C1164  O1196   1.315   .     A
C1165  H1184   1.085   .     S
C1165  C1166   1.394   .     A
C1166  C1174   1.441   .     S
C1166  C1167   1.391   .     A
C1167  H1185   1.083   .     S
C1168  H1186   1.073   .     S
C1168  C1169   1.402   .     A
C1168  C1455   1.381   .     S
C1170  H1187   1.080   .     S
C1170  N1193   1.360   .     A
C1170  C1267   1.423   .     S
C1171  N1202   1.415   .     S
C1171  N1192   1.385   .     A
C1171  C1362   1.423   1_455 S
C1172  N1208   1.418   .     S
C1172  N1192   1.392   .     A
C1172  C1365   1.421   1_455 S
C1173  H1188   1.080   .     S
C1173  N1193   1.358   .     A
C1173  C1268   1.421   .     S
C1174  O1199   1.300   .     A
C1174  O1198   1.305   .     A
C1175  O1201   1.311   .     A
C1175  O1200   1.303   .     A
C1175  C1177   1.460   .     S
C1178  C1179   1.389   .     A
C1178  N1220   1.414   .     S
C1179  C316    1.391   1_556 S
C1179  H327    1.083   1_556 S
C1180  N1226   1.419   .     S
Cu1181 O1194   1.959   .     S
Cu1181 Cu1182  2.723   .     S
Cu1181 O1200   1.958   .     S
Cu1181 O1196   1.964   .     S
Cu1181 O1198   1.962   .     S
Cu1181 N1192   2.046   .     S
Cu1182 O1197   1.958   .     S
Cu1182 N1193   2.046   .     S
Cu1182 O1199   1.959   .     S
Cu1182 O1201   1.964   .     S
Cu1182 O1195   1.962   .     S
H1189  C312    1.077   1_556 S
N1202  C1204   1.451   .     S
N1202  H1203   1.032   .     S
C1204  H1207   1.107   .     S
C1204  H1206   1.109   .     S
C1204  H1205   1.111   .     S
N1208  H1209   1.032   .     S
N1208  C1210   1.446   .     S
C1210  H1212   1.109   .     S
C1210  H1213   1.109   .     S
C1210  H1211   1.111   .     S
N1214  C1216   1.449   .     S
N1214  H1215   1.030   .     S
C1216  H1219   1.111   .     S
C1216  H1218   1.112   .     S
C1216  H1217   1.109   .     S
N1220  H1221   1.026   .     S
N1220  C1222   1.451   .     S
C1222  H1223   1.106   .     S
C1222  H1225   1.112   .     S
C1222  H1224   1.110   .     S
N1226  C1228   1.443   .     S
N1226  H1227   1.030   .     S
C1228  H1231   1.112   .     S
C1228  H1230   1.111   .     S
C1228  H1229   1.105   .     S
N1232  H1233   1.028   .     S
N1232  C1234   1.449   .     S
C1234  H1236   1.109   .     S
C1234  H1237   1.111   .     S
C1234  H1235   1.111   .     S
C1238  C1243   1.407   .     A
C1238  C1239   1.405   .     A
C1239  C1240   1.399   .     A
C1239  H1244   1.083   .     S
C1240  H1245   1.083   .     S
C1240  C1337   1.399   .     S
C1241  H1246   1.081   .     S
C1241  C1242   1.395   .     A
C1241  C1432   1.399   1_455 S
C1242  H1247   1.082   .     S
C1242  C1435   1.396   1_455 S
C1243  H1248   1.083   .     S
C1243  C1338   1.396   .     S
C1249  O1291   1.302   .     A
C1249  C1265   1.457   .     S
C1249  O1290   1.309   .     A
C1250  C1251   1.424   .     A
C1250  C388    1.429   1_556 S
C1250  C412    1.425   1_556 S
C1251  C1255   1.405   .     A
C1251  C1258   1.423   .     A
C1252  C1256   1.396   .     A
C1253  C1254   1.404   .     A
C1253  C388    1.420   1_556 S
C1253  C408    1.405   1_556 S
C1254  C1255   1.392   .     A
C1254  N1310   1.422   .     S
C1255  N1328   1.431   .     S
C1256  C1273   1.400   .     A
C1256  H1286   1.079   .     S
C1257  C1273   1.398   .     A
C1257  C1272   1.394   .     A
C1257  H1279   1.083   .     S
C1258  C1274   1.410   .     A
C1258  C1260   1.500   .     S
C1259  C1334   1.483   .     S
C1259  C1265   1.418   .     A
C1259  C1549   1.392   .     S
C1260  O1293   1.314   .     A
C1260  O1292   1.315   .     A
C1261  H1280   1.085   .     S
C1261  C1262   1.394   .     A
C1262  C1270   1.441   .     S
C1262  C1263   1.391   .     A
C1263  H1281   1.083   .     S
C1264  H1282   1.073   .     S
C1264  C1265   1.402   .     A
C1264  C1551   1.381   .     S
C1266  H1283   1.080   .     S
C1266  N1289   1.360   .     A
C1266  C1363   1.423   .     S
C1267  N1298   1.415   .     S
C1267  N1288   1.385   .     A
C1268  N1304   1.418   .     S
C1268  N1288   1.392   .     A
C1269  H1284   1.080   .     S
C1269  N1289   1.358   .     A
C1269  C1364   1.421   .     S
C1270  O1295   1.300   .     A
C1270  O1294   1.305   .     A
C1271  O1297   1.311   .     A
C1271  O1296   1.303   .     A
C1271  C1273   1.460   .     S
C1274  C1275   1.389   .     A
C1274  N1316   1.414   .     S
C1275  C412    1.391   1_556 S
C1275  H423    1.083   1_556 S
C1276  N1322   1.419   .     S
Cu1277 O1290   1.959   .     S
Cu1277 Cu1278  2.723   .     S
Cu1277 O1296   1.958   .     S
Cu1277 O1292   1.964   .     S
Cu1277 O1294   1.962   .     S
Cu1277 N1288   2.046   .     S
Cu1278 O1293   1.958   .     S
Cu1278 N1289   2.046   .     S
Cu1278 O1295   1.959   .     S
Cu1278 O1297   1.964   .     S
Cu1278 O1291   1.962   .     S
H1285  C408    1.077   1_556 S
N1298  C1300   1.451   .     S
N1298  H1299   1.032   .     S
C1300  H1303   1.107   .     S
C1300  H1302   1.109   .     S
C1300  H1301   1.111   .     S
N1304  H1305   1.032   .     S
N1304  C1306   1.446   .     S
C1306  H1308   1.109   .     S
C1306  H1309   1.109   .     S
C1306  H1307   1.111   .     S
N1310  C1312   1.449   .     S
N1310  H1311   1.030   .     S
C1312  H1315   1.111   .     S
C1312  H1314   1.112   .     S
C1312  H1313   1.109   .     S
N1316  H1317   1.026   .     S
N1316  C1318   1.451   .     S
C1318  H1319   1.106   .     S
C1318  H1321   1.112   .     S
C1318  H1320   1.110   .     S
N1322  C1324   1.443   .     S
N1322  H1323   1.030   .     S
C1324  H1327   1.112   .     S
C1324  H1326   1.111   .     S
C1324  H1325   1.105   .     S
N1328  H1329   1.028   .     S
N1328  C1330   1.449   .     S
C1330  H1332   1.109   .     S
C1330  H1333   1.111   .     S
C1330  H1331   1.111   .     S
C1334  C1339   1.407   .     A
C1334  C1335   1.405   .     A
C1335  C1336   1.399   .     A
C1335  H1340   1.083   .     S
C1336  H1341   1.083   .     S
C1336  C1433   1.399   .     S
C1337  H1342   1.081   .     S
C1337  C1338   1.395   .     A
C1338  H1343   1.082   .     S
C1339  H1344   1.083   .     S
C1339  C1434   1.396   .     S
C1345  O1387   1.302   .     A
C1345  C1361   1.457   .     S
C1345  O1386   1.309   .     A
C1346  C1347   1.424   .     A
C1346  C484    1.429   1_556 S
C1346  C508    1.425   1_556 S
C1347  C1351   1.405   .     A
C1347  C1354   1.423   .     A
C1348  C1352   1.396   .     A
C1349  C1350   1.404   .     A
C1349  C484    1.420   1_556 S
C1349  C504    1.405   1_556 S
C1350  C1351   1.392   .     A
C1350  N1406   1.422   .     S
C1351  N1424   1.431   .     S
C1352  C1369   1.400   .     A
C1352  H1382   1.079   .     S
C1353  C1369   1.398   .     A
C1353  C1368   1.394   .     A
C1353  H1375   1.083   .     S
C1354  C1370   1.410   .     A
C1354  C1356   1.500   .     S
C1355  C1430   1.483   .     S
C1355  C1361   1.418   .     A
C1355  C1645   1.392   .     S
C1356  O1389   1.314   .     A
C1356  O1388   1.315   .     A
C1357  H1376   1.085   .     S
C1357  C1358   1.394   .     A
C1358  C1366   1.441   .     S
C1358  C1359   1.391   .     A
C1359  H1377   1.083   .     S
C1360  H1378   1.073   .     S
C1360  C1361   1.402   .     A
C1360  C1647   1.381   .     S
C1362  H1379   1.080   .     S
C1362  N1385   1.360   .     A
C1362  C1171   1.423   1_655 S
C1363  N1394   1.415   .     S
C1363  N1384   1.385   .     A
C1364  N1400   1.418   .     S
C1364  N1384   1.392   .     A
C1365  H1380   1.080   .     S
C1365  N1385   1.358   .     A
C1365  C1172   1.421   1_655 S
C1366  O1391   1.300   .     A
C1366  O1390   1.305   .     A
C1367  O1393   1.311   .     A
C1367  O1392   1.303   .     A
C1367  C1369   1.460   .     S
C1370  C1371   1.389   .     A
C1370  N1412   1.414   .     S
C1371  C508    1.391   1_556 S
C1371  H519    1.083   1_556 S
C1372  N1418   1.419   .     S
Cu1373 O1386   1.959   .     S
Cu1373 Cu1374  2.723   .     S
Cu1373 O1392   1.958   .     S
Cu1373 O1388   1.964   .     S
Cu1373 O1390   1.962   .     S
Cu1373 N1384   2.046   .     S
Cu1374 O1389   1.958   .     S
Cu1374 N1385   2.046   .     S
Cu1374 O1391   1.959   .     S
Cu1374 O1393   1.964   .     S
Cu1374 O1387   1.962   .     S
H1381  C504    1.077   1_556 S
N1394  C1396   1.451   .     S
N1394  H1395   1.032   .     S
C1396  H1399   1.107   .     S
C1396  H1398   1.109   .     S
C1396  H1397   1.111   .     S
N1400  H1401   1.032   .     S
N1400  C1402   1.446   .     S
C1402  H1404   1.109   .     S
C1402  H1405   1.109   .     S
C1402  H1403   1.111   .     S
N1406  C1408   1.449   .     S
N1406  H1407   1.030   .     S
C1408  H1411   1.111   .     S
C1408  H1410   1.112   .     S
C1408  H1409   1.109   .     S
N1412  H1413   1.026   .     S
N1412  C1414   1.451   .     S
C1414  H1415   1.106   .     S
C1414  H1417   1.112   .     S
C1414  H1416   1.110   .     S
N1418  C1420   1.443   .     S
N1418  H1419   1.030   .     S
C1420  H1423   1.112   .     S
C1420  H1422   1.111   .     S
C1420  H1421   1.105   .     S
N1424  H1425   1.028   .     S
N1424  C1426   1.449   .     S
C1426  H1428   1.109   .     S
C1426  H1429   1.111   .     S
C1426  H1427   1.111   .     S
C1430  C1435   1.407   .     A
C1430  C1431   1.405   .     A
C1431  C1432   1.399   .     A
C1431  H1436   1.083   .     S
C1432  H1437   1.083   .     S
C1432  C1241   1.399   1_655 S
C1433  H1438   1.081   .     S
C1433  C1434   1.395   .     A
C1434  H1439   1.082   .     S
C1435  H1440   1.083   .     S
C1435  C1242   1.396   1_655 S
C1441  O1483   1.302   .     A
C1441  C1457   1.457   .     S
C1441  O1482   1.309   .     A
C1442  C1443   1.424   .     A
C1442  C580    1.429   1_556 S
C1442  C604    1.425   1_556 S
C1443  C1447   1.405   .     A
C1443  C1450   1.423   .     A
C1444  C1448   1.396   .     A
C1445  C1446   1.404   .     A
C1445  C580    1.420   1_556 S
C1445  C600    1.405   1_556 S
C1446  C1447   1.392   .     A
C1446  N1502   1.422   .     S
C1447  N1520   1.431   .     S
C1448  C1465   1.400   .     A
C1448  H1478   1.079   .     S
C1449  C1465   1.398   .     A
C1449  C1464   1.394   .     A
C1449  H1471   1.083   .     S
C1450  C1466   1.410   .     A
C1450  C1452   1.500   .     S
C1451  C1526   1.483   .     S
C1451  C1457   1.418   .     A
C1451  C877    1.392   1_565 S
C1452  O1485   1.314   .     A
C1452  O1484   1.315   .     A
C1453  H1472   1.085   .     S
C1453  C1454   1.394   .     A
C1454  C1462   1.441   .     S
C1454  C1455   1.391   .     A
C1455  H1473   1.083   .     S
C1456  H1474   1.073   .     S
C1456  C1457   1.402   .     A
C1456  C879    1.381   1_565 S
C1458  H1475   1.080   .     S
C1458  N1481   1.360   .     A
C1458  C1555   1.423   .     S
C1459  N1490   1.415   .     S
C1459  N1480   1.385   .     A
C1459  C1650   1.423   1_455 S
C1460  N1496   1.418   .     S
C1460  N1480   1.392   .     A
C1460  C1653   1.421   1_455 S
C1461  H1476   1.080   .     S
C1461  N1481   1.358   .     A
C1461  C1556   1.421   .     S
C1462  O1487   1.300   .     A
C1462  O1486   1.305   .     A
C1463  O1489   1.311   .     A
C1463  O1488   1.303   .     A
C1463  C1465   1.460   .     S
C1466  C1467   1.389   .     A
C1466  N1508   1.414   .     S
C1467  C604    1.391   1_556 S
C1467  H615    1.083   1_556 S
C1468  N1514   1.419   .     S
Cu1469 O1482   1.959   .     S
Cu1469 Cu1470  2.723   .     S
Cu1469 O1488   1.958   .     S
Cu1469 O1484   1.964   .     S
Cu1469 O1486   1.962   .     S
Cu1469 N1480   2.046   .     S
Cu1470 O1485   1.958   .     S
Cu1470 N1481   2.046   .     S
Cu1470 O1487   1.959   .     S
Cu1470 O1489   1.964   .     S
Cu1470 O1483   1.962   .     S
H1477  C600    1.077   1_556 S
N1490  C1492   1.451   .     S
N1490  H1491   1.032   .     S
C1492  H1495   1.107   .     S
C1492  H1494   1.109   .     S
C1492  H1493   1.111   .     S
N1496  H1497   1.032   .     S
N1496  C1498   1.446   .     S
C1498  H1500   1.109   .     S
C1498  H1501   1.109   .     S
C1498  H1499   1.111   .     S
N1502  C1504   1.449   .     S
N1502  H1503   1.030   .     S
C1504  H1507   1.111   .     S
C1504  H1506   1.112   .     S
C1504  H1505   1.109   .     S
N1508  H1509   1.026   .     S
N1508  C1510   1.451   .     S
C1510  H1511   1.106   .     S
C1510  H1513   1.112   .     S
C1510  H1512   1.110   .     S
N1514  C1516   1.443   .     S
N1514  H1515   1.030   .     S
C1516  H1519   1.112   .     S
C1516  H1518   1.111   .     S
C1516  H1517   1.105   .     S
N1520  H1521   1.028   .     S
N1520  C1522   1.449   .     S
C1522  H1524   1.109   .     S
C1522  H1525   1.111   .     S
C1522  H1523   1.111   .     S
C1526  C1531   1.407   .     A
C1526  C1527   1.405   .     A
C1527  C1528   1.399   .     A
C1527  H1532   1.083   .     S
C1528  H1533   1.083   .     S
C1528  C1625   1.399   .     S
C1529  H1534   1.081   .     S
C1529  C1530   1.395   .     A
C1529  C1720   1.399   1_455 S
C1530  H1535   1.082   .     S
C1530  C1723   1.396   1_455 S
C1531  H1536   1.083   .     S
C1531  C1626   1.396   .     S
C1537  O1579   1.302   .     A
C1537  C1553   1.457   .     S
C1537  O1578   1.309   .     A
C1538  C1539   1.424   .     A
C1538  C676    1.429   1_556 S
C1538  C700    1.425   1_556 S
C1539  C1543   1.405   .     A
C1539  C1546   1.423   .     A
C1540  C1544   1.396   .     A
C1541  C1542   1.404   .     A
C1541  C676    1.420   1_556 S
C1541  C696    1.405   1_556 S
C1542  C1543   1.392   .     A
C1542  N1598   1.422   .     S
C1543  N1616   1.431   .     S
C1544  C1561   1.400   .     A
C1544  H1574   1.079   .     S
C1545  C1561   1.398   .     A
C1545  C1560   1.394   .     A
C1545  H1567   1.083   .     S
C1546  C1562   1.410   .     A
C1546  C1548   1.500   .     S
C1547  C1622   1.483   .     S
C1547  C1553   1.418   .     A
C1547  C973    1.392   1_565 S
C1548  O1581   1.314   .     A
C1548  O1580   1.315   .     A
C1549  H1568   1.085   .     S
C1549  C1550   1.394   .     A
C1550  C1558   1.441   .     S
C1550  C1551   1.391   .     A
C1551  H1569   1.083   .     S
C1552  H1570   1.073   .     S
C1552  C1553   1.402   .     A
C1552  C975    1.381   1_565 S
C1554  H1571   1.080   .     S
C1554  N1577   1.360   .     A
C1554  C1651   1.423   .     S
C1555  N1586   1.415   .     S
C1555  N1576   1.385   .     A
C1556  N1592   1.418   .     S
C1556  N1576   1.392   .     A
C1557  H1572   1.080   .     S
C1557  N1577   1.358   .     A
C1557  C1652   1.421   .     S
C1558  O1583   1.300   .     A
C1558  O1582   1.305   .     A
C1559  O1585   1.311   .     A
C1559  O1584   1.303   .     A
C1559  C1561   1.460   .     S
C1562  C1563   1.389   .     A
C1562  N1604   1.414   .     S
C1563  C700    1.391   1_556 S
C1563  H711    1.083   1_556 S
C1564  N1610   1.419   .     S
Cu1565 O1578   1.959   .     S
Cu1565 Cu1566  2.723   .     S
Cu1565 O1584   1.958   .     S
Cu1565 O1580   1.964   .     S
Cu1565 O1582   1.962   .     S
Cu1565 N1576   2.046   .     S
Cu1566 O1581   1.958   .     S
Cu1566 N1577   2.046   .     S
Cu1566 O1583   1.959   .     S
Cu1566 O1585   1.964   .     S
Cu1566 O1579   1.962   .     S
H1573  C696    1.077   1_556 S
N1586  C1588   1.451   .     S
N1586  H1587   1.032   .     S
C1588  H1591   1.107   .     S
C1588  H1590   1.109   .     S
C1588  H1589   1.111   .     S
N1592  H1593   1.032   .     S
N1592  C1594   1.446   .     S
C1594  H1596   1.109   .     S
C1594  H1597   1.109   .     S
C1594  H1595   1.111   .     S
N1598  C1600   1.449   .     S
N1598  H1599   1.030   .     S
C1600  H1603   1.111   .     S
C1600  H1602   1.112   .     S
C1600  H1601   1.109   .     S
N1604  H1605   1.026   .     S
N1604  C1606   1.451   .     S
C1606  H1607   1.106   .     S
C1606  H1609   1.112   .     S
C1606  H1608   1.110   .     S
N1610  C1612   1.443   .     S
N1610  H1611   1.030   .     S
C1612  H1615   1.112   .     S
C1612  H1614   1.111   .     S
C1612  H1613   1.105   .     S
N1616  H1617   1.028   .     S
N1616  C1618   1.449   .     S
C1618  H1620   1.109   .     S
C1618  H1621   1.111   .     S
C1618  H1619   1.111   .     S
C1622  C1627   1.407   .     A
C1622  C1623   1.405   .     A
C1623  C1624   1.399   .     A
C1623  H1628   1.083   .     S
C1624  H1629   1.083   .     S
C1624  C1721   1.399   .     S
C1625  H1630   1.081   .     S
C1625  C1626   1.395   .     A
C1626  H1631   1.082   .     S
C1627  H1632   1.083   .     S
C1627  C1722   1.396   .     S
C1633  O1675   1.302   .     A
C1633  C1649   1.457   .     S
C1633  O1674   1.309   .     A
C1634  C1635   1.424   .     A
C1634  C772    1.429   1_556 S
C1634  C796    1.425   1_556 S
C1635  C1639   1.405   .     A
C1635  C1642   1.423   .     A
C1636  C1640   1.396   .     A
C1637  C1638   1.404   .     A
C1637  C772    1.420   1_556 S
C1637  C792    1.405   1_556 S
C1638  C1639   1.392   .     A
C1638  N1694   1.422   .     S
C1639  N1712   1.431   .     S
C1640  C1657   1.400   .     A
C1640  H1670   1.079   .     S
C1641  C1657   1.398   .     A
C1641  C1656   1.394   .     A
C1641  H1663   1.083   .     S
C1642  C1658   1.410   .     A
C1642  C1644   1.500   .     S
C1643  C1718   1.483   .     S
C1643  C1649   1.418   .     A
C1643  C1069   1.392   1_565 S
C1644  O1677   1.314   .     A
C1644  O1676   1.315   .     A
C1645  H1664   1.085   .     S
C1645  C1646   1.394   .     A
C1646  C1654   1.441   .     S
C1646  C1647   1.391   .     A
C1647  H1665   1.083   .     S
C1648  H1666   1.073   .     S
C1648  C1649   1.402   .     A
C1648  C1071   1.381   1_565 S
C1650  H1667   1.080   .     S
C1650  N1673   1.360   .     A
C1650  C1459   1.423   1_655 S
C1651  N1682   1.415   .     S
C1651  N1672   1.385   .     A
C1652  N1688   1.418   .     S
C1652  N1672   1.392   .     A
C1653  H1668   1.080   .     S
C1653  N1673   1.358   .     A
C1653  C1460   1.421   1_655 S
C1654  O1679   1.300   .     A
C1654  O1678   1.305   .     A
C1655  O1681   1.311   .     A
C1655  O1680   1.303   .     A
C1655  C1657   1.460   .     S
C1658  C1659   1.389   .     A
C1658  N1700   1.414   .     S
C1659  C796    1.391   1_556 S
C1659  H807    1.083   1_556 S
C1660  N1706   1.419   .     S
Cu1661 O1674   1.959   .     S
Cu1661 Cu1662  2.723   .     S
Cu1661 O1680   1.958   .     S
Cu1661 O1676   1.964   .     S
Cu1661 O1678   1.962   .     S
Cu1661 N1672   2.046   .     S
Cu1662 O1677   1.958   .     S
Cu1662 N1673   2.046   .     S
Cu1662 O1679   1.959   .     S
Cu1662 O1681   1.964   .     S
Cu1662 O1675   1.962   .     S
H1669  C792    1.077   1_556 S
N1682  C1684   1.451   .     S
N1682  H1683   1.032   .     S
C1684  H1687   1.107   .     S
C1684  H1686   1.109   .     S
C1684  H1685   1.111   .     S
N1688  H1689   1.032   .     S
N1688  C1690   1.446   .     S
C1690  H1692   1.109   .     S
C1690  H1693   1.109   .     S
C1690  H1691   1.111   .     S
N1694  C1696   1.449   .     S
N1694  H1695   1.030   .     S
C1696  H1699   1.111   .     S
C1696  H1698   1.112   .     S
C1696  H1697   1.109   .     S
N1700  H1701   1.026   .     S
N1700  C1702   1.451   .     S
C1702  H1703   1.106   .     S
C1702  H1705   1.112   .     S
C1702  H1704   1.110   .     S
N1706  C1708   1.443   .     S
N1706  H1707   1.030   .     S
C1708  H1711   1.112   .     S
C1708  H1710   1.111   .     S
C1708  H1709   1.105   .     S
N1712  H1713   1.028   .     S
N1712  C1714   1.449   .     S
C1714  H1716   1.109   .     S
C1714  H1717   1.111   .     S
C1714  H1715   1.111   .     S
C1718  C1723   1.407   .     A
C1718  C1719   1.405   .     A
C1719  C1720   1.399   .     A
C1719  H1724   1.083   .     S
C1720  H1725   1.083   .     S
C1720  C1529   1.399   1_655 S
C1721  H1726   1.081   .     S
C1721  C1722   1.395   .     A
C1722  H1727   1.082   .     S
C1723  H1728   1.083   .     S
C1723  C1530   1.396   1_655 S
