data_str_m3_o1_o1_pcu_sym.23
_audit_creation_date              2020-01-03
_audit_creation_method            'Materials Studio'
_symmetry_space_group_name_H-M    'P1'
_symmetry_Int_Tables_number       1
_symmetry_cell_setting            triclinic
loop_
_symmetry_equiv_pos_as_xyz
  x,y,z
_cell_length_a                    31.0726
_cell_length_b                    29.4428
_cell_length_c                    29.8515
_cell_angle_alpha                 92.1966
_cell_angle_beta                  89.7345
_cell_angle_gamma                 90.5099
loop_
_atom_site_label
_atom_site_type_symbol
_atom_site_fract_x
_atom_site_fract_y
_atom_site_fract_z
_atom_site_U_iso_or_equiv
_atom_site_adp_type
_atom_site_occupancy
C1     C     0.06009   0.19030   0.16615   0.00000  Uiso   1.00
C2     C     0.49380   0.21059   0.30731   0.00000  Uiso   1.00
C3     C     0.49477   0.21015   0.02188   0.00000  Uiso   1.00
C4     C     0.00744   0.28920   0.31149   0.00000  Uiso   1.00
C5     C     0.25686   0.03929   0.02578   0.00000  Uiso   1.00
C6     C     0.24262   0.46075   0.30823   0.00000  Uiso   1.00
C7     C     0.24245   0.46089   0.02228   0.00000  Uiso   1.00
C8     C     0.25772   0.03925   0.31132   0.00000  Uiso   1.00
C9     C     0.41488   0.11378   0.14689   0.00000  Uiso   1.00
C10    C     0.08628   0.38511   0.18923   0.00000  Uiso   1.00
C11    C     0.13179   0.33194   0.14552   0.00000  Uiso   1.00
C12    C     0.43990   0.30980   0.16733   0.00000  Uiso   1.00
C13    C     0.36744   0.16908   0.18537   0.00000  Uiso   1.00
C14    C     0.12804   0.16321   0.19545   0.00000  Uiso   1.00
C15    C     0.37252   0.33632   0.13683   0.00000  Uiso   1.00
C16    C     0.40650   0.37940   0.19942   0.00000  Uiso   1.00
C17    C     0.08991   0.11880   0.13652   0.00000  Uiso   1.00
C18    C     0.16431   0.36465   0.14486   0.00000  Uiso   1.00
C19    C     0.33492   0.13639   0.18637   0.00000  Uiso   1.00
C20    C     0.38240   0.08108   0.14797   0.00000  Uiso   1.00
C21    C     0.11850   0.41762   0.18879   0.00000  Uiso   1.00
C22    C     0.37603   0.41283   0.19652   0.00000  Uiso   1.00
C23    C     0.44036   0.18994   0.16624   0.00000  Uiso   1.00
C24    C     0.11971   0.08409   0.13917   0.00000  Uiso   1.00
C25    C     0.15916   0.13005   0.19637   0.00000  Uiso   1.00
C26    C     0.34082   0.36928   0.13517   0.00000  Uiso   1.00
C27    C     0.09325   0.34277   0.16773   0.00000  Uiso   1.00
C28    C     0.40684   0.15719   0.16557   0.00000  Uiso   1.00
C29    C     0.40559   0.34196   0.16851   0.00000  Uiso   1.00
C30    C     0.09352   0.15735   0.16544   0.00000  Uiso   1.00
C31    C     0.34301   0.09295   0.16777   0.00000  Uiso   1.00
C32    C     0.15699   0.40718   0.16601   0.00000  Uiso   1.00
C33    C     0.15516   0.09094   0.16821   0.00000  Uiso   1.00
C34    C     0.05966   0.31005   0.16709   0.00000  Uiso   1.00
C35    C     0.34300   0.40715   0.16513   0.00000  Uiso   1.00
C36    C     0.30954   0.43982   0.16603   0.00000  Uiso   1.00
C37    C     0.18953   0.05919   0.16721   0.00000  Uiso   1.00
C38    C     0.19035   0.44000   0.16632   0.00000  Uiso   1.00
C39    C     0.30954   0.06015   0.16710   0.00000  Uiso   1.00
C40    C     0.00581   0.28940   0.02586   0.00000  Uiso   1.00
H41    H     0.04107   0.34504   0.04405   0.00000  Uiso   1.00
H42    H     0.23943   0.10368   0.04244   0.00000  Uiso   1.00
H43    H     0.20166   0.41849   0.27405   0.00000  Uiso   1.00
H44    H     0.25474   0.41351   0.25806   0.00000  Uiso   1.00
H45    H     0.25164   0.41608   0.07060   0.00000  Uiso   1.00
H46    H     0.19980   0.42127   0.05349   0.00000  Uiso   1.00
H47    H     0.24776   0.08436   0.26342   0.00000  Uiso   1.00
H48    H     0.29985   0.07923   0.27968   0.00000  Uiso   1.00
H49    H     0.46929   0.07660   0.14635   0.00000  Uiso   1.00
H50    H     0.45273   0.09213   0.09501   0.00000  Uiso   1.00
H51    H     0.03269   0.42319   0.19465   0.00000  Uiso   1.00
H52    H     0.48725   0.35350   0.04209   0.00000  Uiso   1.00
H53    H     0.05159   0.40500   0.24386   0.00000  Uiso   1.00
H54    H     0.16407   0.27227   0.13873   0.00000  Uiso   1.00
H55    H     0.14347   0.29135   0.09035   0.00000  Uiso   1.00
H56    H     0.33526   0.22894   0.18684   0.00000  Uiso   1.00
H57    H     0.35307   0.21275   0.23752   0.00000  Uiso   1.00
H58    H     0.12977   0.23226   0.20482   0.00000  Uiso   1.00
H59    H     0.11024   0.20348   0.24935   0.00000  Uiso   1.00
H60    H     0.37109   0.30619   0.07436   0.00000  Uiso   1.00
H61    H     0.34225   0.27851   0.11374   0.00000  Uiso   1.00
H62    H     0.43376   0.35952   0.25656   0.00000  Uiso   1.00
H63    H     0.01343   0.14791   0.28602   0.00000  Uiso   1.00
H64    H     0.46840   0.38238   0.21832   0.00000  Uiso   1.00
H65    H     0.06914   0.11071   0.07268   0.00000  Uiso   1.00
H66    H     0.03746   0.08576   0.11098   0.00000  Uiso   1.00
H67    H     0.21890   0.32771   0.14173   0.00000  Uiso   1.00
H68    H     0.20075   0.34413   0.09139   0.00000  Uiso   1.00
H69    H     0.28047   0.17348   0.18635   0.00000  Uiso   1.00
H70    H     0.29680   0.15846   0.23790   0.00000  Uiso   1.00
H71    H     0.41458   0.02121   0.14659   0.00000  Uiso   1.00
H72    H     0.39685   0.03736   0.09586   0.00000  Uiso   1.00
H73    H     0.11754   0.48679   0.18906   0.00000  Uiso   1.00
H74    H     0.45920   0.15360   0.29164   0.00000  Uiso   1.00
H75    H     0.13213   0.46470   0.23851   0.00000  Uiso   1.00
H76    H     0.40854   0.46907   0.21955   0.00000  Uiso   1.00
H77    H     0.37739   0.44384   0.25847   0.00000  Uiso   1.00
H78    H     0.13472   0.01738   0.11893   0.00000  Uiso   1.00
H79    H     0.08332   0.02861   0.12259   0.00000  Uiso   1.00
H80    H     0.18413   0.13858   0.25854   0.00000  Uiso   1.00
H81    H     0.21015   0.16746   0.21862   0.00000  Uiso   1.00
H82    H     0.31878   0.36339   0.07143   0.00000  Uiso   1.00
H83    H     0.29028   0.33335   0.10900   0.00000  Uiso   1.00
H84    H     0.49825   0.17069   0.07575   0.00000  Uiso   1.00
H85    H     0.01220   0.14495   0.02870   0.00000  Uiso   1.00
H86    H     0.00140   0.33306   0.26228   0.00000  Uiso   1.00
H87    H     0.05189   0.32771   0.28198   0.00000  Uiso   1.00
H88    H     0.29315   0.09434   0.04338   0.00000  Uiso   1.00
N89    N     0.00000   0.25000   0.28573   0.00000  Uiso   1.00
N90    N     0.23354   0.41847   0.28485   0.00000  Uiso   1.00
N91    N     0.23186   0.41940   0.04302   0.00000  Uiso   1.00
N92    N     0.26795   0.08090   0.29068   0.00000  Uiso   1.00
N93    N     0.45641   0.10309   0.12850   0.00000  Uiso   1.00
N94    N     0.04591   0.39539   0.21031   0.00000  Uiso   1.00
N95    N     0.13749   0.28765   0.12450   0.00000  Uiso   1.00
N96    N     0.36090   0.21442   0.20354   0.00000  Uiso   1.00
N97    N     0.13334   0.20346   0.22382   0.00000  Uiso   1.00
N98    N     0.37077   0.29635   0.10763   0.00000  Uiso   1.00
N99    N     0.43836   0.38497   0.23355   0.00000  Uiso   1.00
N100   N     0.00000   0.25000   0.04760   0.00000  Uiso   1.00
N101   N     0.05557   0.11483   0.10468   0.00000  Uiso   1.00
N102   N     0.20536   0.35454   0.12489   0.00000  Uiso   1.00
N103   N     0.29329   0.14716   0.20449   0.00000  Uiso   1.00
N104   N     0.38897   0.03572   0.12984   0.00000  Uiso   1.00
N105   N     0.11128   0.46098   0.21125   0.00000  Uiso   1.00
N106   N     0.37883   0.45324   0.22506   0.00000  Uiso   1.00
N107   N     0.11265   0.04263   0.11251   0.00000  Uiso   1.00
N108   N     0.19545   0.13643   0.22549   0.00000  Uiso   1.00
N109   N     0.30607   0.36419   0.10392   0.00000  Uiso   1.00
N110   N     0.25000   0.00000   0.28573   0.00000  Uiso   1.00
N111   N     0.25000   0.00000   0.04760   0.00000  Uiso   1.00
N112   N     0.01103   0.33099   0.05170   0.00000  Uiso   1.00
N113   N     0.48749   0.16944   0.28098   0.00000  Uiso   1.00
N114   N     0.48941   0.16731   0.04252   0.00000  Uiso   1.00
N115   N     0.01949   0.33037   0.29107   0.00000  Uiso   1.00
N116   N     0.26305   0.08076   0.05157   0.00000  Uiso   1.00
O117   O     0.04581   0.20419   0.20487   0.00000  Uiso   1.00
O118   O     0.20420   0.04581   0.12846   0.00000  Uiso   1.00
O119   O     0.20420   0.04581   0.20487   0.00000  Uiso   1.00
O120   O     0.29581   0.45419   0.12846   0.00000  Uiso   1.00
O121   O     0.20420   0.45419   0.12846   0.00000  Uiso   1.00
O122   O     0.29581   0.04581   0.20487   0.00000  Uiso   1.00
O123   O     0.29581   0.04581   0.12846   0.00000  Uiso   1.00
O124   O     0.20420   0.45419   0.20487   0.00000  Uiso   1.00
O125   O     0.45420   0.29581   0.12846   0.00000  Uiso   1.00
O126   O     0.45420   0.29581   0.20487   0.00000  Uiso   1.00
O127   O     0.04581   0.20419   0.12846   0.00000  Uiso   1.00
O128   O     0.45420   0.20419   0.12846   0.00000  Uiso   1.00
O129   O     0.04581   0.29581   0.20487   0.00000  Uiso   1.00
O130   O     0.04581   0.29581   0.12846   0.00000  Uiso   1.00
O131   O     0.45420   0.20419   0.20487   0.00000  Uiso   1.00
O132   O     0.29581   0.45419   0.20487   0.00000  Uiso   1.00
Zn133  Zn    0.00000   0.25000   0.21771   0.00000  Uiso   1.00
Zn134  Zn    0.00000   0.25000   0.11563   0.00000  Uiso   1.00
Zn135  Zn    0.25000   0.00000   0.21771   0.00000  Uiso   1.00
Zn136  Zn    0.25000   0.00000   0.11563   0.00000  Uiso   1.00
C137   C     0.56009   0.19030   0.16615   0.00000  Uiso   1.00
C138   C     0.99380   0.21059   0.30731   0.00000  Uiso   1.00
C139   C     0.99477   0.21015   0.02188   0.00000  Uiso   1.00
C140   C     0.50744   0.28920   0.31149   0.00000  Uiso   1.00
C141   C     0.75686   0.03929   0.02578   0.00000  Uiso   1.00
C142   C     0.74262   0.46075   0.30823   0.00000  Uiso   1.00
C143   C     0.74245   0.46089   0.02228   0.00000  Uiso   1.00
C144   C     0.75772   0.03925   0.31132   0.00000  Uiso   1.00
C145   C     0.91488   0.11378   0.14689   0.00000  Uiso   1.00
C146   C     0.58628   0.38511   0.18923   0.00000  Uiso   1.00
C147   C     0.63179   0.33194   0.14552   0.00000  Uiso   1.00
C148   C     0.93990   0.30980   0.16733   0.00000  Uiso   1.00
C149   C     0.86744   0.16908   0.18537   0.00000  Uiso   1.00
C150   C     0.62804   0.16321   0.19545   0.00000  Uiso   1.00
C151   C     0.87252   0.33632   0.13683   0.00000  Uiso   1.00
C152   C     0.90650   0.37940   0.19942   0.00000  Uiso   1.00
C153   C     0.58991   0.11880   0.13652   0.00000  Uiso   1.00
C154   C     0.66431   0.36465   0.14486   0.00000  Uiso   1.00
C155   C     0.83492   0.13639   0.18637   0.00000  Uiso   1.00
C156   C     0.88240   0.08108   0.14797   0.00000  Uiso   1.00
C157   C     0.61850   0.41762   0.18879   0.00000  Uiso   1.00
C158   C     0.87603   0.41283   0.19652   0.00000  Uiso   1.00
C159   C     0.94036   0.18994   0.16624   0.00000  Uiso   1.00
C160   C     0.61971   0.08409   0.13917   0.00000  Uiso   1.00
C161   C     0.65916   0.13005   0.19637   0.00000  Uiso   1.00
C162   C     0.84082   0.36928   0.13517   0.00000  Uiso   1.00
C163   C     0.59325   0.34277   0.16773   0.00000  Uiso   1.00
C164   C     0.90684   0.15719   0.16557   0.00000  Uiso   1.00
C165   C     0.90559   0.34196   0.16851   0.00000  Uiso   1.00
C166   C     0.59352   0.15735   0.16544   0.00000  Uiso   1.00
C167   C     0.84301   0.09295   0.16777   0.00000  Uiso   1.00
C168   C     0.65699   0.40718   0.16601   0.00000  Uiso   1.00
C169   C     0.65516   0.09094   0.16821   0.00000  Uiso   1.00
C170   C     0.55966   0.31005   0.16709   0.00000  Uiso   1.00
C171   C     0.84300   0.40715   0.16513   0.00000  Uiso   1.00
C172   C     0.80954   0.43982   0.16603   0.00000  Uiso   1.00
C173   C     0.68953   0.05919   0.16721   0.00000  Uiso   1.00
C174   C     0.69035   0.44000   0.16632   0.00000  Uiso   1.00
C175   C     0.80954   0.06015   0.16710   0.00000  Uiso   1.00
C176   C     0.50581   0.28940   0.02586   0.00000  Uiso   1.00
H177   H     0.54107   0.34504   0.04405   0.00000  Uiso   1.00
H178   H     0.73943   0.10368   0.04244   0.00000  Uiso   1.00
H179   H     0.70166   0.41849   0.27405   0.00000  Uiso   1.00
H180   H     0.75474   0.41351   0.25806   0.00000  Uiso   1.00
H181   H     0.75164   0.41608   0.07060   0.00000  Uiso   1.00
H182   H     0.69980   0.42127   0.05349   0.00000  Uiso   1.00
H183   H     0.74776   0.08436   0.26342   0.00000  Uiso   1.00
H184   H     0.79985   0.07923   0.27968   0.00000  Uiso   1.00
H185   H     0.96929   0.07660   0.14635   0.00000  Uiso   1.00
H186   H     0.95273   0.09213   0.09501   0.00000  Uiso   1.00
H187   H     0.53269   0.42319   0.19465   0.00000  Uiso   1.00
H188   H     0.98725   0.35350   0.04209   0.00000  Uiso   1.00
H189   H     0.55159   0.40500   0.24386   0.00000  Uiso   1.00
H190   H     0.66407   0.27227   0.13873   0.00000  Uiso   1.00
H191   H     0.64347   0.29135   0.09035   0.00000  Uiso   1.00
H192   H     0.83526   0.22894   0.18684   0.00000  Uiso   1.00
H193   H     0.85307   0.21275   0.23752   0.00000  Uiso   1.00
H194   H     0.62977   0.23226   0.20482   0.00000  Uiso   1.00
H195   H     0.61024   0.20348   0.24935   0.00000  Uiso   1.00
H196   H     0.87109   0.30619   0.07436   0.00000  Uiso   1.00
H197   H     0.84225   0.27851   0.11374   0.00000  Uiso   1.00
H198   H     0.93376   0.35952   0.25656   0.00000  Uiso   1.00
H199   H     0.51343   0.14791   0.28602   0.00000  Uiso   1.00
H200   H     0.96840   0.38238   0.21832   0.00000  Uiso   1.00
H201   H     0.56914   0.11071   0.07268   0.00000  Uiso   1.00
H202   H     0.53746   0.08576   0.11098   0.00000  Uiso   1.00
H203   H     0.71890   0.32771   0.14173   0.00000  Uiso   1.00
H204   H     0.70075   0.34413   0.09139   0.00000  Uiso   1.00
H205   H     0.78047   0.17348   0.18635   0.00000  Uiso   1.00
H206   H     0.79680   0.15846   0.23790   0.00000  Uiso   1.00
H207   H     0.91458   0.02121   0.14659   0.00000  Uiso   1.00
H208   H     0.89685   0.03736   0.09586   0.00000  Uiso   1.00
H209   H     0.61754   0.48679   0.18906   0.00000  Uiso   1.00
H210   H     0.95920   0.15360   0.29164   0.00000  Uiso   1.00
H211   H     0.63213   0.46470   0.23851   0.00000  Uiso   1.00
H212   H     0.90854   0.46907   0.21955   0.00000  Uiso   1.00
H213   H     0.87739   0.44384   0.25847   0.00000  Uiso   1.00
H214   H     0.63472   0.01738   0.11893   0.00000  Uiso   1.00
H215   H     0.58332   0.02861   0.12259   0.00000  Uiso   1.00
H216   H     0.68413   0.13858   0.25854   0.00000  Uiso   1.00
H217   H     0.71015   0.16746   0.21862   0.00000  Uiso   1.00
H218   H     0.81878   0.36339   0.07143   0.00000  Uiso   1.00
H219   H     0.79028   0.33335   0.10900   0.00000  Uiso   1.00
H220   H     0.99825   0.17069   0.07575   0.00000  Uiso   1.00
H221   H     0.51220   0.14495   0.02870   0.00000  Uiso   1.00
H222   H     0.50140   0.33306   0.26228   0.00000  Uiso   1.00
H223   H     0.55189   0.32771   0.28198   0.00000  Uiso   1.00
H224   H     0.79315   0.09434   0.04338   0.00000  Uiso   1.00
N225   N     0.50000   0.25000   0.28573   0.00000  Uiso   1.00
N226   N     0.73354   0.41847   0.28485   0.00000  Uiso   1.00
N227   N     0.73186   0.41940   0.04302   0.00000  Uiso   1.00
N228   N     0.76795   0.08090   0.29068   0.00000  Uiso   1.00
N229   N     0.95641   0.10309   0.12850   0.00000  Uiso   1.00
N230   N     0.54591   0.39539   0.21031   0.00000  Uiso   1.00
N231   N     0.63749   0.28765   0.12450   0.00000  Uiso   1.00
N232   N     0.86090   0.21442   0.20354   0.00000  Uiso   1.00
N233   N     0.63334   0.20346   0.22382   0.00000  Uiso   1.00
N234   N     0.87077   0.29635   0.10763   0.00000  Uiso   1.00
N235   N     0.93836   0.38497   0.23355   0.00000  Uiso   1.00
N236   N     0.50000   0.25000   0.04760   0.00000  Uiso   1.00
N237   N     0.55557   0.11483   0.10468   0.00000  Uiso   1.00
N238   N     0.70536   0.35454   0.12489   0.00000  Uiso   1.00
N239   N     0.79329   0.14716   0.20449   0.00000  Uiso   1.00
N240   N     0.88897   0.03572   0.12984   0.00000  Uiso   1.00
N241   N     0.61128   0.46098   0.21125   0.00000  Uiso   1.00
N242   N     0.87883   0.45324   0.22506   0.00000  Uiso   1.00
N243   N     0.61265   0.04263   0.11251   0.00000  Uiso   1.00
N244   N     0.69545   0.13643   0.22549   0.00000  Uiso   1.00
N245   N     0.80607   0.36419   0.10392   0.00000  Uiso   1.00
N246   N     0.75000   0.00000   0.28573   0.00000  Uiso   1.00
N247   N     0.75000   0.00000   0.04760   0.00000  Uiso   1.00
N248   N     0.51103   0.33099   0.05170   0.00000  Uiso   1.00
N249   N     0.98749   0.16944   0.28098   0.00000  Uiso   1.00
N250   N     0.98941   0.16731   0.04252   0.00000  Uiso   1.00
N251   N     0.51949   0.33037   0.29107   0.00000  Uiso   1.00
N252   N     0.76305   0.08076   0.05157   0.00000  Uiso   1.00
O253   O     0.54581   0.20419   0.20487   0.00000  Uiso   1.00
O254   O     0.70420   0.04581   0.12846   0.00000  Uiso   1.00
O255   O     0.70420   0.04581   0.20487   0.00000  Uiso   1.00
O256   O     0.79581   0.45419   0.12846   0.00000  Uiso   1.00
O257   O     0.70420   0.45419   0.12846   0.00000  Uiso   1.00
O258   O     0.79581   0.04581   0.20487   0.00000  Uiso   1.00
O259   O     0.79581   0.04581   0.12846   0.00000  Uiso   1.00
O260   O     0.70420   0.45419   0.20487   0.00000  Uiso   1.00
O261   O     0.95420   0.29581   0.12846   0.00000  Uiso   1.00
O262   O     0.95420   0.29581   0.20487   0.00000  Uiso   1.00
O263   O     0.54581   0.20419   0.12846   0.00000  Uiso   1.00
O264   O     0.95420   0.20419   0.12846   0.00000  Uiso   1.00
O265   O     0.54581   0.29581   0.20487   0.00000  Uiso   1.00
O266   O     0.54581   0.29581   0.12846   0.00000  Uiso   1.00
O267   O     0.95420   0.20419   0.20487   0.00000  Uiso   1.00
O268   O     0.79581   0.45419   0.20487   0.00000  Uiso   1.00
Zn269  Zn    0.50000   0.25000   0.21771   0.00000  Uiso   1.00
Zn270  Zn    0.50000   0.25000   0.11563   0.00000  Uiso   1.00
Zn271  Zn    0.75000   0.00000   0.21771   0.00000  Uiso   1.00
Zn272  Zn    0.75000   0.00000   0.11563   0.00000  Uiso   1.00
C273   C     0.06009   0.69030   0.16615   0.00000  Uiso   1.00
C274   C     0.49380   0.71059   0.30731   0.00000  Uiso   1.00
C275   C     0.49477   0.71015   0.02188   0.00000  Uiso   1.00
C276   C     0.00744   0.78920   0.31149   0.00000  Uiso   1.00
C277   C     0.25686   0.53929   0.02578   0.00000  Uiso   1.00
C278   C     0.24262   0.96075   0.30823   0.00000  Uiso   1.00
C279   C     0.24245   0.96089   0.02228   0.00000  Uiso   1.00
C280   C     0.25772   0.53925   0.31132   0.00000  Uiso   1.00
C281   C     0.41488   0.61378   0.14689   0.00000  Uiso   1.00
C282   C     0.08628   0.88511   0.18923   0.00000  Uiso   1.00
C283   C     0.13179   0.83194   0.14552   0.00000  Uiso   1.00
C284   C     0.43990   0.80980   0.16733   0.00000  Uiso   1.00
C285   C     0.36744   0.66908   0.18537   0.00000  Uiso   1.00
C286   C     0.12804   0.66321   0.19545   0.00000  Uiso   1.00
C287   C     0.37252   0.83632   0.13683   0.00000  Uiso   1.00
C288   C     0.40650   0.87940   0.19942   0.00000  Uiso   1.00
C289   C     0.08991   0.61880   0.13652   0.00000  Uiso   1.00
C290   C     0.16431   0.86465   0.14486   0.00000  Uiso   1.00
C291   C     0.33492   0.63639   0.18637   0.00000  Uiso   1.00
C292   C     0.38240   0.58108   0.14797   0.00000  Uiso   1.00
C293   C     0.11850   0.91762   0.18879   0.00000  Uiso   1.00
C294   C     0.37603   0.91283   0.19652   0.00000  Uiso   1.00
C295   C     0.44036   0.68994   0.16624   0.00000  Uiso   1.00
C296   C     0.11971   0.58409   0.13917   0.00000  Uiso   1.00
C297   C     0.15916   0.63005   0.19637   0.00000  Uiso   1.00
C298   C     0.34082   0.86928   0.13517   0.00000  Uiso   1.00
C299   C     0.09325   0.84277   0.16773   0.00000  Uiso   1.00
C300   C     0.40684   0.65719   0.16557   0.00000  Uiso   1.00
C301   C     0.40559   0.84196   0.16851   0.00000  Uiso   1.00
C302   C     0.09352   0.65735   0.16544   0.00000  Uiso   1.00
C303   C     0.34301   0.59295   0.16777   0.00000  Uiso   1.00
C304   C     0.15699   0.90718   0.16601   0.00000  Uiso   1.00
C305   C     0.15516   0.59094   0.16821   0.00000  Uiso   1.00
C306   C     0.05966   0.81005   0.16709   0.00000  Uiso   1.00
C307   C     0.34300   0.90715   0.16513   0.00000  Uiso   1.00
C308   C     0.30954   0.93982   0.16603   0.00000  Uiso   1.00
C309   C     0.18953   0.55919   0.16721   0.00000  Uiso   1.00
C310   C     0.19035   0.94000   0.16632   0.00000  Uiso   1.00
C311   C     0.30954   0.56015   0.16710   0.00000  Uiso   1.00
C312   C     0.00581   0.78940   0.02586   0.00000  Uiso   1.00
H313   H     0.04107   0.84504   0.04405   0.00000  Uiso   1.00
H314   H     0.23943   0.60368   0.04244   0.00000  Uiso   1.00
H315   H     0.20166   0.91849   0.27405   0.00000  Uiso   1.00
H316   H     0.25474   0.91351   0.25806   0.00000  Uiso   1.00
H317   H     0.25164   0.91608   0.07060   0.00000  Uiso   1.00
H318   H     0.19980   0.92127   0.05349   0.00000  Uiso   1.00
H319   H     0.24776   0.58436   0.26342   0.00000  Uiso   1.00
H320   H     0.29985   0.57923   0.27968   0.00000  Uiso   1.00
H321   H     0.46929   0.57660   0.14635   0.00000  Uiso   1.00
H322   H     0.45273   0.59213   0.09501   0.00000  Uiso   1.00
H323   H     0.03269   0.92319   0.19465   0.00000  Uiso   1.00
H324   H     0.48725   0.85350   0.04209   0.00000  Uiso   1.00
H325   H     0.05159   0.90500   0.24386   0.00000  Uiso   1.00
H326   H     0.16407   0.77227   0.13873   0.00000  Uiso   1.00
H327   H     0.14347   0.79135   0.09035   0.00000  Uiso   1.00
H328   H     0.33526   0.72894   0.18684   0.00000  Uiso   1.00
H329   H     0.35307   0.71275   0.23752   0.00000  Uiso   1.00
H330   H     0.12977   0.73226   0.20482   0.00000  Uiso   1.00
H331   H     0.11024   0.70348   0.24935   0.00000  Uiso   1.00
H332   H     0.37109   0.80619   0.07436   0.00000  Uiso   1.00
H333   H     0.34225   0.77851   0.11374   0.00000  Uiso   1.00
H334   H     0.43376   0.85952   0.25656   0.00000  Uiso   1.00
H335   H     0.01343   0.64791   0.28602   0.00000  Uiso   1.00
H336   H     0.46840   0.88238   0.21832   0.00000  Uiso   1.00
H337   H     0.06914   0.61071   0.07268   0.00000  Uiso   1.00
H338   H     0.03746   0.58576   0.11098   0.00000  Uiso   1.00
H339   H     0.21890   0.82771   0.14173   0.00000  Uiso   1.00
H340   H     0.20075   0.84413   0.09139   0.00000  Uiso   1.00
H341   H     0.28047   0.67348   0.18635   0.00000  Uiso   1.00
H342   H     0.29680   0.65846   0.23790   0.00000  Uiso   1.00
H343   H     0.41458   0.52121   0.14659   0.00000  Uiso   1.00
H344   H     0.39685   0.53736   0.09586   0.00000  Uiso   1.00
H345   H     0.11754   0.98679   0.18906   0.00000  Uiso   1.00
H346   H     0.45920   0.65360   0.29164   0.00000  Uiso   1.00
H347   H     0.13213   0.96470   0.23851   0.00000  Uiso   1.00
H348   H     0.40854   0.96907   0.21955   0.00000  Uiso   1.00
H349   H     0.37739   0.94384   0.25847   0.00000  Uiso   1.00
H350   H     0.13472   0.51738   0.11893   0.00000  Uiso   1.00
H351   H     0.08332   0.52861   0.12259   0.00000  Uiso   1.00
H352   H     0.18413   0.63858   0.25854   0.00000  Uiso   1.00
H353   H     0.21015   0.66746   0.21862   0.00000  Uiso   1.00
H354   H     0.31878   0.86339   0.07143   0.00000  Uiso   1.00
H355   H     0.29028   0.83335   0.10900   0.00000  Uiso   1.00
H356   H     0.49825   0.67069   0.07575   0.00000  Uiso   1.00
H357   H     0.01220   0.64495   0.02870   0.00000  Uiso   1.00
H358   H     0.00140   0.83306   0.26228   0.00000  Uiso   1.00
H359   H     0.05189   0.82771   0.28198   0.00000  Uiso   1.00
H360   H     0.29315   0.59434   0.04338   0.00000  Uiso   1.00
N361   N     0.00000   0.75000   0.28573   0.00000  Uiso   1.00
N362   N     0.23354   0.91847   0.28485   0.00000  Uiso   1.00
N363   N     0.23186   0.91940   0.04302   0.00000  Uiso   1.00
N364   N     0.26795   0.58090   0.29068   0.00000  Uiso   1.00
N365   N     0.45641   0.60309   0.12850   0.00000  Uiso   1.00
N366   N     0.04591   0.89539   0.21031   0.00000  Uiso   1.00
N367   N     0.13749   0.78765   0.12450   0.00000  Uiso   1.00
N368   N     0.36090   0.71442   0.20354   0.00000  Uiso   1.00
N369   N     0.13334   0.70346   0.22382   0.00000  Uiso   1.00
N370   N     0.37077   0.79635   0.10763   0.00000  Uiso   1.00
N371   N     0.43836   0.88497   0.23355   0.00000  Uiso   1.00
N372   N     0.00000   0.75000   0.04760   0.00000  Uiso   1.00
N373   N     0.05557   0.61483   0.10468   0.00000  Uiso   1.00
N374   N     0.20536   0.85454   0.12489   0.00000  Uiso   1.00
N375   N     0.29329   0.64716   0.20449   0.00000  Uiso   1.00
N376   N     0.38897   0.53572   0.12984   0.00000  Uiso   1.00
N377   N     0.11128   0.96098   0.21125   0.00000  Uiso   1.00
N378   N     0.37883   0.95324   0.22506   0.00000  Uiso   1.00
N379   N     0.11265   0.54263   0.11251   0.00000  Uiso   1.00
N380   N     0.19545   0.63643   0.22549   0.00000  Uiso   1.00
N381   N     0.30607   0.86419   0.10392   0.00000  Uiso   1.00
N382   N     0.25000   0.50000   0.28573   0.00000  Uiso   1.00
N383   N     0.25000   0.50000   0.04760   0.00000  Uiso   1.00
N384   N     0.01103   0.83099   0.05170   0.00000  Uiso   1.00
N385   N     0.48749   0.66944   0.28098   0.00000  Uiso   1.00
N386   N     0.48941   0.66731   0.04252   0.00000  Uiso   1.00
N387   N     0.01949   0.83037   0.29107   0.00000  Uiso   1.00
N388   N     0.26305   0.58076   0.05157   0.00000  Uiso   1.00
O389   O     0.04581   0.70419   0.20487   0.00000  Uiso   1.00
O390   O     0.20420   0.54581   0.12846   0.00000  Uiso   1.00
O391   O     0.20420   0.54581   0.20487   0.00000  Uiso   1.00
O392   O     0.29581   0.95419   0.12846   0.00000  Uiso   1.00
O393   O     0.20420   0.95419   0.12846   0.00000  Uiso   1.00
O394   O     0.29581   0.54581   0.20487   0.00000  Uiso   1.00
O395   O     0.29581   0.54581   0.12846   0.00000  Uiso   1.00
O396   O     0.20420   0.95419   0.20487   0.00000  Uiso   1.00
O397   O     0.45420   0.79581   0.12846   0.00000  Uiso   1.00
O398   O     0.45420   0.79581   0.20487   0.00000  Uiso   1.00
O399   O     0.04581   0.70419   0.12846   0.00000  Uiso   1.00
O400   O     0.45420   0.70419   0.12846   0.00000  Uiso   1.00
O401   O     0.04581   0.79581   0.20487   0.00000  Uiso   1.00
O402   O     0.04581   0.79581   0.12846   0.00000  Uiso   1.00
O403   O     0.45420   0.70419   0.20487   0.00000  Uiso   1.00
O404   O     0.29581   0.95419   0.20487   0.00000  Uiso   1.00
Zn405  Zn    0.00000   0.75000   0.21771   0.00000  Uiso   1.00
Zn406  Zn    0.00000   0.75000   0.11563   0.00000  Uiso   1.00
Zn407  Zn    0.25000   0.50000   0.21771   0.00000  Uiso   1.00
Zn408  Zn    0.25000   0.50000   0.11563   0.00000  Uiso   1.00
C409   C     0.56009   0.69030   0.16615   0.00000  Uiso   1.00
C410   C     0.99380   0.71059   0.30731   0.00000  Uiso   1.00
C411   C     0.99477   0.71015   0.02188   0.00000  Uiso   1.00
C412   C     0.50744   0.78920   0.31149   0.00000  Uiso   1.00
C413   C     0.75686   0.53929   0.02578   0.00000  Uiso   1.00
C414   C     0.74262   0.96075   0.30823   0.00000  Uiso   1.00
C415   C     0.74245   0.96089   0.02228   0.00000  Uiso   1.00
C416   C     0.75772   0.53925   0.31132   0.00000  Uiso   1.00
C417   C     0.91488   0.61378   0.14689   0.00000  Uiso   1.00
C418   C     0.58628   0.88511   0.18923   0.00000  Uiso   1.00
C419   C     0.63179   0.83194   0.14552   0.00000  Uiso   1.00
C420   C     0.93990   0.80980   0.16733   0.00000  Uiso   1.00
C421   C     0.86744   0.66908   0.18537   0.00000  Uiso   1.00
C422   C     0.62804   0.66321   0.19545   0.00000  Uiso   1.00
C423   C     0.87252   0.83632   0.13683   0.00000  Uiso   1.00
C424   C     0.90650   0.87940   0.19942   0.00000  Uiso   1.00
C425   C     0.58991   0.61880   0.13652   0.00000  Uiso   1.00
C426   C     0.66431   0.86465   0.14486   0.00000  Uiso   1.00
C427   C     0.83492   0.63639   0.18637   0.00000  Uiso   1.00
C428   C     0.88240   0.58108   0.14797   0.00000  Uiso   1.00
C429   C     0.61850   0.91762   0.18879   0.00000  Uiso   1.00
C430   C     0.87603   0.91283   0.19652   0.00000  Uiso   1.00
C431   C     0.94036   0.68994   0.16624   0.00000  Uiso   1.00
C432   C     0.61971   0.58409   0.13917   0.00000  Uiso   1.00
C433   C     0.65916   0.63005   0.19637   0.00000  Uiso   1.00
C434   C     0.84082   0.86928   0.13517   0.00000  Uiso   1.00
C435   C     0.59325   0.84277   0.16773   0.00000  Uiso   1.00
C436   C     0.90684   0.65719   0.16557   0.00000  Uiso   1.00
C437   C     0.90559   0.84196   0.16851   0.00000  Uiso   1.00
C438   C     0.59352   0.65735   0.16544   0.00000  Uiso   1.00
C439   C     0.84301   0.59295   0.16777   0.00000  Uiso   1.00
C440   C     0.65699   0.90718   0.16601   0.00000  Uiso   1.00
C441   C     0.65516   0.59094   0.16821   0.00000  Uiso   1.00
C442   C     0.55966   0.81005   0.16709   0.00000  Uiso   1.00
C443   C     0.84300   0.90715   0.16513   0.00000  Uiso   1.00
C444   C     0.80954   0.93982   0.16603   0.00000  Uiso   1.00
C445   C     0.68953   0.55919   0.16721   0.00000  Uiso   1.00
C446   C     0.69035   0.94000   0.16632   0.00000  Uiso   1.00
C447   C     0.80954   0.56015   0.16710   0.00000  Uiso   1.00
C448   C     0.50581   0.78940   0.02586   0.00000  Uiso   1.00
H449   H     0.54107   0.84504   0.04405   0.00000  Uiso   1.00
H450   H     0.73943   0.60368   0.04244   0.00000  Uiso   1.00
H451   H     0.70166   0.91849   0.27405   0.00000  Uiso   1.00
H452   H     0.75474   0.91351   0.25806   0.00000  Uiso   1.00
H453   H     0.75164   0.91608   0.07060   0.00000  Uiso   1.00
H454   H     0.69980   0.92127   0.05349   0.00000  Uiso   1.00
H455   H     0.74776   0.58436   0.26342   0.00000  Uiso   1.00
H456   H     0.79985   0.57923   0.27968   0.00000  Uiso   1.00
H457   H     0.96929   0.57660   0.14635   0.00000  Uiso   1.00
H458   H     0.95273   0.59213   0.09501   0.00000  Uiso   1.00
H459   H     0.53269   0.92319   0.19465   0.00000  Uiso   1.00
H460   H     0.98725   0.85350   0.04209   0.00000  Uiso   1.00
H461   H     0.55159   0.90500   0.24386   0.00000  Uiso   1.00
H462   H     0.66407   0.77227   0.13873   0.00000  Uiso   1.00
H463   H     0.64347   0.79135   0.09035   0.00000  Uiso   1.00
H464   H     0.83526   0.72894   0.18684   0.00000  Uiso   1.00
H465   H     0.85307   0.71275   0.23752   0.00000  Uiso   1.00
H466   H     0.62977   0.73226   0.20482   0.00000  Uiso   1.00
H467   H     0.61024   0.70348   0.24935   0.00000  Uiso   1.00
H468   H     0.87109   0.80619   0.07436   0.00000  Uiso   1.00
H469   H     0.84225   0.77851   0.11374   0.00000  Uiso   1.00
H470   H     0.93376   0.85952   0.25656   0.00000  Uiso   1.00
H471   H     0.51343   0.64791   0.28602   0.00000  Uiso   1.00
H472   H     0.96840   0.88238   0.21832   0.00000  Uiso   1.00
H473   H     0.56914   0.61071   0.07268   0.00000  Uiso   1.00
H474   H     0.53746   0.58576   0.11098   0.00000  Uiso   1.00
H475   H     0.71890   0.82771   0.14173   0.00000  Uiso   1.00
H476   H     0.70075   0.84413   0.09139   0.00000  Uiso   1.00
H477   H     0.78047   0.67348   0.18635   0.00000  Uiso   1.00
H478   H     0.79680   0.65846   0.23790   0.00000  Uiso   1.00
H479   H     0.91458   0.52121   0.14659   0.00000  Uiso   1.00
H480   H     0.89685   0.53736   0.09586   0.00000  Uiso   1.00
H481   H     0.61754   0.98679   0.18906   0.00000  Uiso   1.00
H482   H     0.95920   0.65360   0.29164   0.00000  Uiso   1.00
H483   H     0.63213   0.96470   0.23851   0.00000  Uiso   1.00
H484   H     0.90854   0.96907   0.21955   0.00000  Uiso   1.00
H485   H     0.87739   0.94384   0.25847   0.00000  Uiso   1.00
H486   H     0.63472   0.51738   0.11893   0.00000  Uiso   1.00
H487   H     0.58332   0.52861   0.12259   0.00000  Uiso   1.00
H488   H     0.68413   0.63858   0.25854   0.00000  Uiso   1.00
H489   H     0.71015   0.66746   0.21862   0.00000  Uiso   1.00
H490   H     0.81878   0.86339   0.07143   0.00000  Uiso   1.00
H491   H     0.79028   0.83335   0.10900   0.00000  Uiso   1.00
H492   H     0.99825   0.67069   0.07575   0.00000  Uiso   1.00
H493   H     0.51220   0.64495   0.02870   0.00000  Uiso   1.00
H494   H     0.50140   0.83306   0.26228   0.00000  Uiso   1.00
H495   H     0.55189   0.82771   0.28198   0.00000  Uiso   1.00
H496   H     0.79315   0.59434   0.04338   0.00000  Uiso   1.00
N497   N     0.50000   0.75000   0.28573   0.00000  Uiso   1.00
N498   N     0.73354   0.91847   0.28485   0.00000  Uiso   1.00
N499   N     0.73186   0.91940   0.04302   0.00000  Uiso   1.00
N500   N     0.76795   0.58090   0.29068   0.00000  Uiso   1.00
N501   N     0.95641   0.60309   0.12850   0.00000  Uiso   1.00
N502   N     0.54591   0.89539   0.21031   0.00000  Uiso   1.00
N503   N     0.63749   0.78765   0.12450   0.00000  Uiso   1.00
N504   N     0.86090   0.71442   0.20354   0.00000  Uiso   1.00
N505   N     0.63334   0.70346   0.22382   0.00000  Uiso   1.00
N506   N     0.87077   0.79635   0.10763   0.00000  Uiso   1.00
N507   N     0.93836   0.88497   0.23355   0.00000  Uiso   1.00
N508   N     0.50000   0.75000   0.04760   0.00000  Uiso   1.00
N509   N     0.55557   0.61483   0.10468   0.00000  Uiso   1.00
N510   N     0.70536   0.85454   0.12489   0.00000  Uiso   1.00
N511   N     0.79329   0.64716   0.20449   0.00000  Uiso   1.00
N512   N     0.88897   0.53572   0.12984   0.00000  Uiso   1.00
N513   N     0.61128   0.96098   0.21125   0.00000  Uiso   1.00
N514   N     0.87883   0.95324   0.22506   0.00000  Uiso   1.00
N515   N     0.61265   0.54263   0.11251   0.00000  Uiso   1.00
N516   N     0.69545   0.63643   0.22549   0.00000  Uiso   1.00
N517   N     0.80607   0.86419   0.10392   0.00000  Uiso   1.00
N518   N     0.75000   0.50000   0.28573   0.00000  Uiso   1.00
N519   N     0.75000   0.50000   0.04760   0.00000  Uiso   1.00
N520   N     0.51103   0.83099   0.05170   0.00000  Uiso   1.00
N521   N     0.98749   0.66944   0.28098   0.00000  Uiso   1.00
N522   N     0.98941   0.66731   0.04252   0.00000  Uiso   1.00
N523   N     0.51949   0.83037   0.29107   0.00000  Uiso   1.00
N524   N     0.76305   0.58076   0.05157   0.00000  Uiso   1.00
O525   O     0.54581   0.70419   0.20487   0.00000  Uiso   1.00
O526   O     0.70420   0.54581   0.12846   0.00000  Uiso   1.00
O527   O     0.70420   0.54581   0.20487   0.00000  Uiso   1.00
O528   O     0.79581   0.95419   0.12846   0.00000  Uiso   1.00
O529   O     0.70420   0.95419   0.12846   0.00000  Uiso   1.00
O530   O     0.79581   0.54581   0.20487   0.00000  Uiso   1.00
O531   O     0.79581   0.54581   0.12846   0.00000  Uiso   1.00
O532   O     0.70420   0.95419   0.20487   0.00000  Uiso   1.00
O533   O     0.95420   0.79581   0.12846   0.00000  Uiso   1.00
O534   O     0.95420   0.79581   0.20487   0.00000  Uiso   1.00
O535   O     0.54581   0.70419   0.12846   0.00000  Uiso   1.00
O536   O     0.95420   0.70419   0.12846   0.00000  Uiso   1.00
O537   O     0.54581   0.79581   0.20487   0.00000  Uiso   1.00
O538   O     0.54581   0.79581   0.12846   0.00000  Uiso   1.00
O539   O     0.95420   0.70419   0.20487   0.00000  Uiso   1.00
O540   O     0.79581   0.95419   0.20487   0.00000  Uiso   1.00
Zn541  Zn    0.50000   0.75000   0.21771   0.00000  Uiso   1.00
Zn542  Zn    0.50000   0.75000   0.11563   0.00000  Uiso   1.00
Zn543  Zn    0.75000   0.50000   0.21771   0.00000  Uiso   1.00
Zn544  Zn    0.75000   0.50000   0.11563   0.00000  Uiso   1.00
C545   C     0.06009   0.19030   0.49948   0.00000  Uiso   1.00
C546   C     0.49380   0.21059   0.64064   0.00000  Uiso   1.00
C547   C     0.49477   0.21015   0.35521   0.00000  Uiso   1.00
C548   C     0.00744   0.28920   0.64482   0.00000  Uiso   1.00
C549   C     0.25686   0.03929   0.35911   0.00000  Uiso   1.00
C550   C     0.24262   0.46075   0.64157   0.00000  Uiso   1.00
C551   C     0.24245   0.46089   0.35561   0.00000  Uiso   1.00
C552   C     0.25772   0.03925   0.64465   0.00000  Uiso   1.00
C553   C     0.41488   0.11378   0.48022   0.00000  Uiso   1.00
C554   C     0.08628   0.38511   0.52256   0.00000  Uiso   1.00
C555   C     0.13179   0.33194   0.47885   0.00000  Uiso   1.00
C556   C     0.43990   0.30980   0.50066   0.00000  Uiso   1.00
C557   C     0.36744   0.16908   0.51870   0.00000  Uiso   1.00
C558   C     0.12804   0.16321   0.52878   0.00000  Uiso   1.00
C559   C     0.37252   0.33632   0.47017   0.00000  Uiso   1.00
C560   C     0.40650   0.37940   0.53275   0.00000  Uiso   1.00
C561   C     0.08991   0.11880   0.46985   0.00000  Uiso   1.00
C562   C     0.16431   0.36465   0.47820   0.00000  Uiso   1.00
C563   C     0.33492   0.13639   0.51970   0.00000  Uiso   1.00
C564   C     0.38240   0.08108   0.48130   0.00000  Uiso   1.00
C565   C     0.11850   0.41762   0.52212   0.00000  Uiso   1.00
C566   C     0.37603   0.41283   0.52985   0.00000  Uiso   1.00
C567   C     0.44036   0.18994   0.49957   0.00000  Uiso   1.00
C568   C     0.11971   0.08409   0.47251   0.00000  Uiso   1.00
C569   C     0.15916   0.13005   0.52970   0.00000  Uiso   1.00
C570   C     0.34082   0.36928   0.46851   0.00000  Uiso   1.00
C571   C     0.09325   0.34277   0.50107   0.00000  Uiso   1.00
C572   C     0.40684   0.15719   0.49890   0.00000  Uiso   1.00
C573   C     0.40559   0.34196   0.50185   0.00000  Uiso   1.00
C574   C     0.09352   0.15735   0.49877   0.00000  Uiso   1.00
C575   C     0.34301   0.09295   0.50111   0.00000  Uiso   1.00
C576   C     0.15699   0.40718   0.49935   0.00000  Uiso   1.00
C577   C     0.15516   0.09094   0.50154   0.00000  Uiso   1.00
C578   C     0.05966   0.31005   0.50042   0.00000  Uiso   1.00
C579   C     0.34300   0.40715   0.49846   0.00000  Uiso   1.00
C580   C     0.30954   0.43982   0.49937   0.00000  Uiso   1.00
C581   C     0.18953   0.05919   0.50054   0.00000  Uiso   1.00
C582   C     0.19035   0.44000   0.49965   0.00000  Uiso   1.00
C583   C     0.30954   0.06015   0.50044   0.00000  Uiso   1.00
C584   C     0.00581   0.28940   0.35919   0.00000  Uiso   1.00
H585   H     0.04107   0.34504   0.37739   0.00000  Uiso   1.00
H586   H     0.23943   0.10368   0.37577   0.00000  Uiso   1.00
H587   H     0.20166   0.41849   0.60738   0.00000  Uiso   1.00
H588   H     0.25474   0.41351   0.59140   0.00000  Uiso   1.00
H589   H     0.25164   0.41608   0.40393   0.00000  Uiso   1.00
H590   H     0.19980   0.42127   0.38682   0.00000  Uiso   1.00
H591   H     0.24776   0.08436   0.59675   0.00000  Uiso   1.00
H592   H     0.29985   0.07923   0.61302   0.00000  Uiso   1.00
H593   H     0.46929   0.07660   0.47969   0.00000  Uiso   1.00
H594   H     0.45273   0.09213   0.42834   0.00000  Uiso   1.00
H595   H     0.03269   0.42319   0.52799   0.00000  Uiso   1.00
H596   H     0.48725   0.35350   0.37542   0.00000  Uiso   1.00
H597   H     0.05159   0.40500   0.57720   0.00000  Uiso   1.00
H598   H     0.16407   0.27227   0.47207   0.00000  Uiso   1.00
H599   H     0.14347   0.29135   0.42369   0.00000  Uiso   1.00
H600   H     0.33526   0.22894   0.52017   0.00000  Uiso   1.00
H601   H     0.35307   0.21275   0.57085   0.00000  Uiso   1.00
H602   H     0.12977   0.23226   0.53815   0.00000  Uiso   1.00
H603   H     0.11024   0.20348   0.58269   0.00000  Uiso   1.00
H604   H     0.37109   0.30619   0.40769   0.00000  Uiso   1.00
H605   H     0.34225   0.27851   0.44707   0.00000  Uiso   1.00
H606   H     0.43376   0.35952   0.58990   0.00000  Uiso   1.00
H607   H     0.01343   0.14791   0.61935   0.00000  Uiso   1.00
H608   H     0.46840   0.38238   0.55165   0.00000  Uiso   1.00
H609   H     0.06914   0.11071   0.40602   0.00000  Uiso   1.00
H610   H     0.03746   0.08576   0.44431   0.00000  Uiso   1.00
H611   H     0.21890   0.32771   0.47506   0.00000  Uiso   1.00
H612   H     0.20075   0.34413   0.42472   0.00000  Uiso   1.00
H613   H     0.28047   0.17348   0.51968   0.00000  Uiso   1.00
H614   H     0.29680   0.15846   0.57123   0.00000  Uiso   1.00
H615   H     0.41458   0.02121   0.47993   0.00000  Uiso   1.00
H616   H     0.39685   0.03736   0.42920   0.00000  Uiso   1.00
H617   H     0.11754   0.48679   0.52239   0.00000  Uiso   1.00
H618   H     0.45920   0.15360   0.62498   0.00000  Uiso   1.00
H619   H     0.13213   0.46470   0.57184   0.00000  Uiso   1.00
H620   H     0.40854   0.46907   0.55288   0.00000  Uiso   1.00
H621   H     0.37739   0.44384   0.59180   0.00000  Uiso   1.00
H622   H     0.13472   0.01738   0.45226   0.00000  Uiso   1.00
H623   H     0.08332   0.02861   0.45592   0.00000  Uiso   1.00
H624   H     0.18413   0.13858   0.59187   0.00000  Uiso   1.00
H625   H     0.21015   0.16746   0.55195   0.00000  Uiso   1.00
H626   H     0.31878   0.36339   0.40476   0.00000  Uiso   1.00
H627   H     0.29028   0.33335   0.44234   0.00000  Uiso   1.00
H628   H     0.49825   0.17069   0.40908   0.00000  Uiso   1.00
H629   H     0.01220   0.14495   0.36203   0.00000  Uiso   1.00
H630   H     0.00140   0.33306   0.59561   0.00000  Uiso   1.00
H631   H     0.05189   0.32771   0.61531   0.00000  Uiso   1.00
H632   H     0.29315   0.09434   0.37671   0.00000  Uiso   1.00
N633   N     0.00000   0.25000   0.61907   0.00000  Uiso   1.00
N634   N     0.23354   0.41847   0.61818   0.00000  Uiso   1.00
N635   N     0.23186   0.41940   0.37635   0.00000  Uiso   1.00
N636   N     0.26795   0.08090   0.62401   0.00000  Uiso   1.00
N637   N     0.45641   0.10309   0.46183   0.00000  Uiso   1.00
N638   N     0.04591   0.39539   0.54365   0.00000  Uiso   1.00
N639   N     0.13749   0.28765   0.45784   0.00000  Uiso   1.00
N640   N     0.36090   0.21442   0.53687   0.00000  Uiso   1.00
N641   N     0.13334   0.20346   0.55716   0.00000  Uiso   1.00
N642   N     0.37077   0.29635   0.44096   0.00000  Uiso   1.00
N643   N     0.43836   0.38497   0.56688   0.00000  Uiso   1.00
N644   N     0.00000   0.25000   0.38093   0.00000  Uiso   1.00
N645   N     0.05557   0.11483   0.43801   0.00000  Uiso   1.00
N646   N     0.20536   0.35454   0.45822   0.00000  Uiso   1.00
N647   N     0.29329   0.14716   0.53782   0.00000  Uiso   1.00
N648   N     0.38897   0.03572   0.46317   0.00000  Uiso   1.00
N649   N     0.11128   0.46098   0.54458   0.00000  Uiso   1.00
N650   N     0.37883   0.45324   0.55840   0.00000  Uiso   1.00
N651   N     0.11265   0.04263   0.44584   0.00000  Uiso   1.00
N652   N     0.19545   0.13643   0.55882   0.00000  Uiso   1.00
N653   N     0.30607   0.36419   0.43726   0.00000  Uiso   1.00
N654   N     0.25000   0.00000   0.61907   0.00000  Uiso   1.00
N655   N     0.25000   0.00000   0.38093   0.00000  Uiso   1.00
N656   N     0.01103   0.33099   0.38504   0.00000  Uiso   1.00
N657   N     0.48749   0.16944   0.61431   0.00000  Uiso   1.00
N658   N     0.48941   0.16731   0.37585   0.00000  Uiso   1.00
N659   N     0.01949   0.33037   0.62440   0.00000  Uiso   1.00
N660   N     0.26305   0.08076   0.38491   0.00000  Uiso   1.00
O661   O     0.04581   0.20419   0.53821   0.00000  Uiso   1.00
O662   O     0.20420   0.04581   0.46179   0.00000  Uiso   1.00
O663   O     0.20420   0.04581   0.53821   0.00000  Uiso   1.00
O664   O     0.29581   0.45419   0.46179   0.00000  Uiso   1.00
O665   O     0.20420   0.45419   0.46179   0.00000  Uiso   1.00
O666   O     0.29581   0.04581   0.53821   0.00000  Uiso   1.00
O667   O     0.29581   0.04581   0.46179   0.00000  Uiso   1.00
O668   O     0.20420   0.45419   0.53821   0.00000  Uiso   1.00
O669   O     0.45420   0.29581   0.46179   0.00000  Uiso   1.00
O670   O     0.45420   0.29581   0.53821   0.00000  Uiso   1.00
O671   O     0.04581   0.20419   0.46179   0.00000  Uiso   1.00
O672   O     0.45420   0.20419   0.46179   0.00000  Uiso   1.00
O673   O     0.04581   0.29581   0.53821   0.00000  Uiso   1.00
O674   O     0.04581   0.29581   0.46179   0.00000  Uiso   1.00
O675   O     0.45420   0.20419   0.53821   0.00000  Uiso   1.00
O676   O     0.29581   0.45419   0.53821   0.00000  Uiso   1.00
Zn677  Zn    0.00000   0.25000   0.55104   0.00000  Uiso   1.00
Zn678  Zn    0.00000   0.25000   0.44896   0.00000  Uiso   1.00
Zn679  Zn    0.25000   0.00000   0.55104   0.00000  Uiso   1.00
Zn680  Zn    0.25000   0.00000   0.44896   0.00000  Uiso   1.00
C681   C     0.56009   0.19030   0.49948   0.00000  Uiso   1.00
C682   C     0.99380   0.21059   0.64064   0.00000  Uiso   1.00
C683   C     0.99477   0.21015   0.35521   0.00000  Uiso   1.00
C684   C     0.50744   0.28920   0.64482   0.00000  Uiso   1.00
C685   C     0.75686   0.03929   0.35911   0.00000  Uiso   1.00
C686   C     0.74262   0.46075   0.64157   0.00000  Uiso   1.00
C687   C     0.74245   0.46089   0.35561   0.00000  Uiso   1.00
C688   C     0.75772   0.03925   0.64465   0.00000  Uiso   1.00
C689   C     0.91488   0.11378   0.48022   0.00000  Uiso   1.00
C690   C     0.58628   0.38511   0.52256   0.00000  Uiso   1.00
C691   C     0.63179   0.33194   0.47885   0.00000  Uiso   1.00
C692   C     0.93990   0.30980   0.50066   0.00000  Uiso   1.00
C693   C     0.86744   0.16908   0.51870   0.00000  Uiso   1.00
C694   C     0.62804   0.16321   0.52878   0.00000  Uiso   1.00
C695   C     0.87252   0.33632   0.47017   0.00000  Uiso   1.00
C696   C     0.90650   0.37940   0.53275   0.00000  Uiso   1.00
C697   C     0.58991   0.11880   0.46985   0.00000  Uiso   1.00
C698   C     0.66431   0.36465   0.47820   0.00000  Uiso   1.00
C699   C     0.83492   0.13639   0.51970   0.00000  Uiso   1.00
C700   C     0.88240   0.08108   0.48130   0.00000  Uiso   1.00
C701   C     0.61850   0.41762   0.52212   0.00000  Uiso   1.00
C702   C     0.87603   0.41283   0.52985   0.00000  Uiso   1.00
C703   C     0.94036   0.18994   0.49957   0.00000  Uiso   1.00
C704   C     0.61971   0.08409   0.47251   0.00000  Uiso   1.00
C705   C     0.65916   0.13005   0.52970   0.00000  Uiso   1.00
C706   C     0.84082   0.36928   0.46851   0.00000  Uiso   1.00
C707   C     0.59325   0.34277   0.50107   0.00000  Uiso   1.00
C708   C     0.90684   0.15719   0.49890   0.00000  Uiso   1.00
C709   C     0.90559   0.34196   0.50185   0.00000  Uiso   1.00
C710   C     0.59352   0.15735   0.49877   0.00000  Uiso   1.00
C711   C     0.84301   0.09295   0.50111   0.00000  Uiso   1.00
C712   C     0.65699   0.40718   0.49935   0.00000  Uiso   1.00
C713   C     0.65516   0.09094   0.50154   0.00000  Uiso   1.00
C714   C     0.55966   0.31005   0.50042   0.00000  Uiso   1.00
C715   C     0.84300   0.40715   0.49846   0.00000  Uiso   1.00
C716   C     0.80954   0.43982   0.49937   0.00000  Uiso   1.00
C717   C     0.68953   0.05919   0.50054   0.00000  Uiso   1.00
C718   C     0.69035   0.44000   0.49965   0.00000  Uiso   1.00
C719   C     0.80954   0.06015   0.50044   0.00000  Uiso   1.00
C720   C     0.50581   0.28940   0.35919   0.00000  Uiso   1.00
H721   H     0.54107   0.34504   0.37739   0.00000  Uiso   1.00
H722   H     0.73943   0.10368   0.37577   0.00000  Uiso   1.00
H723   H     0.70166   0.41849   0.60738   0.00000  Uiso   1.00
H724   H     0.75474   0.41351   0.59140   0.00000  Uiso   1.00
H725   H     0.75164   0.41608   0.40393   0.00000  Uiso   1.00
H726   H     0.69980   0.42127   0.38682   0.00000  Uiso   1.00
H727   H     0.74776   0.08436   0.59675   0.00000  Uiso   1.00
H728   H     0.79985   0.07923   0.61302   0.00000  Uiso   1.00
H729   H     0.96929   0.07660   0.47969   0.00000  Uiso   1.00
H730   H     0.95273   0.09213   0.42834   0.00000  Uiso   1.00
H731   H     0.53269   0.42319   0.52799   0.00000  Uiso   1.00
H732   H     0.98725   0.35350   0.37542   0.00000  Uiso   1.00
H733   H     0.55159   0.40500   0.57720   0.00000  Uiso   1.00
H734   H     0.66407   0.27227   0.47207   0.00000  Uiso   1.00
H735   H     0.64347   0.29135   0.42369   0.00000  Uiso   1.00
H736   H     0.83526   0.22894   0.52017   0.00000  Uiso   1.00
H737   H     0.85307   0.21275   0.57085   0.00000  Uiso   1.00
H738   H     0.62977   0.23226   0.53815   0.00000  Uiso   1.00
H739   H     0.61024   0.20348   0.58269   0.00000  Uiso   1.00
H740   H     0.87109   0.30619   0.40769   0.00000  Uiso   1.00
H741   H     0.84225   0.27851   0.44707   0.00000  Uiso   1.00
H742   H     0.93376   0.35952   0.58990   0.00000  Uiso   1.00
H743   H     0.51343   0.14791   0.61935   0.00000  Uiso   1.00
H744   H     0.96840   0.38238   0.55165   0.00000  Uiso   1.00
H745   H     0.56914   0.11071   0.40602   0.00000  Uiso   1.00
H746   H     0.53746   0.08576   0.44431   0.00000  Uiso   1.00
H747   H     0.71890   0.32771   0.47506   0.00000  Uiso   1.00
H748   H     0.70075   0.34413   0.42472   0.00000  Uiso   1.00
H749   H     0.78047   0.17348   0.51968   0.00000  Uiso   1.00
H750   H     0.79680   0.15846   0.57123   0.00000  Uiso   1.00
H751   H     0.91458   0.02121   0.47993   0.00000  Uiso   1.00
H752   H     0.89685   0.03736   0.42920   0.00000  Uiso   1.00
H753   H     0.61754   0.48679   0.52239   0.00000  Uiso   1.00
H754   H     0.95920   0.15360   0.62498   0.00000  Uiso   1.00
H755   H     0.63213   0.46470   0.57184   0.00000  Uiso   1.00
H756   H     0.90854   0.46907   0.55288   0.00000  Uiso   1.00
H757   H     0.87739   0.44384   0.59180   0.00000  Uiso   1.00
H758   H     0.63472   0.01738   0.45226   0.00000  Uiso   1.00
H759   H     0.58332   0.02861   0.45592   0.00000  Uiso   1.00
H760   H     0.68413   0.13858   0.59187   0.00000  Uiso   1.00
H761   H     0.71015   0.16746   0.55195   0.00000  Uiso   1.00
H762   H     0.81878   0.36339   0.40476   0.00000  Uiso   1.00
H763   H     0.79028   0.33335   0.44234   0.00000  Uiso   1.00
H764   H     0.99825   0.17069   0.40908   0.00000  Uiso   1.00
H765   H     0.51220   0.14495   0.36203   0.00000  Uiso   1.00
H766   H     0.50140   0.33306   0.59561   0.00000  Uiso   1.00
H767   H     0.55189   0.32771   0.61531   0.00000  Uiso   1.00
H768   H     0.79315   0.09434   0.37671   0.00000  Uiso   1.00
N769   N     0.50000   0.25000   0.61907   0.00000  Uiso   1.00
N770   N     0.73354   0.41847   0.61818   0.00000  Uiso   1.00
N771   N     0.73186   0.41940   0.37635   0.00000  Uiso   1.00
N772   N     0.76795   0.08090   0.62401   0.00000  Uiso   1.00
N773   N     0.95641   0.10309   0.46183   0.00000  Uiso   1.00
N774   N     0.54591   0.39539   0.54365   0.00000  Uiso   1.00
N775   N     0.63749   0.28765   0.45784   0.00000  Uiso   1.00
N776   N     0.86090   0.21442   0.53687   0.00000  Uiso   1.00
N777   N     0.63334   0.20346   0.55716   0.00000  Uiso   1.00
N778   N     0.87077   0.29635   0.44096   0.00000  Uiso   1.00
N779   N     0.93836   0.38497   0.56688   0.00000  Uiso   1.00
N780   N     0.50000   0.25000   0.38093   0.00000  Uiso   1.00
N781   N     0.55557   0.11483   0.43801   0.00000  Uiso   1.00
N782   N     0.70536   0.35454   0.45822   0.00000  Uiso   1.00
N783   N     0.79329   0.14716   0.53782   0.00000  Uiso   1.00
N784   N     0.88897   0.03572   0.46317   0.00000  Uiso   1.00
N785   N     0.61128   0.46098   0.54458   0.00000  Uiso   1.00
N786   N     0.87883   0.45324   0.55840   0.00000  Uiso   1.00
N787   N     0.61265   0.04263   0.44584   0.00000  Uiso   1.00
N788   N     0.69545   0.13643   0.55882   0.00000  Uiso   1.00
N789   N     0.80607   0.36419   0.43726   0.00000  Uiso   1.00
N790   N     0.75000   0.00000   0.61907   0.00000  Uiso   1.00
N791   N     0.75000   0.00000   0.38093   0.00000  Uiso   1.00
N792   N     0.51103   0.33099   0.38504   0.00000  Uiso   1.00
N793   N     0.98749   0.16944   0.61431   0.00000  Uiso   1.00
N794   N     0.98941   0.16731   0.37585   0.00000  Uiso   1.00
N795   N     0.51949   0.33037   0.62440   0.00000  Uiso   1.00
N796   N     0.76305   0.08076   0.38491   0.00000  Uiso   1.00
O797   O     0.54581   0.20419   0.53821   0.00000  Uiso   1.00
O798   O     0.70420   0.04581   0.46179   0.00000  Uiso   1.00
O799   O     0.70420   0.04581   0.53821   0.00000  Uiso   1.00
O800   O     0.79581   0.45419   0.46179   0.00000  Uiso   1.00
O801   O     0.70420   0.45419   0.46179   0.00000  Uiso   1.00
O802   O     0.79581   0.04581   0.53821   0.00000  Uiso   1.00
O803   O     0.79581   0.04581   0.46179   0.00000  Uiso   1.00
O804   O     0.70420   0.45419   0.53821   0.00000  Uiso   1.00
O805   O     0.95420   0.29581   0.46179   0.00000  Uiso   1.00
O806   O     0.95420   0.29581   0.53821   0.00000  Uiso   1.00
O807   O     0.54581   0.20419   0.46179   0.00000  Uiso   1.00
O808   O     0.95420   0.20419   0.46179   0.00000  Uiso   1.00
O809   O     0.54581   0.29581   0.53821   0.00000  Uiso   1.00
O810   O     0.54581   0.29581   0.46179   0.00000  Uiso   1.00
O811   O     0.95420   0.20419   0.53821   0.00000  Uiso   1.00
O812   O     0.79581   0.45419   0.53821   0.00000  Uiso   1.00
Zn813  Zn    0.50000   0.25000   0.55104   0.00000  Uiso   1.00
Zn814  Zn    0.50000   0.25000   0.44896   0.00000  Uiso   1.00
Zn815  Zn    0.75000   0.00000   0.55104   0.00000  Uiso   1.00
Zn816  Zn    0.75000   0.00000   0.44896   0.00000  Uiso   1.00
C817   C     0.06009   0.69030   0.49948   0.00000  Uiso   1.00
C818   C     0.49380   0.71059   0.64064   0.00000  Uiso   1.00
C819   C     0.49477   0.71015   0.35521   0.00000  Uiso   1.00
C820   C     0.00744   0.78920   0.64482   0.00000  Uiso   1.00
C821   C     0.25686   0.53929   0.35911   0.00000  Uiso   1.00
C822   C     0.24262   0.96075   0.64157   0.00000  Uiso   1.00
C823   C     0.24245   0.96089   0.35561   0.00000  Uiso   1.00
C824   C     0.25772   0.53925   0.64465   0.00000  Uiso   1.00
C825   C     0.41488   0.61378   0.48022   0.00000  Uiso   1.00
C826   C     0.08628   0.88511   0.52256   0.00000  Uiso   1.00
C827   C     0.13179   0.83194   0.47885   0.00000  Uiso   1.00
C828   C     0.43990   0.80980   0.50066   0.00000  Uiso   1.00
C829   C     0.36744   0.66908   0.51870   0.00000  Uiso   1.00
C830   C     0.12804   0.66321   0.52878   0.00000  Uiso   1.00
C831   C     0.37252   0.83632   0.47017   0.00000  Uiso   1.00
C832   C     0.40650   0.87940   0.53275   0.00000  Uiso   1.00
C833   C     0.08991   0.61880   0.46985   0.00000  Uiso   1.00
C834   C     0.16431   0.86465   0.47820   0.00000  Uiso   1.00
C835   C     0.33492   0.63639   0.51970   0.00000  Uiso   1.00
C836   C     0.38240   0.58108   0.48130   0.00000  Uiso   1.00
C837   C     0.11850   0.91762   0.52212   0.00000  Uiso   1.00
C838   C     0.37603   0.91283   0.52985   0.00000  Uiso   1.00
C839   C     0.44036   0.68994   0.49957   0.00000  Uiso   1.00
C840   C     0.11971   0.58409   0.47251   0.00000  Uiso   1.00
C841   C     0.15916   0.63005   0.52970   0.00000  Uiso   1.00
C842   C     0.34082   0.86928   0.46851   0.00000  Uiso   1.00
C843   C     0.09325   0.84277   0.50107   0.00000  Uiso   1.00
C844   C     0.40684   0.65719   0.49890   0.00000  Uiso   1.00
C845   C     0.40559   0.84196   0.50185   0.00000  Uiso   1.00
C846   C     0.09352   0.65735   0.49877   0.00000  Uiso   1.00
C847   C     0.34301   0.59295   0.50111   0.00000  Uiso   1.00
C848   C     0.15699   0.90718   0.49935   0.00000  Uiso   1.00
C849   C     0.15516   0.59094   0.50154   0.00000  Uiso   1.00
C850   C     0.05966   0.81005   0.50042   0.00000  Uiso   1.00
C851   C     0.34300   0.90715   0.49846   0.00000  Uiso   1.00
C852   C     0.30954   0.93982   0.49937   0.00000  Uiso   1.00
C853   C     0.18953   0.55919   0.50054   0.00000  Uiso   1.00
C854   C     0.19035   0.94000   0.49965   0.00000  Uiso   1.00
C855   C     0.30954   0.56015   0.50044   0.00000  Uiso   1.00
C856   C     0.00581   0.78940   0.35919   0.00000  Uiso   1.00
H857   H     0.04107   0.84504   0.37739   0.00000  Uiso   1.00
H858   H     0.23943   0.60368   0.37577   0.00000  Uiso   1.00
H859   H     0.20166   0.91849   0.60738   0.00000  Uiso   1.00
H860   H     0.25474   0.91351   0.59140   0.00000  Uiso   1.00
H861   H     0.25164   0.91608   0.40393   0.00000  Uiso   1.00
H862   H     0.19980   0.92127   0.38682   0.00000  Uiso   1.00
H863   H     0.24776   0.58436   0.59675   0.00000  Uiso   1.00
H864   H     0.29985   0.57923   0.61302   0.00000  Uiso   1.00
H865   H     0.46929   0.57660   0.47969   0.00000  Uiso   1.00
H866   H     0.45273   0.59213   0.42834   0.00000  Uiso   1.00
H867   H     0.03269   0.92319   0.52799   0.00000  Uiso   1.00
H868   H     0.48725   0.85350   0.37542   0.00000  Uiso   1.00
H869   H     0.05159   0.90500   0.57720   0.00000  Uiso   1.00
H870   H     0.16407   0.77227   0.47207   0.00000  Uiso   1.00
H871   H     0.14347   0.79135   0.42369   0.00000  Uiso   1.00
H872   H     0.33526   0.72894   0.52017   0.00000  Uiso   1.00
H873   H     0.35307   0.71275   0.57085   0.00000  Uiso   1.00
H874   H     0.12977   0.73226   0.53815   0.00000  Uiso   1.00
H875   H     0.11024   0.70348   0.58269   0.00000  Uiso   1.00
H876   H     0.37109   0.80619   0.40769   0.00000  Uiso   1.00
H877   H     0.34225   0.77851   0.44707   0.00000  Uiso   1.00
H878   H     0.43376   0.85952   0.58990   0.00000  Uiso   1.00
H879   H     0.01343   0.64791   0.61935   0.00000  Uiso   1.00
H880   H     0.46840   0.88238   0.55165   0.00000  Uiso   1.00
H881   H     0.06914   0.61071   0.40602   0.00000  Uiso   1.00
H882   H     0.03746   0.58576   0.44431   0.00000  Uiso   1.00
H883   H     0.21890   0.82771   0.47506   0.00000  Uiso   1.00
H884   H     0.20075   0.84413   0.42472   0.00000  Uiso   1.00
H885   H     0.28047   0.67348   0.51968   0.00000  Uiso   1.00
H886   H     0.29680   0.65846   0.57123   0.00000  Uiso   1.00
H887   H     0.41458   0.52121   0.47993   0.00000  Uiso   1.00
H888   H     0.39685   0.53736   0.42920   0.00000  Uiso   1.00
H889   H     0.11754   0.98679   0.52239   0.00000  Uiso   1.00
H890   H     0.45920   0.65360   0.62498   0.00000  Uiso   1.00
H891   H     0.13213   0.96470   0.57184   0.00000  Uiso   1.00
H892   H     0.40854   0.96907   0.55288   0.00000  Uiso   1.00
H893   H     0.37739   0.94384   0.59180   0.00000  Uiso   1.00
H894   H     0.13472   0.51738   0.45226   0.00000  Uiso   1.00
H895   H     0.08332   0.52861   0.45592   0.00000  Uiso   1.00
H896   H     0.18413   0.63858   0.59187   0.00000  Uiso   1.00
H897   H     0.21015   0.66746   0.55195   0.00000  Uiso   1.00
H898   H     0.31878   0.86339   0.40476   0.00000  Uiso   1.00
H899   H     0.29028   0.83335   0.44234   0.00000  Uiso   1.00
H900   H     0.49825   0.67069   0.40908   0.00000  Uiso   1.00
H901   H     0.01220   0.64495   0.36203   0.00000  Uiso   1.00
H902   H     0.00140   0.83306   0.59561   0.00000  Uiso   1.00
H903   H     0.05189   0.82771   0.61531   0.00000  Uiso   1.00
H904   H     0.29315   0.59434   0.37671   0.00000  Uiso   1.00
N905   N     0.00000   0.75000   0.61907   0.00000  Uiso   1.00
N906   N     0.23354   0.91847   0.61818   0.00000  Uiso   1.00
N907   N     0.23186   0.91940   0.37635   0.00000  Uiso   1.00
N908   N     0.26795   0.58090   0.62401   0.00000  Uiso   1.00
N909   N     0.45641   0.60309   0.46183   0.00000  Uiso   1.00
N910   N     0.04591   0.89539   0.54365   0.00000  Uiso   1.00
N911   N     0.13749   0.78765   0.45784   0.00000  Uiso   1.00
N912   N     0.36090   0.71442   0.53687   0.00000  Uiso   1.00
N913   N     0.13334   0.70346   0.55716   0.00000  Uiso   1.00
N914   N     0.37077   0.79635   0.44096   0.00000  Uiso   1.00
N915   N     0.43836   0.88497   0.56688   0.00000  Uiso   1.00
N916   N     0.00000   0.75000   0.38093   0.00000  Uiso   1.00
N917   N     0.05557   0.61483   0.43801   0.00000  Uiso   1.00
N918   N     0.20536   0.85454   0.45822   0.00000  Uiso   1.00
N919   N     0.29329   0.64716   0.53782   0.00000  Uiso   1.00
N920   N     0.38897   0.53572   0.46317   0.00000  Uiso   1.00
N921   N     0.11128   0.96098   0.54458   0.00000  Uiso   1.00
N922   N     0.37883   0.95324   0.55840   0.00000  Uiso   1.00
N923   N     0.11265   0.54263   0.44584   0.00000  Uiso   1.00
N924   N     0.19545   0.63643   0.55882   0.00000  Uiso   1.00
N925   N     0.30607   0.86419   0.43726   0.00000  Uiso   1.00
N926   N     0.25000   0.50000   0.61907   0.00000  Uiso   1.00
N927   N     0.25000   0.50000   0.38093   0.00000  Uiso   1.00
N928   N     0.01103   0.83099   0.38504   0.00000  Uiso   1.00
N929   N     0.48749   0.66944   0.61431   0.00000  Uiso   1.00
N930   N     0.48941   0.66731   0.37585   0.00000  Uiso   1.00
N931   N     0.01949   0.83037   0.62440   0.00000  Uiso   1.00
N932   N     0.26305   0.58076   0.38491   0.00000  Uiso   1.00
O933   O     0.04581   0.70419   0.53821   0.00000  Uiso   1.00
O934   O     0.20420   0.54581   0.46179   0.00000  Uiso   1.00
O935   O     0.20420   0.54581   0.53821   0.00000  Uiso   1.00
O936   O     0.29581   0.95419   0.46179   0.00000  Uiso   1.00
O937   O     0.20420   0.95419   0.46179   0.00000  Uiso   1.00
O938   O     0.29581   0.54581   0.53821   0.00000  Uiso   1.00
O939   O     0.29581   0.54581   0.46179   0.00000  Uiso   1.00
O940   O     0.20420   0.95419   0.53821   0.00000  Uiso   1.00
O941   O     0.45420   0.79581   0.46179   0.00000  Uiso   1.00
O942   O     0.45420   0.79581   0.53821   0.00000  Uiso   1.00
O943   O     0.04581   0.70419   0.46179   0.00000  Uiso   1.00
O944   O     0.45420   0.70419   0.46179   0.00000  Uiso   1.00
O945   O     0.04581   0.79581   0.53821   0.00000  Uiso   1.00
O946   O     0.04581   0.79581   0.46179   0.00000  Uiso   1.00
O947   O     0.45420   0.70419   0.53821   0.00000  Uiso   1.00
O948   O     0.29581   0.95419   0.53821   0.00000  Uiso   1.00
Zn949  Zn    0.00000   0.75000   0.55104   0.00000  Uiso   1.00
Zn950  Zn    0.00000   0.75000   0.44896   0.00000  Uiso   1.00
Zn951  Zn    0.25000   0.50000   0.55104   0.00000  Uiso   1.00
Zn952  Zn    0.25000   0.50000   0.44896   0.00000  Uiso   1.00
C953   C     0.56009   0.69030   0.49948   0.00000  Uiso   1.00
C954   C     0.99380   0.71059   0.64064   0.00000  Uiso   1.00
C955   C     0.99477   0.71015   0.35521   0.00000  Uiso   1.00
C956   C     0.50744   0.78920   0.64482   0.00000  Uiso   1.00
C957   C     0.75686   0.53929   0.35911   0.00000  Uiso   1.00
C958   C     0.74262   0.96075   0.64157   0.00000  Uiso   1.00
C959   C     0.74245   0.96089   0.35561   0.00000  Uiso   1.00
C960   C     0.75772   0.53925   0.64465   0.00000  Uiso   1.00
C961   C     0.91488   0.61378   0.48022   0.00000  Uiso   1.00
C962   C     0.58628   0.88511   0.52256   0.00000  Uiso   1.00
C963   C     0.63179   0.83194   0.47885   0.00000  Uiso   1.00
C964   C     0.93990   0.80980   0.50066   0.00000  Uiso   1.00
C965   C     0.86744   0.66908   0.51870   0.00000  Uiso   1.00
C966   C     0.62804   0.66321   0.52878   0.00000  Uiso   1.00
C967   C     0.87252   0.83632   0.47017   0.00000  Uiso   1.00
C968   C     0.90650   0.87940   0.53275   0.00000  Uiso   1.00
C969   C     0.58991   0.61880   0.46985   0.00000  Uiso   1.00
C970   C     0.66431   0.86465   0.47820   0.00000  Uiso   1.00
C971   C     0.83492   0.63639   0.51970   0.00000  Uiso   1.00
C972   C     0.88240   0.58108   0.48130   0.00000  Uiso   1.00
C973   C     0.61850   0.91762   0.52212   0.00000  Uiso   1.00
C974   C     0.87603   0.91283   0.52985   0.00000  Uiso   1.00
C975   C     0.94036   0.68994   0.49957   0.00000  Uiso   1.00
C976   C     0.61971   0.58409   0.47251   0.00000  Uiso   1.00
C977   C     0.65916   0.63005   0.52970   0.00000  Uiso   1.00
C978   C     0.84082   0.86928   0.46851   0.00000  Uiso   1.00
C979   C     0.59325   0.84277   0.50107   0.00000  Uiso   1.00
C980   C     0.90684   0.65719   0.49890   0.00000  Uiso   1.00
C981   C     0.90559   0.84196   0.50185   0.00000  Uiso   1.00
C982   C     0.59352   0.65735   0.49877   0.00000  Uiso   1.00
C983   C     0.84301   0.59295   0.50111   0.00000  Uiso   1.00
C984   C     0.65699   0.90718   0.49935   0.00000  Uiso   1.00
C985   C     0.65516   0.59094   0.50154   0.00000  Uiso   1.00
C986   C     0.55966   0.81005   0.50042   0.00000  Uiso   1.00
C987   C     0.84300   0.90715   0.49846   0.00000  Uiso   1.00
C988   C     0.80954   0.93982   0.49937   0.00000  Uiso   1.00
C989   C     0.68953   0.55919   0.50054   0.00000  Uiso   1.00
C990   C     0.69035   0.94000   0.49965   0.00000  Uiso   1.00
C991   C     0.80954   0.56015   0.50044   0.00000  Uiso   1.00
C992   C     0.50581   0.78940   0.35919   0.00000  Uiso   1.00
H993   H     0.54107   0.84504   0.37739   0.00000  Uiso   1.00
H994   H     0.73943   0.60368   0.37577   0.00000  Uiso   1.00
H995   H     0.70166   0.91849   0.60738   0.00000  Uiso   1.00
H996   H     0.75474   0.91351   0.59140   0.00000  Uiso   1.00
H997   H     0.75164   0.91608   0.40393   0.00000  Uiso   1.00
H998   H     0.69980   0.92127   0.38682   0.00000  Uiso   1.00
H999   H     0.74776   0.58436   0.59675   0.00000  Uiso   1.00
H1000  H     0.79985   0.57923   0.61302   0.00000  Uiso   1.00
H1001  H     0.96929   0.57660   0.47969   0.00000  Uiso   1.00
H1002  H     0.95273   0.59213   0.42834   0.00000  Uiso   1.00
H1003  H     0.53269   0.92319   0.52799   0.00000  Uiso   1.00
H1004  H     0.98725   0.85350   0.37542   0.00000  Uiso   1.00
H1005  H     0.55159   0.90500   0.57720   0.00000  Uiso   1.00
H1006  H     0.66407   0.77227   0.47207   0.00000  Uiso   1.00
H1007  H     0.64347   0.79135   0.42369   0.00000  Uiso   1.00
H1008  H     0.83526   0.72894   0.52017   0.00000  Uiso   1.00
H1009  H     0.85307   0.71275   0.57085   0.00000  Uiso   1.00
H1010  H     0.62977   0.73226   0.53815   0.00000  Uiso   1.00
H1011  H     0.61024   0.70348   0.58269   0.00000  Uiso   1.00
H1012  H     0.87109   0.80619   0.40769   0.00000  Uiso   1.00
H1013  H     0.84225   0.77851   0.44707   0.00000  Uiso   1.00
H1014  H     0.93376   0.85952   0.58990   0.00000  Uiso   1.00
H1015  H     0.51343   0.64791   0.61935   0.00000  Uiso   1.00
H1016  H     0.96840   0.88238   0.55165   0.00000  Uiso   1.00
H1017  H     0.56914   0.61071   0.40602   0.00000  Uiso   1.00
H1018  H     0.53746   0.58576   0.44431   0.00000  Uiso   1.00
H1019  H     0.71890   0.82771   0.47506   0.00000  Uiso   1.00
H1020  H     0.70075   0.84413   0.42472   0.00000  Uiso   1.00
H1021  H     0.78047   0.67348   0.51968   0.00000  Uiso   1.00
H1022  H     0.79680   0.65846   0.57123   0.00000  Uiso   1.00
H1023  H     0.91458   0.52121   0.47993   0.00000  Uiso   1.00
H1024  H     0.89685   0.53736   0.42920   0.00000  Uiso   1.00
H1025  H     0.61754   0.98679   0.52239   0.00000  Uiso   1.00
H1026  H     0.95920   0.65360   0.62498   0.00000  Uiso   1.00
H1027  H     0.63213   0.96470   0.57184   0.00000  Uiso   1.00
H1028  H     0.90854   0.96907   0.55288   0.00000  Uiso   1.00
H1029  H     0.87739   0.94384   0.59180   0.00000  Uiso   1.00
H1030  H     0.63472   0.51738   0.45226   0.00000  Uiso   1.00
H1031  H     0.58332   0.52861   0.45592   0.00000  Uiso   1.00
H1032  H     0.68413   0.63858   0.59187   0.00000  Uiso   1.00
H1033  H     0.71015   0.66746   0.55195   0.00000  Uiso   1.00
H1034  H     0.81878   0.86339   0.40476   0.00000  Uiso   1.00
H1035  H     0.79028   0.83335   0.44234   0.00000  Uiso   1.00
H1036  H     0.99825   0.67069   0.40908   0.00000  Uiso   1.00
H1037  H     0.51220   0.64495   0.36203   0.00000  Uiso   1.00
H1038  H     0.50140   0.83306   0.59561   0.00000  Uiso   1.00
H1039  H     0.55189   0.82771   0.61531   0.00000  Uiso   1.00
H1040  H     0.79315   0.59434   0.37671   0.00000  Uiso   1.00
N1041  N     0.50000   0.75000   0.61907   0.00000  Uiso   1.00
N1042  N     0.73354   0.91847   0.61818   0.00000  Uiso   1.00
N1043  N     0.73186   0.91940   0.37635   0.00000  Uiso   1.00
N1044  N     0.76795   0.58090   0.62401   0.00000  Uiso   1.00
N1045  N     0.95641   0.60309   0.46183   0.00000  Uiso   1.00
N1046  N     0.54591   0.89539   0.54365   0.00000  Uiso   1.00
N1047  N     0.63749   0.78765   0.45784   0.00000  Uiso   1.00
N1048  N     0.86090   0.71442   0.53687   0.00000  Uiso   1.00
N1049  N     0.63334   0.70346   0.55716   0.00000  Uiso   1.00
N1050  N     0.87077   0.79635   0.44096   0.00000  Uiso   1.00
N1051  N     0.93836   0.88497   0.56688   0.00000  Uiso   1.00
N1052  N     0.50000   0.75000   0.38093   0.00000  Uiso   1.00
N1053  N     0.55557   0.61483   0.43801   0.00000  Uiso   1.00
N1054  N     0.70536   0.85454   0.45822   0.00000  Uiso   1.00
N1055  N     0.79329   0.64716   0.53782   0.00000  Uiso   1.00
N1056  N     0.88897   0.53572   0.46317   0.00000  Uiso   1.00
N1057  N     0.61128   0.96098   0.54458   0.00000  Uiso   1.00
N1058  N     0.87883   0.95324   0.55840   0.00000  Uiso   1.00
N1059  N     0.61265   0.54263   0.44584   0.00000  Uiso   1.00
N1060  N     0.69545   0.63643   0.55882   0.00000  Uiso   1.00
N1061  N     0.80607   0.86419   0.43726   0.00000  Uiso   1.00
N1062  N     0.75000   0.50000   0.61907   0.00000  Uiso   1.00
N1063  N     0.75000   0.50000   0.38093   0.00000  Uiso   1.00
N1064  N     0.51103   0.83099   0.38504   0.00000  Uiso   1.00
N1065  N     0.98749   0.66944   0.61431   0.00000  Uiso   1.00
N1066  N     0.98941   0.66731   0.37585   0.00000  Uiso   1.00
N1067  N     0.51949   0.83037   0.62440   0.00000  Uiso   1.00
N1068  N     0.76305   0.58076   0.38491   0.00000  Uiso   1.00
O1069  O     0.54581   0.70419   0.53821   0.00000  Uiso   1.00
O1070  O     0.70420   0.54581   0.46179   0.00000  Uiso   1.00
O1071  O     0.70420   0.54581   0.53821   0.00000  Uiso   1.00
O1072  O     0.79581   0.95419   0.46179   0.00000  Uiso   1.00
O1073  O     0.70420   0.95419   0.46179   0.00000  Uiso   1.00
O1074  O     0.79581   0.54581   0.53821   0.00000  Uiso   1.00
O1075  O     0.79581   0.54581   0.46179   0.00000  Uiso   1.00
O1076  O     0.70420   0.95419   0.53821   0.00000  Uiso   1.00
O1077  O     0.95420   0.79581   0.46179   0.00000  Uiso   1.00
O1078  O     0.95420   0.79581   0.53821   0.00000  Uiso   1.00
O1079  O     0.54581   0.70419   0.46179   0.00000  Uiso   1.00
O1080  O     0.95420   0.70419   0.46179   0.00000  Uiso   1.00
O1081  O     0.54581   0.79581   0.53821   0.00000  Uiso   1.00
O1082  O     0.54581   0.79581   0.46179   0.00000  Uiso   1.00
O1083  O     0.95420   0.70419   0.53821   0.00000  Uiso   1.00
O1084  O     0.79581   0.95419   0.53821   0.00000  Uiso   1.00
Zn1085 Zn    0.50000   0.75000   0.55104   0.00000  Uiso   1.00
Zn1086 Zn    0.50000   0.75000   0.44896   0.00000  Uiso   1.00
Zn1087 Zn    0.75000   0.50000   0.55104   0.00000  Uiso   1.00
Zn1088 Zn    0.75000   0.50000   0.44896   0.00000  Uiso   1.00
C1089  C     0.06009   0.19030   0.83281   0.00000  Uiso   1.00
C1090  C     0.49380   0.21059   0.97397   0.00000  Uiso   1.00
C1091  C     0.49477   0.21015   0.68855   0.00000  Uiso   1.00
C1092  C     0.00744   0.28920   0.97815   0.00000  Uiso   1.00
C1093  C     0.25686   0.03929   0.69244   0.00000  Uiso   1.00
C1094  C     0.24262   0.46075   0.97490   0.00000  Uiso   1.00
C1095  C     0.24245   0.46089   0.68895   0.00000  Uiso   1.00
C1096  C     0.25772   0.03925   0.97799   0.00000  Uiso   1.00
C1097  C     0.41488   0.11378   0.81356   0.00000  Uiso   1.00
C1098  C     0.08628   0.38511   0.85589   0.00000  Uiso   1.00
C1099  C     0.13179   0.33194   0.81219   0.00000  Uiso   1.00
C1100  C     0.43990   0.30980   0.83400   0.00000  Uiso   1.00
C1101  C     0.36744   0.16908   0.85204   0.00000  Uiso   1.00
C1102  C     0.12804   0.16321   0.86211   0.00000  Uiso   1.00
C1103  C     0.37252   0.33632   0.80350   0.00000  Uiso   1.00
C1104  C     0.40650   0.37940   0.86608   0.00000  Uiso   1.00
C1105  C     0.08991   0.11880   0.80319   0.00000  Uiso   1.00
C1106  C     0.16431   0.36465   0.81153   0.00000  Uiso   1.00
C1107  C     0.33492   0.13639   0.85304   0.00000  Uiso   1.00
C1108  C     0.38240   0.08108   0.81463   0.00000  Uiso   1.00
C1109  C     0.11850   0.41762   0.85545   0.00000  Uiso   1.00
C1110  C     0.37603   0.41283   0.86319   0.00000  Uiso   1.00
C1111  C     0.44036   0.18994   0.83290   0.00000  Uiso   1.00
C1112  C     0.11971   0.08409   0.80584   0.00000  Uiso   1.00
C1113  C     0.15916   0.13005   0.86303   0.00000  Uiso   1.00
C1114  C     0.34082   0.36928   0.80184   0.00000  Uiso   1.00
C1115  C     0.09325   0.34277   0.83440   0.00000  Uiso   1.00
C1116  C     0.40684   0.15719   0.83224   0.00000  Uiso   1.00
C1117  C     0.40559   0.34196   0.83518   0.00000  Uiso   1.00
C1118  C     0.09352   0.15735   0.83211   0.00000  Uiso   1.00
C1119  C     0.34301   0.09295   0.83444   0.00000  Uiso   1.00
C1120  C     0.15699   0.40718   0.83268   0.00000  Uiso   1.00
C1121  C     0.15516   0.09094   0.83487   0.00000  Uiso   1.00
C1122  C     0.05966   0.31005   0.83375   0.00000  Uiso   1.00
C1123  C     0.34300   0.40715   0.83180   0.00000  Uiso   1.00
C1124  C     0.30954   0.43982   0.83270   0.00000  Uiso   1.00
C1125  C     0.18953   0.05919   0.83387   0.00000  Uiso   1.00
C1126  C     0.19035   0.44000   0.83298   0.00000  Uiso   1.00
C1127  C     0.30954   0.06015   0.83377   0.00000  Uiso   1.00
C1128  C     0.00581   0.28940   0.69253   0.00000  Uiso   1.00
H1129  H     0.04107   0.34504   0.71072   0.00000  Uiso   1.00
H1130  H     0.23943   0.10368   0.70911   0.00000  Uiso   1.00
H1131  H     0.20166   0.41849   0.94071   0.00000  Uiso   1.00
H1132  H     0.25474   0.41351   0.92473   0.00000  Uiso   1.00
H1133  H     0.25164   0.41608   0.73726   0.00000  Uiso   1.00
H1134  H     0.19980   0.42127   0.72016   0.00000  Uiso   1.00
H1135  H     0.24776   0.08436   0.93009   0.00000  Uiso   1.00
H1136  H     0.29985   0.07923   0.94635   0.00000  Uiso   1.00
H1137  H     0.46929   0.07660   0.81302   0.00000  Uiso   1.00
H1138  H     0.45273   0.09213   0.76168   0.00000  Uiso   1.00
H1139  H     0.03269   0.42319   0.86132   0.00000  Uiso   1.00
H1140  H     0.48725   0.35350   0.70876   0.00000  Uiso   1.00
H1141  H     0.05159   0.40500   0.91053   0.00000  Uiso   1.00
H1142  H     0.16407   0.27227   0.80540   0.00000  Uiso   1.00
H1143  H     0.14347   0.29135   0.75702   0.00000  Uiso   1.00
H1144  H     0.33526   0.22894   0.85351   0.00000  Uiso   1.00
H1145  H     0.35307   0.21275   0.90419   0.00000  Uiso   1.00
H1146  H     0.12977   0.23226   0.87149   0.00000  Uiso   1.00
H1147  H     0.11024   0.20348   0.91602   0.00000  Uiso   1.00
H1148  H     0.37109   0.30619   0.74103   0.00000  Uiso   1.00
H1149  H     0.34225   0.27851   0.78040   0.00000  Uiso   1.00
H1150  H     0.43376   0.35952   0.92323   0.00000  Uiso   1.00
H1151  H     0.01343   0.14791   0.95269   0.00000  Uiso   1.00
H1152  H     0.46840   0.38238   0.88499   0.00000  Uiso   1.00
H1153  H     0.06914   0.11071   0.73935   0.00000  Uiso   1.00
H1154  H     0.03746   0.08576   0.77765   0.00000  Uiso   1.00
H1155  H     0.21890   0.32771   0.80840   0.00000  Uiso   1.00
H1156  H     0.20075   0.34413   0.75805   0.00000  Uiso   1.00
H1157  H     0.28047   0.17348   0.85301   0.00000  Uiso   1.00
H1158  H     0.29680   0.15846   0.90456   0.00000  Uiso   1.00
H1159  H     0.41458   0.02121   0.81326   0.00000  Uiso   1.00
H1160  H     0.39685   0.03736   0.76253   0.00000  Uiso   1.00
H1161  H     0.11754   0.48679   0.85573   0.00000  Uiso   1.00
H1162  H     0.45920   0.15360   0.95831   0.00000  Uiso   1.00
H1163  H     0.13213   0.46470   0.90518   0.00000  Uiso   1.00
H1164  H     0.40854   0.46907   0.88622   0.00000  Uiso   1.00
H1165  H     0.37739   0.44384   0.92514   0.00000  Uiso   1.00
H1166  H     0.13472   0.01738   0.78559   0.00000  Uiso   1.00
H1167  H     0.08332   0.02861   0.78926   0.00000  Uiso   1.00
H1168  H     0.18413   0.13858   0.92521   0.00000  Uiso   1.00
H1169  H     0.21015   0.16746   0.88528   0.00000  Uiso   1.00
H1170  H     0.31878   0.36339   0.73809   0.00000  Uiso   1.00
H1171  H     0.29028   0.33335   0.77567   0.00000  Uiso   1.00
H1172  H     0.49825   0.17069   0.74241   0.00000  Uiso   1.00
H1173  H     0.01220   0.14495   0.69536   0.00000  Uiso   1.00
H1174  H     0.00140   0.33306   0.92894   0.00000  Uiso   1.00
H1175  H     0.05189   0.32771   0.94865   0.00000  Uiso   1.00
H1176  H     0.29315   0.09434   0.71004   0.00000  Uiso   1.00
N1177  N     0.00000   0.25000   0.95240   0.00000  Uiso   1.00
N1178  N     0.23354   0.41847   0.95151   0.00000  Uiso   1.00
N1179  N     0.23186   0.41940   0.70969   0.00000  Uiso   1.00
N1180  N     0.26795   0.08090   0.95735   0.00000  Uiso   1.00
N1181  N     0.45641   0.10309   0.79516   0.00000  Uiso   1.00
N1182  N     0.04591   0.39539   0.87698   0.00000  Uiso   1.00
N1183  N     0.13749   0.28765   0.79117   0.00000  Uiso   1.00
N1184  N     0.36090   0.21442   0.87020   0.00000  Uiso   1.00
N1185  N     0.13334   0.20346   0.89049   0.00000  Uiso   1.00
N1186  N     0.37077   0.29635   0.77430   0.00000  Uiso   1.00
N1187  N     0.43836   0.38497   0.90021   0.00000  Uiso   1.00
N1188  N     0.00000   0.25000   0.71427   0.00000  Uiso   1.00
N1189  N     0.05557   0.11483   0.77135   0.00000  Uiso   1.00
N1190  N     0.20536   0.35454   0.79156   0.00000  Uiso   1.00
N1191  N     0.29329   0.14716   0.87116   0.00000  Uiso   1.00
N1192  N     0.38897   0.03572   0.79650   0.00000  Uiso   1.00
N1193  N     0.11128   0.46098   0.87791   0.00000  Uiso   1.00
N1194  N     0.37883   0.45324   0.89173   0.00000  Uiso   1.00
N1195  N     0.11265   0.04263   0.77917   0.00000  Uiso   1.00
N1196  N     0.19545   0.13643   0.89215   0.00000  Uiso   1.00
N1197  N     0.30607   0.36419   0.77059   0.00000  Uiso   1.00
N1198  N     0.25000   0.00000   0.95240   0.00000  Uiso   1.00
N1199  N     0.25000   0.00000   0.71427   0.00000  Uiso   1.00
N1200  N     0.01103   0.33099   0.71837   0.00000  Uiso   1.00
N1201  N     0.48749   0.16944   0.94764   0.00000  Uiso   1.00
N1202  N     0.48941   0.16731   0.70919   0.00000  Uiso   1.00
N1203  N     0.01949   0.33037   0.95773   0.00000  Uiso   1.00
N1204  N     0.26305   0.08076   0.71824   0.00000  Uiso   1.00
O1205  O     0.04581   0.20419   0.87154   0.00000  Uiso   1.00
O1206  O     0.20420   0.04581   0.79513   0.00000  Uiso   1.00
O1207  O     0.20420   0.04581   0.87154   0.00000  Uiso   1.00
O1208  O     0.29581   0.45419   0.79513   0.00000  Uiso   1.00
O1209  O     0.20420   0.45419   0.79513   0.00000  Uiso   1.00
O1210  O     0.29581   0.04581   0.87154   0.00000  Uiso   1.00
O1211  O     0.29581   0.04581   0.79513   0.00000  Uiso   1.00
O1212  O     0.20420   0.45419   0.87154   0.00000  Uiso   1.00
O1213  O     0.45420   0.29581   0.79513   0.00000  Uiso   1.00
O1214  O     0.45420   0.29581   0.87154   0.00000  Uiso   1.00
O1215  O     0.04581   0.20419   0.79513   0.00000  Uiso   1.00
O1216  O     0.45420   0.20419   0.79513   0.00000  Uiso   1.00
O1217  O     0.04581   0.29581   0.87154   0.00000  Uiso   1.00
O1218  O     0.04581   0.29581   0.79513   0.00000  Uiso   1.00
O1219  O     0.45420   0.20419   0.87154   0.00000  Uiso   1.00
O1220  O     0.29581   0.45419   0.87154   0.00000  Uiso   1.00
Zn1221 Zn    0.00000   0.25000   0.88437   0.00000  Uiso   1.00
Zn1222 Zn    0.00000   0.25000   0.78229   0.00000  Uiso   1.00
Zn1223 Zn    0.25000   0.00000   0.88437   0.00000  Uiso   1.00
Zn1224 Zn    0.25000   0.00000   0.78229   0.00000  Uiso   1.00
C1225  C     0.56009   0.19030   0.83281   0.00000  Uiso   1.00
C1226  C     0.99380   0.21059   0.97397   0.00000  Uiso   1.00
C1227  C     0.99477   0.21015   0.68855   0.00000  Uiso   1.00
C1228  C     0.50744   0.28920   0.97815   0.00000  Uiso   1.00
C1229  C     0.75686   0.03929   0.69244   0.00000  Uiso   1.00
C1230  C     0.74262   0.46075   0.97490   0.00000  Uiso   1.00
C1231  C     0.74245   0.46089   0.68895   0.00000  Uiso   1.00
C1232  C     0.75772   0.03925   0.97799   0.00000  Uiso   1.00
C1233  C     0.91488   0.11378   0.81356   0.00000  Uiso   1.00
C1234  C     0.58628   0.38511   0.85589   0.00000  Uiso   1.00
C1235  C     0.63179   0.33194   0.81219   0.00000  Uiso   1.00
C1236  C     0.93990   0.30980   0.83400   0.00000  Uiso   1.00
C1237  C     0.86744   0.16908   0.85204   0.00000  Uiso   1.00
C1238  C     0.62804   0.16321   0.86211   0.00000  Uiso   1.00
C1239  C     0.87252   0.33632   0.80350   0.00000  Uiso   1.00
C1240  C     0.90650   0.37940   0.86608   0.00000  Uiso   1.00
C1241  C     0.58991   0.11880   0.80319   0.00000  Uiso   1.00
C1242  C     0.66431   0.36465   0.81153   0.00000  Uiso   1.00
C1243  C     0.83492   0.13639   0.85304   0.00000  Uiso   1.00
C1244  C     0.88240   0.08108   0.81463   0.00000  Uiso   1.00
C1245  C     0.61850   0.41762   0.85545   0.00000  Uiso   1.00
C1246  C     0.87603   0.41283   0.86319   0.00000  Uiso   1.00
C1247  C     0.94036   0.18994   0.83290   0.00000  Uiso   1.00
C1248  C     0.61971   0.08409   0.80584   0.00000  Uiso   1.00
C1249  C     0.65916   0.13005   0.86303   0.00000  Uiso   1.00
C1250  C     0.84082   0.36928   0.80184   0.00000  Uiso   1.00
C1251  C     0.59325   0.34277   0.83440   0.00000  Uiso   1.00
C1252  C     0.90684   0.15719   0.83224   0.00000  Uiso   1.00
C1253  C     0.90559   0.34196   0.83518   0.00000  Uiso   1.00
C1254  C     0.59352   0.15735   0.83211   0.00000  Uiso   1.00
C1255  C     0.84301   0.09295   0.83444   0.00000  Uiso   1.00
C1256  C     0.65699   0.40718   0.83268   0.00000  Uiso   1.00
C1257  C     0.65516   0.09094   0.83487   0.00000  Uiso   1.00
C1258  C     0.55966   0.31005   0.83375   0.00000  Uiso   1.00
C1259  C     0.84300   0.40715   0.83180   0.00000  Uiso   1.00
C1260  C     0.80954   0.43982   0.83270   0.00000  Uiso   1.00
C1261  C     0.68953   0.05919   0.83387   0.00000  Uiso   1.00
C1262  C     0.69035   0.44000   0.83298   0.00000  Uiso   1.00
C1263  C     0.80954   0.06015   0.83377   0.00000  Uiso   1.00
C1264  C     0.50581   0.28940   0.69253   0.00000  Uiso   1.00
H1265  H     0.54107   0.34504   0.71072   0.00000  Uiso   1.00
H1266  H     0.73943   0.10368   0.70911   0.00000  Uiso   1.00
H1267  H     0.70166   0.41849   0.94071   0.00000  Uiso   1.00
H1268  H     0.75474   0.41351   0.92473   0.00000  Uiso   1.00
H1269  H     0.75164   0.41608   0.73726   0.00000  Uiso   1.00
H1270  H     0.69980   0.42127   0.72016   0.00000  Uiso   1.00
H1271  H     0.74776   0.08436   0.93009   0.00000  Uiso   1.00
H1272  H     0.79985   0.07923   0.94635   0.00000  Uiso   1.00
H1273  H     0.96929   0.07660   0.81302   0.00000  Uiso   1.00
H1274  H     0.95273   0.09213   0.76168   0.00000  Uiso   1.00
H1275  H     0.53269   0.42319   0.86132   0.00000  Uiso   1.00
H1276  H     0.98725   0.35350   0.70876   0.00000  Uiso   1.00
H1277  H     0.55159   0.40500   0.91053   0.00000  Uiso   1.00
H1278  H     0.66407   0.27227   0.80540   0.00000  Uiso   1.00
H1279  H     0.64347   0.29135   0.75702   0.00000  Uiso   1.00
H1280  H     0.83526   0.22894   0.85351   0.00000  Uiso   1.00
H1281  H     0.85307   0.21275   0.90419   0.00000  Uiso   1.00
H1282  H     0.62977   0.23226   0.87149   0.00000  Uiso   1.00
H1283  H     0.61024   0.20348   0.91602   0.00000  Uiso   1.00
H1284  H     0.87109   0.30619   0.74103   0.00000  Uiso   1.00
H1285  H     0.84225   0.27851   0.78040   0.00000  Uiso   1.00
H1286  H     0.93376   0.35952   0.92323   0.00000  Uiso   1.00
H1287  H     0.51343   0.14791   0.95269   0.00000  Uiso   1.00
H1288  H     0.96840   0.38238   0.88499   0.00000  Uiso   1.00
H1289  H     0.56914   0.11071   0.73935   0.00000  Uiso   1.00
H1290  H     0.53746   0.08576   0.77765   0.00000  Uiso   1.00
H1291  H     0.71890   0.32771   0.80840   0.00000  Uiso   1.00
H1292  H     0.70075   0.34413   0.75805   0.00000  Uiso   1.00
H1293  H     0.78047   0.17348   0.85301   0.00000  Uiso   1.00
H1294  H     0.79680   0.15846   0.90456   0.00000  Uiso   1.00
H1295  H     0.91458   0.02121   0.81326   0.00000  Uiso   1.00
H1296  H     0.89685   0.03736   0.76253   0.00000  Uiso   1.00
H1297  H     0.61754   0.48679   0.85573   0.00000  Uiso   1.00
H1298  H     0.95920   0.15360   0.95831   0.00000  Uiso   1.00
H1299  H     0.63213   0.46470   0.90518   0.00000  Uiso   1.00
H1300  H     0.90854   0.46907   0.88622   0.00000  Uiso   1.00
H1301  H     0.87739   0.44384   0.92514   0.00000  Uiso   1.00
H1302  H     0.63472   0.01738   0.78559   0.00000  Uiso   1.00
H1303  H     0.58332   0.02861   0.78926   0.00000  Uiso   1.00
H1304  H     0.68413   0.13858   0.92521   0.00000  Uiso   1.00
H1305  H     0.71015   0.16746   0.88528   0.00000  Uiso   1.00
H1306  H     0.81878   0.36339   0.73809   0.00000  Uiso   1.00
H1307  H     0.79028   0.33335   0.77567   0.00000  Uiso   1.00
H1308  H     0.99825   0.17069   0.74241   0.00000  Uiso   1.00
H1309  H     0.51220   0.14495   0.69536   0.00000  Uiso   1.00
H1310  H     0.50140   0.33306   0.92894   0.00000  Uiso   1.00
H1311  H     0.55189   0.32771   0.94865   0.00000  Uiso   1.00
H1312  H     0.79315   0.09434   0.71004   0.00000  Uiso   1.00
N1313  N     0.50000   0.25000   0.95240   0.00000  Uiso   1.00
N1314  N     0.73354   0.41847   0.95151   0.00000  Uiso   1.00
N1315  N     0.73186   0.41940   0.70969   0.00000  Uiso   1.00
N1316  N     0.76795   0.08090   0.95735   0.00000  Uiso   1.00
N1317  N     0.95641   0.10309   0.79516   0.00000  Uiso   1.00
N1318  N     0.54591   0.39539   0.87698   0.00000  Uiso   1.00
N1319  N     0.63749   0.28765   0.79117   0.00000  Uiso   1.00
N1320  N     0.86090   0.21442   0.87020   0.00000  Uiso   1.00
N1321  N     0.63334   0.20346   0.89049   0.00000  Uiso   1.00
N1322  N     0.87077   0.29635   0.77430   0.00000  Uiso   1.00
N1323  N     0.93836   0.38497   0.90021   0.00000  Uiso   1.00
N1324  N     0.50000   0.25000   0.71427   0.00000  Uiso   1.00
N1325  N     0.55557   0.11483   0.77135   0.00000  Uiso   1.00
N1326  N     0.70536   0.35454   0.79156   0.00000  Uiso   1.00
N1327  N     0.79329   0.14716   0.87116   0.00000  Uiso   1.00
N1328  N     0.88897   0.03572   0.79650   0.00000  Uiso   1.00
N1329  N     0.61128   0.46098   0.87791   0.00000  Uiso   1.00
N1330  N     0.87883   0.45324   0.89173   0.00000  Uiso   1.00
N1331  N     0.61265   0.04263   0.77917   0.00000  Uiso   1.00
N1332  N     0.69545   0.13643   0.89215   0.00000  Uiso   1.00
N1333  N     0.80607   0.36419   0.77059   0.00000  Uiso   1.00
N1334  N     0.75000   0.00000   0.95240   0.00000  Uiso   1.00
N1335  N     0.75000   0.00000   0.71427   0.00000  Uiso   1.00
N1336  N     0.51103   0.33099   0.71837   0.00000  Uiso   1.00
N1337  N     0.98749   0.16944   0.94764   0.00000  Uiso   1.00
N1338  N     0.98941   0.16731   0.70919   0.00000  Uiso   1.00
N1339  N     0.51949   0.33037   0.95773   0.00000  Uiso   1.00
N1340  N     0.76305   0.08076   0.71824   0.00000  Uiso   1.00
O1341  O     0.54581   0.20419   0.87154   0.00000  Uiso   1.00
O1342  O     0.70420   0.04581   0.79513   0.00000  Uiso   1.00
O1343  O     0.70420   0.04581   0.87154   0.00000  Uiso   1.00
O1344  O     0.79581   0.45419   0.79513   0.00000  Uiso   1.00
O1345  O     0.70420   0.45419   0.79513   0.00000  Uiso   1.00
O1346  O     0.79581   0.04581   0.87154   0.00000  Uiso   1.00
O1347  O     0.79581   0.04581   0.79513   0.00000  Uiso   1.00
O1348  O     0.70420   0.45419   0.87154   0.00000  Uiso   1.00
O1349  O     0.95420   0.29581   0.79513   0.00000  Uiso   1.00
O1350  O     0.95420   0.29581   0.87154   0.00000  Uiso   1.00
O1351  O     0.54581   0.20419   0.79513   0.00000  Uiso   1.00
O1352  O     0.95420   0.20419   0.79513   0.00000  Uiso   1.00
O1353  O     0.54581   0.29581   0.87154   0.00000  Uiso   1.00
O1354  O     0.54581   0.29581   0.79513   0.00000  Uiso   1.00
O1355  O     0.95420   0.20419   0.87154   0.00000  Uiso   1.00
O1356  O     0.79581   0.45419   0.87154   0.00000  Uiso   1.00
Zn1357 Zn    0.50000   0.25000   0.88437   0.00000  Uiso   1.00
Zn1358 Zn    0.50000   0.25000   0.78229   0.00000  Uiso   1.00
Zn1359 Zn    0.75000   0.00000   0.88437   0.00000  Uiso   1.00
Zn1360 Zn    0.75000   0.00000   0.78229   0.00000  Uiso   1.00
C1361  C     0.06009   0.69030   0.83281   0.00000  Uiso   1.00
C1362  C     0.49380   0.71059   0.97397   0.00000  Uiso   1.00
C1363  C     0.49477   0.71015   0.68855   0.00000  Uiso   1.00
C1364  C     0.00744   0.78920   0.97815   0.00000  Uiso   1.00
C1365  C     0.25686   0.53929   0.69244   0.00000  Uiso   1.00
C1366  C     0.24262   0.96075   0.97490   0.00000  Uiso   1.00
C1367  C     0.24245   0.96089   0.68895   0.00000  Uiso   1.00
C1368  C     0.25772   0.53925   0.97799   0.00000  Uiso   1.00
C1369  C     0.41488   0.61378   0.81356   0.00000  Uiso   1.00
C1370  C     0.08628   0.88511   0.85589   0.00000  Uiso   1.00
C1371  C     0.13179   0.83194   0.81219   0.00000  Uiso   1.00
C1372  C     0.43990   0.80980   0.83400   0.00000  Uiso   1.00
C1373  C     0.36744   0.66908   0.85204   0.00000  Uiso   1.00
C1374  C     0.12804   0.66321   0.86211   0.00000  Uiso   1.00
C1375  C     0.37252   0.83632   0.80350   0.00000  Uiso   1.00
C1376  C     0.40650   0.87940   0.86608   0.00000  Uiso   1.00
C1377  C     0.08991   0.61880   0.80319   0.00000  Uiso   1.00
C1378  C     0.16431   0.86465   0.81153   0.00000  Uiso   1.00
C1379  C     0.33492   0.63639   0.85304   0.00000  Uiso   1.00
C1380  C     0.38240   0.58108   0.81463   0.00000  Uiso   1.00
C1381  C     0.11850   0.91762   0.85545   0.00000  Uiso   1.00
C1382  C     0.37603   0.91283   0.86319   0.00000  Uiso   1.00
C1383  C     0.44036   0.68994   0.83290   0.00000  Uiso   1.00
C1384  C     0.11971   0.58409   0.80584   0.00000  Uiso   1.00
C1385  C     0.15916   0.63005   0.86303   0.00000  Uiso   1.00
C1386  C     0.34082   0.86928   0.80184   0.00000  Uiso   1.00
C1387  C     0.09325   0.84277   0.83440   0.00000  Uiso   1.00
C1388  C     0.40684   0.65719   0.83224   0.00000  Uiso   1.00
C1389  C     0.40559   0.84196   0.83518   0.00000  Uiso   1.00
C1390  C     0.09352   0.65735   0.83211   0.00000  Uiso   1.00
C1391  C     0.34301   0.59295   0.83444   0.00000  Uiso   1.00
C1392  C     0.15699   0.90718   0.83268   0.00000  Uiso   1.00
C1393  C     0.15516   0.59094   0.83487   0.00000  Uiso   1.00
C1394  C     0.05966   0.81005   0.83375   0.00000  Uiso   1.00
C1395  C     0.34300   0.90715   0.83180   0.00000  Uiso   1.00
C1396  C     0.30954   0.93982   0.83270   0.00000  Uiso   1.00
C1397  C     0.18953   0.55919   0.83387   0.00000  Uiso   1.00
C1398  C     0.19035   0.94000   0.83298   0.00000  Uiso   1.00
C1399  C     0.30954   0.56015   0.83377   0.00000  Uiso   1.00
C1400  C     0.00581   0.78940   0.69253   0.00000  Uiso   1.00
H1401  H     0.04107   0.84504   0.71072   0.00000  Uiso   1.00
H1402  H     0.23943   0.60368   0.70911   0.00000  Uiso   1.00
H1403  H     0.20166   0.91849   0.94071   0.00000  Uiso   1.00
H1404  H     0.25474   0.91351   0.92473   0.00000  Uiso   1.00
H1405  H     0.25164   0.91608   0.73726   0.00000  Uiso   1.00
H1406  H     0.19980   0.92127   0.72016   0.00000  Uiso   1.00
H1407  H     0.24776   0.58436   0.93009   0.00000  Uiso   1.00
H1408  H     0.29985   0.57923   0.94635   0.00000  Uiso   1.00
H1409  H     0.46929   0.57660   0.81302   0.00000  Uiso   1.00
H1410  H     0.45273   0.59213   0.76168   0.00000  Uiso   1.00
H1411  H     0.03269   0.92319   0.86132   0.00000  Uiso   1.00
H1412  H     0.48725   0.85350   0.70876   0.00000  Uiso   1.00
H1413  H     0.05159   0.90500   0.91053   0.00000  Uiso   1.00
H1414  H     0.16407   0.77227   0.80540   0.00000  Uiso   1.00
H1415  H     0.14347   0.79135   0.75702   0.00000  Uiso   1.00
H1416  H     0.33526   0.72894   0.85351   0.00000  Uiso   1.00
H1417  H     0.35307   0.71275   0.90419   0.00000  Uiso   1.00
H1418  H     0.12977   0.73226   0.87149   0.00000  Uiso   1.00
H1419  H     0.11024   0.70348   0.91602   0.00000  Uiso   1.00
H1420  H     0.37109   0.80619   0.74103   0.00000  Uiso   1.00
H1421  H     0.34225   0.77851   0.78040   0.00000  Uiso   1.00
H1422  H     0.43376   0.85952   0.92323   0.00000  Uiso   1.00
H1423  H     0.01343   0.64791   0.95269   0.00000  Uiso   1.00
H1424  H     0.46840   0.88238   0.88499   0.00000  Uiso   1.00
H1425  H     0.06914   0.61071   0.73935   0.00000  Uiso   1.00
H1426  H     0.03746   0.58576   0.77765   0.00000  Uiso   1.00
H1427  H     0.21890   0.82771   0.80840   0.00000  Uiso   1.00
H1428  H     0.20075   0.84413   0.75805   0.00000  Uiso   1.00
H1429  H     0.28047   0.67348   0.85301   0.00000  Uiso   1.00
H1430  H     0.29680   0.65846   0.90456   0.00000  Uiso   1.00
H1431  H     0.41458   0.52121   0.81326   0.00000  Uiso   1.00
H1432  H     0.39685   0.53736   0.76253   0.00000  Uiso   1.00
H1433  H     0.11754   0.98679   0.85573   0.00000  Uiso   1.00
H1434  H     0.45920   0.65360   0.95831   0.00000  Uiso   1.00
H1435  H     0.13213   0.96470   0.90518   0.00000  Uiso   1.00
H1436  H     0.40854   0.96907   0.88622   0.00000  Uiso   1.00
H1437  H     0.37739   0.94384   0.92514   0.00000  Uiso   1.00
H1438  H     0.13472   0.51738   0.78559   0.00000  Uiso   1.00
H1439  H     0.08332   0.52861   0.78926   0.00000  Uiso   1.00
H1440  H     0.18413   0.63858   0.92521   0.00000  Uiso   1.00
H1441  H     0.21015   0.66746   0.88528   0.00000  Uiso   1.00
H1442  H     0.31878   0.86339   0.73809   0.00000  Uiso   1.00
H1443  H     0.29028   0.83335   0.77567   0.00000  Uiso   1.00
H1444  H     0.49825   0.67069   0.74241   0.00000  Uiso   1.00
H1445  H     0.01220   0.64495   0.69536   0.00000  Uiso   1.00
H1446  H     0.00140   0.83306   0.92894   0.00000  Uiso   1.00
H1447  H     0.05189   0.82771   0.94865   0.00000  Uiso   1.00
H1448  H     0.29315   0.59434   0.71004   0.00000  Uiso   1.00
N1449  N     0.00000   0.75000   0.95240   0.00000  Uiso   1.00
N1450  N     0.23354   0.91847   0.95151   0.00000  Uiso   1.00
N1451  N     0.23186   0.91940   0.70969   0.00000  Uiso   1.00
N1452  N     0.26795   0.58090   0.95735   0.00000  Uiso   1.00
N1453  N     0.45641   0.60309   0.79516   0.00000  Uiso   1.00
N1454  N     0.04591   0.89539   0.87698   0.00000  Uiso   1.00
N1455  N     0.13749   0.78765   0.79117   0.00000  Uiso   1.00
N1456  N     0.36090   0.71442   0.87020   0.00000  Uiso   1.00
N1457  N     0.13334   0.70346   0.89049   0.00000  Uiso   1.00
N1458  N     0.37077   0.79635   0.77430   0.00000  Uiso   1.00
N1459  N     0.43836   0.88497   0.90021   0.00000  Uiso   1.00
N1460  N     0.00000   0.75000   0.71427   0.00000  Uiso   1.00
N1461  N     0.05557   0.61483   0.77135   0.00000  Uiso   1.00
N1462  N     0.20536   0.85454   0.79156   0.00000  Uiso   1.00
N1463  N     0.29329   0.64716   0.87116   0.00000  Uiso   1.00
N1464  N     0.38897   0.53572   0.79650   0.00000  Uiso   1.00
N1465  N     0.11128   0.96098   0.87791   0.00000  Uiso   1.00
N1466  N     0.37883   0.95324   0.89173   0.00000  Uiso   1.00
N1467  N     0.11265   0.54263   0.77917   0.00000  Uiso   1.00
N1468  N     0.19545   0.63643   0.89215   0.00000  Uiso   1.00
N1469  N     0.30607   0.86419   0.77059   0.00000  Uiso   1.00
N1470  N     0.25000   0.50000   0.95240   0.00000  Uiso   1.00
N1471  N     0.25000   0.50000   0.71427   0.00000  Uiso   1.00
N1472  N     0.01103   0.83099   0.71837   0.00000  Uiso   1.00
N1473  N     0.48749   0.66944   0.94764   0.00000  Uiso   1.00
N1474  N     0.48941   0.66731   0.70919   0.00000  Uiso   1.00
N1475  N     0.01949   0.83037   0.95773   0.00000  Uiso   1.00
N1476  N     0.26305   0.58076   0.71824   0.00000  Uiso   1.00
O1477  O     0.04581   0.70419   0.87154   0.00000  Uiso   1.00
O1478  O     0.20420   0.54581   0.79513   0.00000  Uiso   1.00
O1479  O     0.20420   0.54581   0.87154   0.00000  Uiso   1.00
O1480  O     0.29581   0.95419   0.79513   0.00000  Uiso   1.00
O1481  O     0.20420   0.95419   0.79513   0.00000  Uiso   1.00
O1482  O     0.29581   0.54581   0.87154   0.00000  Uiso   1.00
O1483  O     0.29581   0.54581   0.79513   0.00000  Uiso   1.00
O1484  O     0.20420   0.95419   0.87154   0.00000  Uiso   1.00
O1485  O     0.45420   0.79581   0.79513   0.00000  Uiso   1.00
O1486  O     0.45420   0.79581   0.87154   0.00000  Uiso   1.00
O1487  O     0.04581   0.70419   0.79513   0.00000  Uiso   1.00
O1488  O     0.45420   0.70419   0.79513   0.00000  Uiso   1.00
O1489  O     0.04581   0.79581   0.87154   0.00000  Uiso   1.00
O1490  O     0.04581   0.79581   0.79513   0.00000  Uiso   1.00
O1491  O     0.45420   0.70419   0.87154   0.00000  Uiso   1.00
O1492  O     0.29581   0.95419   0.87154   0.00000  Uiso   1.00
Zn1493 Zn    0.00000   0.75000   0.88437   0.00000  Uiso   1.00
Zn1494 Zn    0.00000   0.75000   0.78229   0.00000  Uiso   1.00
Zn1495 Zn    0.25000   0.50000   0.88437   0.00000  Uiso   1.00
Zn1496 Zn    0.25000   0.50000   0.78229   0.00000  Uiso   1.00
C1497  C     0.56009   0.69030   0.83281   0.00000  Uiso   1.00
C1498  C     0.99380   0.71059   0.97397   0.00000  Uiso   1.00
C1499  C     0.99477   0.71015   0.68855   0.00000  Uiso   1.00
C1500  C     0.50744   0.78920   0.97815   0.00000  Uiso   1.00
C1501  C     0.75686   0.53929   0.69244   0.00000  Uiso   1.00
C1502  C     0.74262   0.96075   0.97490   0.00000  Uiso   1.00
C1503  C     0.74245   0.96089   0.68895   0.00000  Uiso   1.00
C1504  C     0.75772   0.53925   0.97799   0.00000  Uiso   1.00
C1505  C     0.91488   0.61378   0.81356   0.00000  Uiso   1.00
C1506  C     0.58628   0.88511   0.85589   0.00000  Uiso   1.00
C1507  C     0.63179   0.83194   0.81219   0.00000  Uiso   1.00
C1508  C     0.93990   0.80980   0.83400   0.00000  Uiso   1.00
C1509  C     0.86744   0.66908   0.85204   0.00000  Uiso   1.00
C1510  C     0.62804   0.66321   0.86211   0.00000  Uiso   1.00
C1511  C     0.87252   0.83632   0.80350   0.00000  Uiso   1.00
C1512  C     0.90650   0.87940   0.86608   0.00000  Uiso   1.00
C1513  C     0.58991   0.61880   0.80319   0.00000  Uiso   1.00
C1514  C     0.66431   0.86465   0.81153   0.00000  Uiso   1.00
C1515  C     0.83492   0.63639   0.85304   0.00000  Uiso   1.00
C1516  C     0.88240   0.58108   0.81463   0.00000  Uiso   1.00
C1517  C     0.61850   0.91762   0.85545   0.00000  Uiso   1.00
C1518  C     0.87603   0.91283   0.86319   0.00000  Uiso   1.00
C1519  C     0.94036   0.68994   0.83290   0.00000  Uiso   1.00
C1520  C     0.61971   0.58409   0.80584   0.00000  Uiso   1.00
C1521  C     0.65916   0.63005   0.86303   0.00000  Uiso   1.00
C1522  C     0.84082   0.86928   0.80184   0.00000  Uiso   1.00
C1523  C     0.59325   0.84277   0.83440   0.00000  Uiso   1.00
C1524  C     0.90684   0.65719   0.83224   0.00000  Uiso   1.00
C1525  C     0.90559   0.84196   0.83518   0.00000  Uiso   1.00
C1526  C     0.59352   0.65735   0.83211   0.00000  Uiso   1.00
C1527  C     0.84301   0.59295   0.83444   0.00000  Uiso   1.00
C1528  C     0.65699   0.90718   0.83268   0.00000  Uiso   1.00
C1529  C     0.65516   0.59094   0.83487   0.00000  Uiso   1.00
C1530  C     0.55966   0.81005   0.83375   0.00000  Uiso   1.00
C1531  C     0.84300   0.90715   0.83180   0.00000  Uiso   1.00
C1532  C     0.80954   0.93982   0.83270   0.00000  Uiso   1.00
C1533  C     0.68953   0.55919   0.83387   0.00000  Uiso   1.00
C1534  C     0.69035   0.94000   0.83298   0.00000  Uiso   1.00
C1535  C     0.80954   0.56015   0.83377   0.00000  Uiso   1.00
C1536  C     0.50581   0.78940   0.69253   0.00000  Uiso   1.00
H1537  H     0.54107   0.84504   0.71072   0.00000  Uiso   1.00
H1538  H     0.73943   0.60368   0.70911   0.00000  Uiso   1.00
H1539  H     0.70166   0.91849   0.94071   0.00000  Uiso   1.00
H1540  H     0.75474   0.91351   0.92473   0.00000  Uiso   1.00
H1541  H     0.75164   0.91608   0.73726   0.00000  Uiso   1.00
H1542  H     0.69980   0.92127   0.72016   0.00000  Uiso   1.00
H1543  H     0.74776   0.58436   0.93009   0.00000  Uiso   1.00
H1544  H     0.79985   0.57923   0.94635   0.00000  Uiso   1.00
H1545  H     0.96929   0.57660   0.81302   0.00000  Uiso   1.00
H1546  H     0.95273   0.59213   0.76168   0.00000  Uiso   1.00
H1547  H     0.53269   0.92319   0.86132   0.00000  Uiso   1.00
H1548  H     0.98725   0.85350   0.70876   0.00000  Uiso   1.00
H1549  H     0.55159   0.90500   0.91053   0.00000  Uiso   1.00
H1550  H     0.66407   0.77227   0.80540   0.00000  Uiso   1.00
H1551  H     0.64347   0.79135   0.75702   0.00000  Uiso   1.00
H1552  H     0.83526   0.72894   0.85351   0.00000  Uiso   1.00
H1553  H     0.85307   0.71275   0.90419   0.00000  Uiso   1.00
H1554  H     0.62977   0.73226   0.87149   0.00000  Uiso   1.00
H1555  H     0.61024   0.70348   0.91602   0.00000  Uiso   1.00
H1556  H     0.87109   0.80619   0.74103   0.00000  Uiso   1.00
H1557  H     0.84225   0.77851   0.78040   0.00000  Uiso   1.00
H1558  H     0.93376   0.85952   0.92323   0.00000  Uiso   1.00
H1559  H     0.51343   0.64791   0.95269   0.00000  Uiso   1.00
H1560  H     0.96840   0.88238   0.88499   0.00000  Uiso   1.00
H1561  H     0.56914   0.61071   0.73935   0.00000  Uiso   1.00
H1562  H     0.53746   0.58576   0.77765   0.00000  Uiso   1.00
H1563  H     0.71890   0.82771   0.80840   0.00000  Uiso   1.00
H1564  H     0.70075   0.84413   0.75805   0.00000  Uiso   1.00
H1565  H     0.78047   0.67348   0.85301   0.00000  Uiso   1.00
H1566  H     0.79680   0.65846   0.90456   0.00000  Uiso   1.00
H1567  H     0.91458   0.52121   0.81326   0.00000  Uiso   1.00
H1568  H     0.89685   0.53736   0.76253   0.00000  Uiso   1.00
H1569  H     0.61754   0.98679   0.85573   0.00000  Uiso   1.00
H1570  H     0.95920   0.65360   0.95831   0.00000  Uiso   1.00
H1571  H     0.63213   0.96470   0.90518   0.00000  Uiso   1.00
H1572  H     0.90854   0.96907   0.88622   0.00000  Uiso   1.00
H1573  H     0.87739   0.94384   0.92514   0.00000  Uiso   1.00
H1574  H     0.63472   0.51738   0.78559   0.00000  Uiso   1.00
H1575  H     0.58332   0.52861   0.78926   0.00000  Uiso   1.00
H1576  H     0.68413   0.63858   0.92521   0.00000  Uiso   1.00
H1577  H     0.71015   0.66746   0.88528   0.00000  Uiso   1.00
H1578  H     0.81878   0.86339   0.73809   0.00000  Uiso   1.00
H1579  H     0.79028   0.83335   0.77567   0.00000  Uiso   1.00
H1580  H     0.99825   0.67069   0.74241   0.00000  Uiso   1.00
H1581  H     0.51220   0.64495   0.69536   0.00000  Uiso   1.00
H1582  H     0.50140   0.83306   0.92894   0.00000  Uiso   1.00
H1583  H     0.55189   0.82771   0.94865   0.00000  Uiso   1.00
H1584  H     0.79315   0.59434   0.71004   0.00000  Uiso   1.00
N1585  N     0.50000   0.75000   0.95240   0.00000  Uiso   1.00
N1586  N     0.73354   0.91847   0.95151   0.00000  Uiso   1.00
N1587  N     0.73186   0.91940   0.70969   0.00000  Uiso   1.00
N1588  N     0.76795   0.58090   0.95735   0.00000  Uiso   1.00
N1589  N     0.95641   0.60309   0.79516   0.00000  Uiso   1.00
N1590  N     0.54591   0.89539   0.87698   0.00000  Uiso   1.00
N1591  N     0.63749   0.78765   0.79117   0.00000  Uiso   1.00
N1592  N     0.86090   0.71442   0.87020   0.00000  Uiso   1.00
N1593  N     0.63334   0.70346   0.89049   0.00000  Uiso   1.00
N1594  N     0.87077   0.79635   0.77430   0.00000  Uiso   1.00
N1595  N     0.93836   0.88497   0.90021   0.00000  Uiso   1.00
N1596  N     0.50000   0.75000   0.71427   0.00000  Uiso   1.00
N1597  N     0.55557   0.61483   0.77135   0.00000  Uiso   1.00
N1598  N     0.70536   0.85454   0.79156   0.00000  Uiso   1.00
N1599  N     0.79329   0.64716   0.87116   0.00000  Uiso   1.00
N1600  N     0.88897   0.53572   0.79650   0.00000  Uiso   1.00
N1601  N     0.61128   0.96098   0.87791   0.00000  Uiso   1.00
N1602  N     0.87883   0.95324   0.89173   0.00000  Uiso   1.00
N1603  N     0.61265   0.54263   0.77917   0.00000  Uiso   1.00
N1604  N     0.69545   0.63643   0.89215   0.00000  Uiso   1.00
N1605  N     0.80607   0.86419   0.77059   0.00000  Uiso   1.00
N1606  N     0.75000   0.50000   0.95240   0.00000  Uiso   1.00
N1607  N     0.75000   0.50000   0.71427   0.00000  Uiso   1.00
N1608  N     0.51103   0.83099   0.71837   0.00000  Uiso   1.00
N1609  N     0.98749   0.66944   0.94764   0.00000  Uiso   1.00
N1610  N     0.98941   0.66731   0.70919   0.00000  Uiso   1.00
N1611  N     0.51949   0.83037   0.95773   0.00000  Uiso   1.00
N1612  N     0.76305   0.58076   0.71824   0.00000  Uiso   1.00
O1613  O     0.54581   0.70419   0.87154   0.00000  Uiso   1.00
O1614  O     0.70420   0.54581   0.79513   0.00000  Uiso   1.00
O1615  O     0.70420   0.54581   0.87154   0.00000  Uiso   1.00
O1616  O     0.79581   0.95419   0.79513   0.00000  Uiso   1.00
O1617  O     0.70420   0.95419   0.79513   0.00000  Uiso   1.00
O1618  O     0.79581   0.54581   0.87154   0.00000  Uiso   1.00
O1619  O     0.79581   0.54581   0.79513   0.00000  Uiso   1.00
O1620  O     0.70420   0.95419   0.87154   0.00000  Uiso   1.00
O1621  O     0.95420   0.79581   0.79513   0.00000  Uiso   1.00
O1622  O     0.95420   0.79581   0.87154   0.00000  Uiso   1.00
O1623  O     0.54581   0.70419   0.79513   0.00000  Uiso   1.00
O1624  O     0.95420   0.70419   0.79513   0.00000  Uiso   1.00
O1625  O     0.54581   0.79581   0.87154   0.00000  Uiso   1.00
O1626  O     0.54581   0.79581   0.79513   0.00000  Uiso   1.00
O1627  O     0.95420   0.70419   0.87154   0.00000  Uiso   1.00
O1628  O     0.79581   0.95419   0.87154   0.00000  Uiso   1.00
Zn1629 Zn    0.50000   0.75000   0.88437   0.00000  Uiso   1.00
Zn1630 Zn    0.50000   0.75000   0.78229   0.00000  Uiso   1.00
Zn1631 Zn    0.75000   0.50000   0.88437   0.00000  Uiso   1.00
Zn1632 Zn    0.75000   0.50000   0.78229   0.00000  Uiso   1.00
loop_
_geom_bond_atom_site_label_1
_geom_bond_atom_site_label_2
_geom_bond_distance
_geom_bond_site_symmetry_2
_ccdc_geom_bond_type
C1     O117    1.290   .     A
C1     O127    1.293   .     A
C1     C30     1.427   .     S
C2     N113    1.431   .     S
C2     C547    1.431   .     S
C2     N225    1.360   .     S
C3     N114    1.433   .     S
C3     C1090   1.431   1_554 S
C3     N236    1.386   .     S
C4     N115    1.424   .     S
C4     N89     1.380   .     A
C4     C584    1.425   .     S
C5     N111    1.364   .     A
C5     N116    1.430   .     S
C5     C1096   1.427   1_554 S
C6     N90     1.430   .     S
C6     C551    1.414   .     S
C6     N382    1.376   .     S
C7     N91     1.426   .     S
C7     C1094   1.414   1_554 S
C7     N383    1.372   .     S
C8     N110    1.380   .     A
C8     N92     1.426   .     S
C8     C549    1.427   .     S
C9     C20     1.390   .     A
C9     N93     1.433   .     S
C9     C28     1.399   .     A
C10    C27     1.398   .     A
C10    N94     1.431   .     S
C10    C21     1.379   .     A
C11    C18     1.390   .     A
C11    C27     1.399   .     A
C11    N95     1.437   .     S
C12    C29     1.432   .     S
C12    O126    1.291   .     A
C12    O125    1.294   .     A
C13    C28     1.399   .     A
C13    C19     1.390   .     A
C13    N96     1.437   .     S
C14    C30     1.406   .     A
C14    N97     1.439   .     S
C14    C25     1.382   .     A
C15    C29     1.404   .     A
C15    C26     1.391   .     A
C15    N98     1.438   .     S
C16    C29     1.410   .     A
C16    C22     1.377   .     A
C16    N99     1.428   .     S
C17    N101    1.433   .     S
C17    C30     1.403   .     A
C17    C24     1.390   .     A
C18    N102    1.434   .     S
C18    C32     1.401   .     A
C19    C31     1.399   .     A
C19    N103    1.433   .     S
C20    N104    1.437   .     S
C20    C31     1.398   .     A
C21    C32     1.404   .     A
C21    N105    1.438   .     S
C22    C35     1.398   .     A
C22    N106    1.439   .     S
C23    O131    1.287   .     A
C23    C28     1.413   .     S
C23    O128    1.289   .     A
C24    N107    1.447   .     S
C24    C33     1.413   .     A
C25    N108    1.434   .     S
C25    C33     1.404   .     A
C26    N109    1.433   .     S
C26    C35     1.403   .     A
C27    C34     1.413   .     S
C31    C39     1.413   .     S
C32    C38     1.411   .     S
C33    C37     1.425   .     S
C34    O129    1.289   .     A
C34    O130    1.287   .     A
C35    C36     1.422   .     S
C36    O132    1.291   .     A
C36    O120    1.290   .     A
C37    O118    1.290   .     A
C37    O119    1.292   .     A
C38    O124    1.284   .     A
C38    O121    1.290   .     A
C39    O122    1.289   .     A
C39    O123    1.287   .     A
C40    N112    1.431   .     S
C40    N100    1.361   .     A
C40    C1092   1.425   1_554 S
H41    N112    1.046   .     S
H42    N116    1.045   .     S
H43    N90     1.043   .     S
H44    N90     1.040   .     S
H45    N91     1.038   .     S
H46    N91     1.044   .     S
H47    N92     1.038   .     S
H48    N92     1.044   .     S
H49    N93     1.045   .     S
H50    N93     1.045   .     S
H51    N94     1.046   .     S
H52    N248    1.045   .     S
H53    N94     1.046   .     S
H54    N95     1.045   .     S
H55    N95     1.045   .     S
H56    N96     1.045   .     S
H57    N96     1.045   .     S
H58    N97     1.045   .     S
H59    N97     1.044   .     S
H60    N98     1.045   .     S
H61    N98     1.045   .     S
H62    N99     1.044   .     S
H63    N249    1.045   1_455 S
H64    N99     1.038   .     S
H65    N101    1.046   .     S
H66    N101    1.043   .     S
H67    N102    1.045   .     S
H68    N102    1.045   .     S
H69    N103    1.045   .     S
H70    N103    1.045   .     S
H71    N104    1.045   .     S
H72    N104    1.045   .     S
H73    N105    1.043   .     S
H74    N113    1.046   .     S
H75    N105    1.044   .     S
H76    N106    1.046   .     S
H77    N106    1.046   .     S
H78    N107    1.040   .     S
H79    N107    1.045   .     S
H80    N108    1.046   .     S
H81    N108    1.045   .     S
H82    N109    1.045   .     S
H83    N109    1.044   .     S
H84    N114    1.031   .     S
H85    N250    1.044   1_455 S
H86    N115    1.035   .     S
H87    N115    1.044   .     S
H88    N116    1.046   .     S
N89    Zn133   2.031   .     S
N89    C138    1.360   1_455 S
N100   Zn134   2.031   .     S
N100   C139    1.386   1_455 S
N110   Zn135   2.031   .     S
N110   C278    1.376   1_545 S
N111   Zn136   2.031   .     S
N111   C279    1.372   1_545 S
N112   H188    1.045   1_455 S
N113   H199    1.045   .     S
N114   H221    1.044   .     S
O117   Zn133   1.995   .     S
O118   Zn136   1.995   .     S
O119   Zn135   2.018   .     S
O120   Zn408   2.018   .     S
O121   Zn408   1.998   .     S
O122   Zn135   1.998   .     S
O123   Zn136   1.981   .     S
O124   Zn407   1.981   .     S
O125   Zn270   1.995   .     S
O126   Zn269   2.018   .     S
O127   Zn134   2.018   .     S
O128   Zn270   1.998   .     S
O129   Zn133   1.998   .     S
O130   Zn134   1.981   .     S
O131   Zn269   1.981   .     S
O132   Zn407   1.995   .     S
Zn133  O267    1.981   1_455 S
Zn133  O262    2.018   1_455 S
Zn134  O264    1.998   1_455 S
Zn134  O261    1.995   1_455 S
Zn135  O396    1.981   1_545 S
Zn135  O404    1.995   1_545 S
Zn136  O393    1.998   1_545 S
Zn136  O392    2.018   1_545 S
C137   O253    1.290   .     A
C137   O263    1.293   .     A
C137   C166    1.427   .     S
C138   N249    1.431   .     S
C138   C683    1.431   .     S
C138   N89     1.360   1_655 S
C139   N250    1.433   .     S
C139   C1226   1.431   1_554 S
C139   N100    1.386   1_655 S
C140   N251    1.424   .     S
C140   N225    1.380   .     A
C140   C720    1.425   .     S
C141   N247    1.364   .     A
C141   N252    1.430   .     S
C141   C1232   1.427   1_554 S
C142   N226    1.430   .     S
C142   C687    1.414   .     S
C142   N518    1.376   .     S
C143   N227    1.426   .     S
C143   C1230   1.414   1_554 S
C143   N519    1.372   .     S
C144   N246    1.380   .     A
C144   N228    1.426   .     S
C144   C685    1.427   .     S
C145   C156    1.390   .     A
C145   N229    1.433   .     S
C145   C164    1.399   .     A
C146   C163    1.398   .     A
C146   N230    1.431   .     S
C146   C157    1.379   .     A
C147   C154    1.390   .     A
C147   C163    1.399   .     A
C147   N231    1.437   .     S
C148   C165    1.432   .     S
C148   O262    1.291   .     A
C148   O261    1.294   .     A
C149   C164    1.399   .     A
C149   C155    1.390   .     A
C149   N232    1.437   .     S
C150   C166    1.406   .     A
C150   N233    1.439   .     S
C150   C161    1.382   .     A
C151   C165    1.404   .     A
C151   C162    1.391   .     A
C151   N234    1.438   .     S
C152   C165    1.410   .     A
C152   C158    1.377   .     A
C152   N235    1.428   .     S
C153   N237    1.433   .     S
C153   C166    1.403   .     A
C153   C160    1.390   .     A
C154   N238    1.434   .     S
C154   C168    1.401   .     A
C155   C167    1.399   .     A
C155   N239    1.433   .     S
C156   N240    1.437   .     S
C156   C167    1.398   .     A
C157   C168    1.404   .     A
C157   N241    1.438   .     S
C158   C171    1.398   .     A
C158   N242    1.439   .     S
C159   O267    1.287   .     A
C159   C164    1.413   .     S
C159   O264    1.289   .     A
C160   N243    1.447   .     S
C160   C169    1.413   .     A
C161   N244    1.434   .     S
C161   C169    1.404   .     A
C162   N245    1.433   .     S
C162   C171    1.403   .     A
C163   C170    1.413   .     S
C167   C175    1.413   .     S
C168   C174    1.411   .     S
C169   C173    1.425   .     S
C170   O265    1.289   .     A
C170   O266    1.287   .     A
C171   C172    1.422   .     S
C172   O268    1.291   .     A
C172   O256    1.290   .     A
C173   O254    1.290   .     A
C173   O255    1.292   .     A
C174   O260    1.284   .     A
C174   O257    1.290   .     A
C175   O258    1.289   .     A
C175   O259    1.287   .     A
C176   N248    1.431   .     S
C176   N236    1.361   .     A
C176   C1228   1.425   1_554 S
H177   N248    1.046   .     S
H178   N252    1.045   .     S
H179   N226    1.043   .     S
H180   N226    1.040   .     S
H181   N227    1.038   .     S
H182   N227    1.044   .     S
H183   N228    1.038   .     S
H184   N228    1.044   .     S
H185   N229    1.045   .     S
H186   N229    1.045   .     S
H187   N230    1.046   .     S
H188   N112    1.045   1_655 S
H189   N230    1.046   .     S
H190   N231    1.045   .     S
H191   N231    1.045   .     S
H192   N232    1.045   .     S
H193   N232    1.045   .     S
H194   N233    1.045   .     S
H195   N233    1.044   .     S
H196   N234    1.045   .     S
H197   N234    1.045   .     S
H198   N235    1.044   .     S
H200   N235    1.038   .     S
H201   N237    1.046   .     S
H202   N237    1.043   .     S
H203   N238    1.045   .     S
H204   N238    1.045   .     S
H205   N239    1.045   .     S
H206   N239    1.045   .     S
H207   N240    1.045   .     S
H208   N240    1.045   .     S
H209   N241    1.043   .     S
H210   N249    1.046   .     S
H211   N241    1.044   .     S
H212   N242    1.046   .     S
H213   N242    1.046   .     S
H214   N243    1.040   .     S
H215   N243    1.045   .     S
H216   N244    1.046   .     S
H217   N244    1.045   .     S
H218   N245    1.045   .     S
H219   N245    1.044   .     S
H220   N250    1.031   .     S
H222   N251    1.035   .     S
H223   N251    1.044   .     S
H224   N252    1.046   .     S
N225   Zn269   2.031   .     S
N236   Zn270   2.031   .     S
N246   Zn271   2.031   .     S
N246   C414    1.376   1_545 S
N247   Zn272   2.031   .     S
N247   C415    1.372   1_545 S
N249   H63     1.045   1_655 S
N250   H85     1.044   1_655 S
O253   Zn269   1.995   .     S
O254   Zn272   1.995   .     S
O255   Zn271   2.018   .     S
O256   Zn544   2.018   .     S
O257   Zn544   1.998   .     S
O258   Zn271   1.998   .     S
O259   Zn272   1.981   .     S
O260   Zn543   1.981   .     S
O261   Zn134   1.995   1_655 S
O262   Zn133   2.018   1_655 S
O263   Zn270   2.018   .     S
O264   Zn134   1.998   1_655 S
O265   Zn269   1.998   .     S
O266   Zn270   1.981   .     S
O267   Zn133   1.981   1_655 S
O268   Zn543   1.995   .     S
Zn271  O532    1.981   1_545 S
Zn271  O540    1.995   1_545 S
Zn272  O529    1.998   1_545 S
Zn272  O528    2.018   1_545 S
C273   O389    1.290   .     A
C273   O399    1.293   .     A
C273   C302    1.427   .     S
C274   N385    1.431   .     S
C274   C819    1.431   .     S
C274   N497    1.360   .     S
C275   N386    1.433   .     S
C275   C1362   1.431   1_554 S
C275   N508    1.386   .     S
C276   N387    1.424   .     S
C276   N361    1.380   .     A
C276   C856    1.425   .     S
C277   N383    1.364   .     A
C277   N388    1.430   .     S
C277   C1368   1.427   1_554 S
C278   N362    1.430   .     S
C278   C823    1.414   .     S
C278   N110    1.376   1_565 S
C279   N363    1.426   .     S
C279   C1366   1.414   1_554 S
C279   N111    1.372   1_565 S
C280   N382    1.380   .     A
C280   N364    1.426   .     S
C280   C821    1.427   .     S
C281   C292    1.390   .     A
C281   N365    1.433   .     S
C281   C300    1.399   .     A
C282   C299    1.398   .     A
C282   N366    1.431   .     S
C282   C293    1.379   .     A
C283   C290    1.390   .     A
C283   C299    1.399   .     A
C283   N367    1.437   .     S
C284   C301    1.432   .     S
C284   O398    1.291   .     A
C284   O397    1.294   .     A
C285   C300    1.399   .     A
C285   C291    1.390   .     A
C285   N368    1.437   .     S
C286   C302    1.406   .     A
C286   N369    1.439   .     S
C286   C297    1.382   .     A
C287   C301    1.404   .     A
C287   C298    1.391   .     A
C287   N370    1.438   .     S
C288   C301    1.410   .     A
C288   C294    1.377   .     A
C288   N371    1.428   .     S
C289   N373    1.433   .     S
C289   C302    1.403   .     A
C289   C296    1.390   .     A
C290   N374    1.434   .     S
C290   C304    1.401   .     A
C291   C303    1.399   .     A
C291   N375    1.433   .     S
C292   N376    1.437   .     S
C292   C303    1.398   .     A
C293   C304    1.404   .     A
C293   N377    1.438   .     S
C294   C307    1.398   .     A
C294   N378    1.439   .     S
C295   O403    1.287   .     A
C295   C300    1.413   .     S
C295   O400    1.289   .     A
C296   N379    1.447   .     S
C296   C305    1.413   .     A
C297   N380    1.434   .     S
C297   C305    1.404   .     A
C298   N381    1.433   .     S
C298   C307    1.403   .     A
C299   C306    1.413   .     S
C303   C311    1.413   .     S
C304   C310    1.411   .     S
C305   C309    1.425   .     S
C306   O401    1.289   .     A
C306   O402    1.287   .     A
C307   C308    1.422   .     S
C308   O404    1.291   .     A
C308   O392    1.290   .     A
C309   O390    1.290   .     A
C309   O391    1.292   .     A
C310   O396    1.284   .     A
C310   O393    1.290   .     A
C311   O394    1.289   .     A
C311   O395    1.287   .     A
C312   N384    1.431   .     S
C312   N372    1.361   .     A
C312   C1364   1.425   1_554 S
H313   N384    1.046   .     S
H314   N388    1.045   .     S
H315   N362    1.043   .     S
H316   N362    1.040   .     S
H317   N363    1.038   .     S
H318   N363    1.044   .     S
H319   N364    1.038   .     S
H320   N364    1.044   .     S
H321   N365    1.045   .     S
H322   N365    1.045   .     S
H323   N366    1.046   .     S
H324   N520    1.045   .     S
H325   N366    1.046   .     S
H326   N367    1.045   .     S
H327   N367    1.045   .     S
H328   N368    1.045   .     S
H329   N368    1.045   .     S
H330   N369    1.045   .     S
H331   N369    1.044   .     S
H332   N370    1.045   .     S
H333   N370    1.045   .     S
H334   N371    1.044   .     S
H335   N521    1.045   1_455 S
H336   N371    1.038   .     S
H337   N373    1.046   .     S
H338   N373    1.043   .     S
H339   N374    1.045   .     S
H340   N374    1.045   .     S
H341   N375    1.045   .     S
H342   N375    1.045   .     S
H343   N376    1.045   .     S
H344   N376    1.045   .     S
H345   N377    1.043   .     S
H346   N385    1.046   .     S
H347   N377    1.044   .     S
H348   N378    1.046   .     S
H349   N378    1.046   .     S
H350   N379    1.040   .     S
H351   N379    1.045   .     S
H352   N380    1.046   .     S
H353   N380    1.045   .     S
H354   N381    1.045   .     S
H355   N381    1.044   .     S
H356   N386    1.031   .     S
H357   N522    1.044   1_455 S
H358   N387    1.035   .     S
H359   N387    1.044   .     S
H360   N388    1.046   .     S
N361   Zn405   2.031   .     S
N361   C410    1.360   1_455 S
N372   Zn406   2.031   .     S
N372   C411    1.386   1_455 S
N382   Zn407   2.031   .     S
N383   Zn408   2.031   .     S
N384   H460    1.045   1_455 S
N385   H471    1.045   .     S
N386   H493    1.044   .     S
O389   Zn405   1.995   .     S
O390   Zn408   1.995   .     S
O391   Zn407   2.018   .     S
O392   Zn136   2.018   1_565 S
O393   Zn136   1.998   1_565 S
O394   Zn407   1.998   .     S
O395   Zn408   1.981   .     S
O396   Zn135   1.981   1_565 S
O397   Zn542   1.995   .     S
O398   Zn541   2.018   .     S
O399   Zn406   2.018   .     S
O400   Zn542   1.998   .     S
O401   Zn405   1.998   .     S
O402   Zn406   1.981   .     S
O403   Zn541   1.981   .     S
O404   Zn135   1.995   1_565 S
Zn405  O539    1.981   1_455 S
Zn405  O534    2.018   1_455 S
Zn406  O536    1.998   1_455 S
Zn406  O533    1.995   1_455 S
C409   O525    1.290   .     A
C409   O535    1.293   .     A
C409   C438    1.427   .     S
C410   N521    1.431   .     S
C410   C955    1.431   .     S
C410   N361    1.360   1_655 S
C411   N522    1.433   .     S
C411   C1498   1.431   1_554 S
C411   N372    1.386   1_655 S
C412   N523    1.424   .     S
C412   N497    1.380   .     A
C412   C992    1.425   .     S
C413   N519    1.364   .     A
C413   N524    1.430   .     S
C413   C1504   1.427   1_554 S
C414   N498    1.430   .     S
C414   C959    1.414   .     S
C414   N246    1.376   1_565 S
C415   N499    1.426   .     S
C415   C1502   1.414   1_554 S
C415   N247    1.372   1_565 S
C416   N518    1.380   .     A
C416   N500    1.426   .     S
C416   C957    1.427   .     S
C417   C428    1.390   .     A
C417   N501    1.433   .     S
C417   C436    1.399   .     A
C418   C435    1.398   .     A
C418   N502    1.431   .     S
C418   C429    1.379   .     A
C419   C426    1.390   .     A
C419   C435    1.399   .     A
C419   N503    1.437   .     S
C420   C437    1.432   .     S
C420   O534    1.291   .     A
C420   O533    1.294   .     A
C421   C436    1.399   .     A
C421   C427    1.390   .     A
C421   N504    1.437   .     S
C422   C438    1.406   .     A
C422   N505    1.439   .     S
C422   C433    1.382   .     A
C423   C437    1.404   .     A
C423   C434    1.391   .     A
C423   N506    1.438   .     S
C424   C437    1.410   .     A
C424   C430    1.377   .     A
C424   N507    1.428   .     S
C425   N509    1.433   .     S
C425   C438    1.403   .     A
C425   C432    1.390   .     A
C426   N510    1.434   .     S
C426   C440    1.401   .     A
C427   C439    1.399   .     A
C427   N511    1.433   .     S
C428   N512    1.437   .     S
C428   C439    1.398   .     A
C429   C440    1.404   .     A
C429   N513    1.438   .     S
C430   C443    1.398   .     A
C430   N514    1.439   .     S
C431   O539    1.287   .     A
C431   C436    1.413   .     S
C431   O536    1.289   .     A
C432   N515    1.447   .     S
C432   C441    1.413   .     A
C433   N516    1.434   .     S
C433   C441    1.404   .     A
C434   N517    1.433   .     S
C434   C443    1.403   .     A
C435   C442    1.413   .     S
C439   C447    1.413   .     S
C440   C446    1.411   .     S
C441   C445    1.425   .     S
C442   O537    1.289   .     A
C442   O538    1.287   .     A
C443   C444    1.422   .     S
C444   O540    1.291   .     A
C444   O528    1.290   .     A
C445   O526    1.290   .     A
C445   O527    1.292   .     A
C446   O532    1.284   .     A
C446   O529    1.290   .     A
C447   O530    1.289   .     A
C447   O531    1.287   .     A
C448   N520    1.431   .     S
C448   N508    1.361   .     A
C448   C1500   1.425   1_554 S
H449   N520    1.046   .     S
H450   N524    1.045   .     S
H451   N498    1.043   .     S
H452   N498    1.040   .     S
H453   N499    1.038   .     S
H454   N499    1.044   .     S
H455   N500    1.038   .     S
H456   N500    1.044   .     S
H457   N501    1.045   .     S
H458   N501    1.045   .     S
H459   N502    1.046   .     S
H460   N384    1.045   1_655 S
H461   N502    1.046   .     S
H462   N503    1.045   .     S
H463   N503    1.045   .     S
H464   N504    1.045   .     S
H465   N504    1.045   .     S
H466   N505    1.045   .     S
H467   N505    1.044   .     S
H468   N506    1.045   .     S
H469   N506    1.045   .     S
H470   N507    1.044   .     S
H472   N507    1.038   .     S
H473   N509    1.046   .     S
H474   N509    1.043   .     S
H475   N510    1.045   .     S
H476   N510    1.045   .     S
H477   N511    1.045   .     S
H478   N511    1.045   .     S
H479   N512    1.045   .     S
H480   N512    1.045   .     S
H481   N513    1.043   .     S
H482   N521    1.046   .     S
H483   N513    1.044   .     S
H484   N514    1.046   .     S
H485   N514    1.046   .     S
H486   N515    1.040   .     S
H487   N515    1.045   .     S
H488   N516    1.046   .     S
H489   N516    1.045   .     S
H490   N517    1.045   .     S
H491   N517    1.044   .     S
H492   N522    1.031   .     S
H494   N523    1.035   .     S
H495   N523    1.044   .     S
H496   N524    1.046   .     S
N497   Zn541   2.031   .     S
N508   Zn542   2.031   .     S
N518   Zn543   2.031   .     S
N519   Zn544   2.031   .     S
N521   H335    1.045   1_655 S
N522   H357    1.044   1_655 S
O525   Zn541   1.995   .     S
O526   Zn544   1.995   .     S
O527   Zn543   2.018   .     S
O528   Zn272   2.018   1_565 S
O529   Zn272   1.998   1_565 S
O530   Zn543   1.998   .     S
O531   Zn544   1.981   .     S
O532   Zn271   1.981   1_565 S
O533   Zn406   1.995   1_655 S
O534   Zn405   2.018   1_655 S
O535   Zn542   2.018   .     S
O536   Zn406   1.998   1_655 S
O537   Zn541   1.998   .     S
O538   Zn542   1.981   .     S
O539   Zn405   1.981   1_655 S
O540   Zn271   1.995   1_565 S
C545   O661    1.290   .     A
C545   O671    1.293   .     A
C545   C574    1.427   .     S
C546   N657    1.431   .     S
C546   C1091   1.431   .     S
C546   N769    1.360   .     S
C547   N658    1.433   .     S
C547   N780    1.386   .     S
C548   N659    1.424   .     S
C548   N633    1.380   .     A
C548   C1128   1.425   .     S
C549   N655    1.364   .     A
C549   N660    1.430   .     S
C550   N634    1.430   .     S
C550   C1095   1.414   .     S
C550   N926    1.376   .     S
C551   N635    1.426   .     S
C551   N927    1.372   .     S
C552   N654    1.380   .     A
C552   N636    1.426   .     S
C552   C1093   1.427   .     S
C553   C564    1.390   .     A
C553   N637    1.433   .     S
C553   C572    1.399   .     A
C554   C571    1.398   .     A
C554   N638    1.431   .     S
C554   C565    1.379   .     A
C555   C562    1.390   .     A
C555   C571    1.399   .     A
C555   N639    1.437   .     S
C556   C573    1.432   .     S
C556   O670    1.291   .     A
C556   O669    1.294   .     A
C557   C572    1.399   .     A
C557   C563    1.390   .     A
C557   N640    1.437   .     S
C558   C574    1.406   .     A
C558   N641    1.439   .     S
C558   C569    1.382   .     A
C559   C573    1.404   .     A
C559   C570    1.391   .     A
C559   N642    1.438   .     S
C560   C573    1.410   .     A
C560   C566    1.377   .     A
C560   N643    1.428   .     S
C561   N645    1.433   .     S
C561   C574    1.403   .     A
C561   C568    1.390   .     A
C562   N646    1.434   .     S
C562   C576    1.401   .     A
C563   C575    1.399   .     A
C563   N647    1.433   .     S
C564   N648    1.437   .     S
C564   C575    1.398   .     A
C565   C576    1.404   .     A
C565   N649    1.438   .     S
C566   C579    1.398   .     A
C566   N650    1.439   .     S
C567   O675    1.287   .     A
C567   C572    1.413   .     S
C567   O672    1.289   .     A
C568   N651    1.447   .     S
C568   C577    1.413   .     A
C569   N652    1.434   .     S
C569   C577    1.404   .     A
C570   N653    1.433   .     S
C570   C579    1.403   .     A
C571   C578    1.413   .     S
C575   C583    1.413   .     S
C576   C582    1.411   .     S
C577   C581    1.425   .     S
C578   O673    1.289   .     A
C578   O674    1.287   .     A
C579   C580    1.422   .     S
C580   O676    1.291   .     A
C580   O664    1.290   .     A
C581   O662    1.290   .     A
C581   O663    1.292   .     A
C582   O668    1.284   .     A
C582   O665    1.290   .     A
C583   O666    1.289   .     A
C583   O667    1.287   .     A
C584   N656    1.431   .     S
C584   N644    1.361   .     A
H585   N656    1.046   .     S
H586   N660    1.045   .     S
H587   N634    1.043   .     S
H588   N634    1.040   .     S
H589   N635    1.038   .     S
H590   N635    1.044   .     S
H591   N636    1.038   .     S
H592   N636    1.044   .     S
H593   N637    1.045   .     S
H594   N637    1.045   .     S
H595   N638    1.046   .     S
H596   N792    1.045   .     S
H597   N638    1.046   .     S
H598   N639    1.045   .     S
H599   N639    1.045   .     S
H600   N640    1.045   .     S
H601   N640    1.045   .     S
H602   N641    1.045   .     S
H603   N641    1.044   .     S
H604   N642    1.045   .     S
H605   N642    1.045   .     S
H606   N643    1.044   .     S
H607   N793    1.045   1_455 S
H608   N643    1.038   .     S
H609   N645    1.046   .     S
H610   N645    1.043   .     S
H611   N646    1.045   .     S
H612   N646    1.045   .     S
H613   N647    1.045   .     S
H614   N647    1.045   .     S
H615   N648    1.045   .     S
H616   N648    1.045   .     S
H617   N649    1.043   .     S
H618   N657    1.046   .     S
H619   N649    1.044   .     S
H620   N650    1.046   .     S
H621   N650    1.046   .     S
H622   N651    1.040   .     S
H623   N651    1.045   .     S
H624   N652    1.046   .     S
H625   N652    1.045   .     S
H626   N653    1.045   .     S
H627   N653    1.044   .     S
H628   N658    1.031   .     S
H629   N794    1.044   1_455 S
H630   N659    1.035   .     S
H631   N659    1.044   .     S
H632   N660    1.046   .     S
N633   Zn677   2.031   .     S
N633   C682    1.360   1_455 S
N644   Zn678   2.031   .     S
N644   C683    1.386   1_455 S
N654   Zn679   2.031   .     S
N654   C822    1.376   1_545 S
N655   Zn680   2.031   .     S
N655   C823    1.372   1_545 S
N656   H732    1.045   1_455 S
N657   H743    1.045   .     S
N658   H765    1.044   .     S
O661   Zn677   1.995   .     S
O662   Zn680   1.995   .     S
O663   Zn679   2.018   .     S
O664   Zn952   2.018   .     S
O665   Zn952   1.998   .     S
O666   Zn679   1.998   .     S
O667   Zn680   1.981   .     S
O668   Zn951   1.981   .     S
O669   Zn814   1.995   .     S
O670   Zn813   2.018   .     S
O671   Zn678   2.018   .     S
O672   Zn814   1.998   .     S
O673   Zn677   1.998   .     S
O674   Zn678   1.981   .     S
O675   Zn813   1.981   .     S
O676   Zn951   1.995   .     S
Zn677  O811    1.981   1_455 S
Zn677  O806    2.018   1_455 S
Zn678  O808    1.998   1_455 S
Zn678  O805    1.995   1_455 S
Zn679  O940    1.981   1_545 S
Zn679  O948    1.995   1_545 S
Zn680  O937    1.998   1_545 S
Zn680  O936    2.018   1_545 S
C681   O797    1.290   .     A
C681   O807    1.293   .     A
C681   C710    1.427   .     S
C682   N793    1.431   .     S
C682   C1227   1.431   .     S
C682   N633    1.360   1_655 S
C683   N794    1.433   .     S
C683   N644    1.386   1_655 S
C684   N795    1.424   .     S
C684   N769    1.380   .     A
C684   C1264   1.425   .     S
C685   N791    1.364   .     A
C685   N796    1.430   .     S
C686   N770    1.430   .     S
C686   C1231   1.414   .     S
C686   N1062   1.376   .     S
C687   N771    1.426   .     S
C687   N1063   1.372   .     S
C688   N790    1.380   .     A
C688   N772    1.426   .     S
C688   C1229   1.427   .     S
C689   C700    1.390   .     A
C689   N773    1.433   .     S
C689   C708    1.399   .     A
C690   C707    1.398   .     A
C690   N774    1.431   .     S
C690   C701    1.379   .     A
C691   C698    1.390   .     A
C691   C707    1.399   .     A
C691   N775    1.437   .     S
C692   C709    1.432   .     S
C692   O806    1.291   .     A
C692   O805    1.294   .     A
C693   C708    1.399   .     A
C693   C699    1.390   .     A
C693   N776    1.437   .     S
C694   C710    1.406   .     A
C694   N777    1.439   .     S
C694   C705    1.382   .     A
C695   C709    1.404   .     A
C695   C706    1.391   .     A
C695   N778    1.438   .     S
C696   C709    1.410   .     A
C696   C702    1.377   .     A
C696   N779    1.428   .     S
C697   N781    1.433   .     S
C697   C710    1.403   .     A
C697   C704    1.390   .     A
C698   N782    1.434   .     S
C698   C712    1.401   .     A
C699   C711    1.399   .     A
C699   N783    1.433   .     S
C700   N784    1.437   .     S
C700   C711    1.398   .     A
C701   C712    1.404   .     A
C701   N785    1.438   .     S
C702   C715    1.398   .     A
C702   N786    1.439   .     S
C703   O811    1.287   .     A
C703   C708    1.413   .     S
C703   O808    1.289   .     A
C704   N787    1.447   .     S
C704   C713    1.413   .     A
C705   N788    1.434   .     S
C705   C713    1.404   .     A
C706   N789    1.433   .     S
C706   C715    1.403   .     A
C707   C714    1.413   .     S
C711   C719    1.413   .     S
C712   C718    1.411   .     S
C713   C717    1.425   .     S
C714   O809    1.289   .     A
C714   O810    1.287   .     A
C715   C716    1.422   .     S
C716   O812    1.291   .     A
C716   O800    1.290   .     A
C717   O798    1.290   .     A
C717   O799    1.292   .     A
C718   O804    1.284   .     A
C718   O801    1.290   .     A
C719   O802    1.289   .     A
C719   O803    1.287   .     A
C720   N792    1.431   .     S
C720   N780    1.361   .     A
H721   N792    1.046   .     S
H722   N796    1.045   .     S
H723   N770    1.043   .     S
H724   N770    1.040   .     S
H725   N771    1.038   .     S
H726   N771    1.044   .     S
H727   N772    1.038   .     S
H728   N772    1.044   .     S
H729   N773    1.045   .     S
H730   N773    1.045   .     S
H731   N774    1.046   .     S
H732   N656    1.045   1_655 S
H733   N774    1.046   .     S
H734   N775    1.045   .     S
H735   N775    1.045   .     S
H736   N776    1.045   .     S
H737   N776    1.045   .     S
H738   N777    1.045   .     S
H739   N777    1.044   .     S
H740   N778    1.045   .     S
H741   N778    1.045   .     S
H742   N779    1.044   .     S
H744   N779    1.038   .     S
H745   N781    1.046   .     S
H746   N781    1.043   .     S
H747   N782    1.045   .     S
H748   N782    1.045   .     S
H749   N783    1.045   .     S
H750   N783    1.045   .     S
H751   N784    1.045   .     S
H752   N784    1.045   .     S
H753   N785    1.043   .     S
H754   N793    1.046   .     S
H755   N785    1.044   .     S
H756   N786    1.046   .     S
H757   N786    1.046   .     S
H758   N787    1.040   .     S
H759   N787    1.045   .     S
H760   N788    1.046   .     S
H761   N788    1.045   .     S
H762   N789    1.045   .     S
H763   N789    1.044   .     S
H764   N794    1.031   .     S
H766   N795    1.035   .     S
H767   N795    1.044   .     S
H768   N796    1.046   .     S
N769   Zn813   2.031   .     S
N780   Zn814   2.031   .     S
N790   Zn815   2.031   .     S
N790   C958    1.376   1_545 S
N791   Zn816   2.031   .     S
N791   C959    1.372   1_545 S
N793   H607    1.045   1_655 S
N794   H629    1.044   1_655 S
O797   Zn813   1.995   .     S
O798   Zn816   1.995   .     S
O799   Zn815   2.018   .     S
O800   Zn1088  2.018   .     S
O801   Zn1088  1.998   .     S
O802   Zn815   1.998   .     S
O803   Zn816   1.981   .     S
O804   Zn1087  1.981   .     S
O805   Zn678   1.995   1_655 S
O806   Zn677   2.018   1_655 S
O807   Zn814   2.018   .     S
O808   Zn678   1.998   1_655 S
O809   Zn813   1.998   .     S
O810   Zn814   1.981   .     S
O811   Zn677   1.981   1_655 S
O812   Zn1087  1.995   .     S
Zn815  O1076   1.981   1_545 S
Zn815  O1084   1.995   1_545 S
Zn816  O1073   1.998   1_545 S
Zn816  O1072   2.018   1_545 S
C817   O933    1.290   .     A
C817   O943    1.293   .     A
C817   C846    1.427   .     S
C818   N929    1.431   .     S
C818   C1363   1.431   .     S
C818   N1041   1.360   .     S
C819   N930    1.433   .     S
C819   N1052   1.386   .     S
C820   N931    1.424   .     S
C820   N905    1.380   .     A
C820   C1400   1.425   .     S
C821   N927    1.364   .     A
C821   N932    1.430   .     S
C822   N906    1.430   .     S
C822   C1367   1.414   .     S
C822   N654    1.376   1_565 S
C823   N907    1.426   .     S
C823   N655    1.372   1_565 S
C824   N926    1.380   .     A
C824   N908    1.426   .     S
C824   C1365   1.427   .     S
C825   C836    1.390   .     A
C825   N909    1.433   .     S
C825   C844    1.399   .     A
C826   C843    1.398   .     A
C826   N910    1.431   .     S
C826   C837    1.379   .     A
C827   C834    1.390   .     A
C827   C843    1.399   .     A
C827   N911    1.437   .     S
C828   C845    1.432   .     S
C828   O942    1.291   .     A
C828   O941    1.294   .     A
C829   C844    1.399   .     A
C829   C835    1.390   .     A
C829   N912    1.437   .     S
C830   C846    1.406   .     A
C830   N913    1.439   .     S
C830   C841    1.382   .     A
C831   C845    1.404   .     A
C831   C842    1.391   .     A
C831   N914    1.438   .     S
C832   C845    1.410   .     A
C832   C838    1.377   .     A
C832   N915    1.428   .     S
C833   N917    1.433   .     S
C833   C846    1.403   .     A
C833   C840    1.390   .     A
C834   N918    1.434   .     S
C834   C848    1.401   .     A
C835   C847    1.399   .     A
C835   N919    1.433   .     S
C836   N920    1.437   .     S
C836   C847    1.398   .     A
C837   C848    1.404   .     A
C837   N921    1.438   .     S
C838   C851    1.398   .     A
C838   N922    1.439   .     S
C839   O947    1.287   .     A
C839   C844    1.413   .     S
C839   O944    1.289   .     A
C840   N923    1.447   .     S
C840   C849    1.413   .     A
C841   N924    1.434   .     S
C841   C849    1.404   .     A
C842   N925    1.433   .     S
C842   C851    1.403   .     A
C843   C850    1.413   .     S
C847   C855    1.413   .     S
C848   C854    1.411   .     S
C849   C853    1.425   .     S
C850   O945    1.289   .     A
C850   O946    1.287   .     A
C851   C852    1.422   .     S
C852   O948    1.291   .     A
C852   O936    1.290   .     A
C853   O934    1.290   .     A
C853   O935    1.292   .     A
C854   O940    1.284   .     A
C854   O937    1.290   .     A
C855   O938    1.289   .     A
C855   O939    1.287   .     A
C856   N928    1.431   .     S
C856   N916    1.361   .     A
H857   N928    1.046   .     S
H858   N932    1.045   .     S
H859   N906    1.043   .     S
H860   N906    1.040   .     S
H861   N907    1.038   .     S
H862   N907    1.044   .     S
H863   N908    1.038   .     S
H864   N908    1.044   .     S
H865   N909    1.045   .     S
H866   N909    1.045   .     S
H867   N910    1.046   .     S
H868   N1064   1.045   .     S
H869   N910    1.046   .     S
H870   N911    1.045   .     S
H871   N911    1.045   .     S
H872   N912    1.045   .     S
H873   N912    1.045   .     S
H874   N913    1.045   .     S
H875   N913    1.044   .     S
H876   N914    1.045   .     S
H877   N914    1.045   .     S
H878   N915    1.044   .     S
H879   N1065   1.045   1_455 S
H880   N915    1.038   .     S
H881   N917    1.046   .     S
H882   N917    1.043   .     S
H883   N918    1.045   .     S
H884   N918    1.045   .     S
H885   N919    1.045   .     S
H886   N919    1.045   .     S
H887   N920    1.045   .     S
H888   N920    1.045   .     S
H889   N921    1.043   .     S
H890   N929    1.046   .     S
H891   N921    1.044   .     S
H892   N922    1.046   .     S
H893   N922    1.046   .     S
H894   N923    1.040   .     S
H895   N923    1.045   .     S
H896   N924    1.046   .     S
H897   N924    1.045   .     S
H898   N925    1.045   .     S
H899   N925    1.044   .     S
H900   N930    1.031   .     S
H901   N1066   1.044   1_455 S
H902   N931    1.035   .     S
H903   N931    1.044   .     S
H904   N932    1.046   .     S
N905   Zn949   2.031   .     S
N905   C954    1.360   1_455 S
N916   Zn950   2.031   .     S
N916   C955    1.386   1_455 S
N926   Zn951   2.031   .     S
N927   Zn952   2.031   .     S
N928   H1004   1.045   1_455 S
N929   H1015   1.045   .     S
N930   H1037   1.044   .     S
O933   Zn949   1.995   .     S
O934   Zn952   1.995   .     S
O935   Zn951   2.018   .     S
O936   Zn680   2.018   1_565 S
O937   Zn680   1.998   1_565 S
O938   Zn951   1.998   .     S
O939   Zn952   1.981   .     S
O940   Zn679   1.981   1_565 S
O941   Zn1086  1.995   .     S
O942   Zn1085  2.018   .     S
O943   Zn950   2.018   .     S
O944   Zn1086  1.998   .     S
O945   Zn949   1.998   .     S
O946   Zn950   1.981   .     S
O947   Zn1085  1.981   .     S
O948   Zn679   1.995   1_565 S
Zn949  O1083   1.981   1_455 S
Zn949  O1078   2.018   1_455 S
Zn950  O1080   1.998   1_455 S
Zn950  O1077   1.995   1_455 S
C953   O1069   1.290   .     A
C953   O1079   1.293   .     A
C953   C982    1.427   .     S
C954   N1065   1.431   .     S
C954   C1499   1.431   .     S
C954   N905    1.360   1_655 S
C955   N1066   1.433   .     S
C955   N916    1.386   1_655 S
C956   N1067   1.424   .     S
C956   N1041   1.380   .     A
C956   C1536   1.425   .     S
C957   N1063   1.364   .     A
C957   N1068   1.430   .     S
C958   N1042   1.430   .     S
C958   C1503   1.414   .     S
C958   N790    1.376   1_565 S
C959   N1043   1.426   .     S
C959   N791    1.372   1_565 S
C960   N1062   1.380   .     A
C960   N1044   1.426   .     S
C960   C1501   1.427   .     S
C961   C972    1.390   .     A
C961   N1045   1.433   .     S
C961   C980    1.399   .     A
C962   C979    1.398   .     A
C962   N1046   1.431   .     S
C962   C973    1.379   .     A
C963   C970    1.390   .     A
C963   C979    1.399   .     A
C963   N1047   1.437   .     S
C964   C981    1.432   .     S
C964   O1078   1.291   .     A
C964   O1077   1.294   .     A
C965   C980    1.399   .     A
C965   C971    1.390   .     A
C965   N1048   1.437   .     S
C966   C982    1.406   .     A
C966   N1049   1.439   .     S
C966   C977    1.382   .     A
C967   C981    1.404   .     A
C967   C978    1.391   .     A
C967   N1050   1.438   .     S
C968   C981    1.410   .     A
C968   C974    1.377   .     A
C968   N1051   1.428   .     S
C969   N1053   1.433   .     S
C969   C982    1.403   .     A
C969   C976    1.390   .     A
C970   N1054   1.434   .     S
C970   C984    1.401   .     A
C971   C983    1.399   .     A
C971   N1055   1.433   .     S
C972   N1056   1.437   .     S
C972   C983    1.398   .     A
C973   C984    1.404   .     A
C973   N1057   1.438   .     S
C974   C987    1.398   .     A
C974   N1058   1.439   .     S
C975   O1083   1.287   .     A
C975   C980    1.413   .     S
C975   O1080   1.289   .     A
C976   N1059   1.447   .     S
C976   C985    1.413   .     A
C977   N1060   1.434   .     S
C977   C985    1.404   .     A
C978   N1061   1.433   .     S
C978   C987    1.403   .     A
C979   C986    1.413   .     S
C983   C991    1.413   .     S
C984   C990    1.411   .     S
C985   C989    1.425   .     S
C986   O1081   1.289   .     A
C986   O1082   1.287   .     A
C987   C988    1.422   .     S
C988   O1084   1.291   .     A
C988   O1072   1.290   .     A
C989   O1070   1.290   .     A
C989   O1071   1.292   .     A
C990   O1076   1.284   .     A
C990   O1073   1.290   .     A
C991   O1074   1.289   .     A
C991   O1075   1.287   .     A
C992   N1064   1.431   .     S
C992   N1052   1.361   .     A
H993   N1064   1.046   .     S
H994   N1068   1.045   .     S
H995   N1042   1.043   .     S
H996   N1042   1.040   .     S
H997   N1043   1.038   .     S
H998   N1043   1.044   .     S
H999   N1044   1.038   .     S
H1000  N1044   1.044   .     S
H1001  N1045   1.045   .     S
H1002  N1045   1.045   .     S
H1003  N1046   1.046   .     S
H1004  N928    1.045   1_655 S
H1005  N1046   1.046   .     S
H1006  N1047   1.045   .     S
H1007  N1047   1.045   .     S
H1008  N1048   1.045   .     S
H1009  N1048   1.045   .     S
H1010  N1049   1.045   .     S
H1011  N1049   1.044   .     S
H1012  N1050   1.045   .     S
H1013  N1050   1.045   .     S
H1014  N1051   1.044   .     S
H1016  N1051   1.038   .     S
H1017  N1053   1.046   .     S
H1018  N1053   1.043   .     S
H1019  N1054   1.045   .     S
H1020  N1054   1.045   .     S
H1021  N1055   1.045   .     S
H1022  N1055   1.045   .     S
H1023  N1056   1.045   .     S
H1024  N1056   1.045   .     S
H1025  N1057   1.043   .     S
H1026  N1065   1.046   .     S
H1027  N1057   1.044   .     S
H1028  N1058   1.046   .     S
H1029  N1058   1.046   .     S
H1030  N1059   1.040   .     S
H1031  N1059   1.045   .     S
H1032  N1060   1.046   .     S
H1033  N1060   1.045   .     S
H1034  N1061   1.045   .     S
H1035  N1061   1.044   .     S
H1036  N1066   1.031   .     S
H1038  N1067   1.035   .     S
H1039  N1067   1.044   .     S
H1040  N1068   1.046   .     S
N1041  Zn1085  2.031   .     S
N1052  Zn1086  2.031   .     S
N1062  Zn1087  2.031   .     S
N1063  Zn1088  2.031   .     S
N1065  H879    1.045   1_655 S
N1066  H901    1.044   1_655 S
O1069  Zn1085  1.995   .     S
O1070  Zn1088  1.995   .     S
O1071  Zn1087  2.018   .     S
O1072  Zn816   2.018   1_565 S
O1073  Zn816   1.998   1_565 S
O1074  Zn1087  1.998   .     S
O1075  Zn1088  1.981   .     S
O1076  Zn815   1.981   1_565 S
O1077  Zn950   1.995   1_655 S
O1078  Zn949   2.018   1_655 S
O1079  Zn1086  2.018   .     S
O1080  Zn950   1.998   1_655 S
O1081  Zn1085  1.998   .     S
O1082  Zn1086  1.981   .     S
O1083  Zn949   1.981   1_655 S
O1084  Zn815   1.995   1_565 S
C1089  O1205   1.290   .     A
C1089  O1215   1.293   .     A
C1089  C1118   1.427   .     S
C1090  N1201   1.431   .     S
C1090  C3      1.431   1_556 S
C1090  N1313   1.360   .     S
C1091  N1202   1.433   .     S
C1091  N1324   1.386   .     S
C1092  N1203   1.424   .     S
C1092  N1177   1.380   .     A
C1092  C40     1.425   1_556 S
C1093  N1199   1.364   .     A
C1093  N1204   1.430   .     S
C1094  N1178   1.430   .     S
C1094  C7      1.414   1_556 S
C1094  N1470   1.376   .     S
C1095  N1179   1.426   .     S
C1095  N1471   1.372   .     S
C1096  N1198   1.380   .     A
C1096  N1180   1.426   .     S
C1096  C5      1.427   1_556 S
C1097  C1108   1.390   .     A
C1097  N1181   1.433   .     S
C1097  C1116   1.399   .     A
C1098  C1115   1.398   .     A
C1098  N1182   1.431   .     S
C1098  C1109   1.379   .     A
C1099  C1106   1.390   .     A
C1099  C1115   1.399   .     A
C1099  N1183   1.437   .     S
C1100  C1117   1.432   .     S
C1100  O1214   1.291   .     A
C1100  O1213   1.294   .     A
C1101  C1116   1.399   .     A
C1101  C1107   1.390   .     A
C1101  N1184   1.437   .     S
C1102  C1118   1.406   .     A
C1102  N1185   1.439   .     S
C1102  C1113   1.382   .     A
C1103  C1117   1.404   .     A
C1103  C1114   1.391   .     A
C1103  N1186   1.438   .     S
C1104  C1117   1.410   .     A
C1104  C1110   1.377   .     A
C1104  N1187   1.428   .     S
C1105  N1189   1.433   .     S
C1105  C1118   1.403   .     A
C1105  C1112   1.390   .     A
C1106  N1190   1.434   .     S
C1106  C1120   1.401   .     A
C1107  C1119   1.399   .     A
C1107  N1191   1.433   .     S
C1108  N1192   1.437   .     S
C1108  C1119   1.398   .     A
C1109  C1120   1.404   .     A
C1109  N1193   1.438   .     S
C1110  C1123   1.398   .     A
C1110  N1194   1.439   .     S
C1111  O1219   1.287   .     A
C1111  C1116   1.413   .     S
C1111  O1216   1.289   .     A
C1112  N1195   1.447   .     S
C1112  C1121   1.413   .     A
C1113  N1196   1.434   .     S
C1113  C1121   1.404   .     A
C1114  N1197   1.433   .     S
C1114  C1123   1.403   .     A
C1115  C1122   1.413   .     S
C1119  C1127   1.413   .     S
C1120  C1126   1.411   .     S
C1121  C1125   1.425   .     S
C1122  O1217   1.289   .     A
C1122  O1218   1.287   .     A
C1123  C1124   1.422   .     S
C1124  O1220   1.291   .     A
C1124  O1208   1.290   .     A
C1125  O1206   1.290   .     A
C1125  O1207   1.292   .     A
C1126  O1212   1.284   .     A
C1126  O1209   1.290   .     A
C1127  O1210   1.289   .     A
C1127  O1211   1.287   .     A
C1128  N1200   1.431   .     S
C1128  N1188   1.361   .     A
H1129  N1200   1.046   .     S
H1130  N1204   1.045   .     S
H1131  N1178   1.043   .     S
H1132  N1178   1.040   .     S
H1133  N1179   1.038   .     S
H1134  N1179   1.044   .     S
H1135  N1180   1.038   .     S
H1136  N1180   1.044   .     S
H1137  N1181   1.045   .     S
H1138  N1181   1.045   .     S
H1139  N1182   1.046   .     S
H1140  N1336   1.045   .     S
H1141  N1182   1.046   .     S
H1142  N1183   1.045   .     S
H1143  N1183   1.045   .     S
H1144  N1184   1.045   .     S
H1145  N1184   1.045   .     S
H1146  N1185   1.045   .     S
H1147  N1185   1.044   .     S
H1148  N1186   1.045   .     S
H1149  N1186   1.045   .     S
H1150  N1187   1.044   .     S
H1151  N1337   1.045   1_455 S
H1152  N1187   1.038   .     S
H1153  N1189   1.046   .     S
H1154  N1189   1.043   .     S
H1155  N1190   1.045   .     S
H1156  N1190   1.045   .     S
H1157  N1191   1.045   .     S
H1158  N1191   1.045   .     S
H1159  N1192   1.045   .     S
H1160  N1192   1.045   .     S
H1161  N1193   1.043   .     S
H1162  N1201   1.046   .     S
H1163  N1193   1.044   .     S
H1164  N1194   1.046   .     S
H1165  N1194   1.046   .     S
H1166  N1195   1.040   .     S
H1167  N1195   1.045   .     S
H1168  N1196   1.046   .     S
H1169  N1196   1.045   .     S
H1170  N1197   1.045   .     S
H1171  N1197   1.044   .     S
H1172  N1202   1.031   .     S
H1173  N1338   1.044   1_455 S
H1174  N1203   1.035   .     S
H1175  N1203   1.044   .     S
H1176  N1204   1.046   .     S
N1177  Zn1221  2.031   .     S
N1177  C1226   1.360   1_455 S
N1188  Zn1222  2.031   .     S
N1188  C1227   1.386   1_455 S
N1198  Zn1223  2.031   .     S
N1198  C1366   1.376   1_545 S
N1199  Zn1224  2.031   .     S
N1199  C1367   1.372   1_545 S
N1200  H1276   1.045   1_455 S
N1201  H1287   1.045   .     S
N1202  H1309   1.044   .     S
O1205  Zn1221  1.995   .     S
O1206  Zn1224  1.995   .     S
O1207  Zn1223  2.018   .     S
O1208  Zn1496  2.018   .     S
O1209  Zn1496  1.998   .     S
O1210  Zn1223  1.998   .     S
O1211  Zn1224  1.981   .     S
O1212  Zn1495  1.981   .     S
O1213  Zn1358  1.995   .     S
O1214  Zn1357  2.018   .     S
O1215  Zn1222  2.018   .     S
O1216  Zn1358  1.998   .     S
O1217  Zn1221  1.998   .     S
O1218  Zn1222  1.981   .     S
O1219  Zn1357  1.981   .     S
O1220  Zn1495  1.995   .     S
Zn1221 O1355   1.981   1_455 S
Zn1221 O1350   2.018   1_455 S
Zn1222 O1352   1.998   1_455 S
Zn1222 O1349   1.995   1_455 S
Zn1223 O1484   1.981   1_545 S
Zn1223 O1492   1.995   1_545 S
Zn1224 O1481   1.998   1_545 S
Zn1224 O1480   2.018   1_545 S
C1225  O1341   1.290   .     A
C1225  O1351   1.293   .     A
C1225  C1254   1.427   .     S
C1226  N1337   1.431   .     S
C1226  C139    1.431   1_556 S
C1226  N1177   1.360   1_655 S
C1227  N1338   1.433   .     S
C1227  N1188   1.386   1_655 S
C1228  N1339   1.424   .     S
C1228  N1313   1.380   .     A
C1228  C176    1.425   1_556 S
C1229  N1335   1.364   .     A
C1229  N1340   1.430   .     S
C1230  N1314   1.430   .     S
C1230  C143    1.414   1_556 S
C1230  N1606   1.376   .     S
C1231  N1315   1.426   .     S
C1231  N1607   1.372   .     S
C1232  N1334   1.380   .     A
C1232  N1316   1.426   .     S
C1232  C141    1.427   1_556 S
C1233  C1244   1.390   .     A
C1233  N1317   1.433   .     S
C1233  C1252   1.399   .     A
C1234  C1251   1.398   .     A
C1234  N1318   1.431   .     S
C1234  C1245   1.379   .     A
C1235  C1242   1.390   .     A
C1235  C1251   1.399   .     A
C1235  N1319   1.437   .     S
C1236  C1253   1.432   .     S
C1236  O1350   1.291   .     A
C1236  O1349   1.294   .     A
C1237  C1252   1.399   .     A
C1237  C1243   1.390   .     A
C1237  N1320   1.437   .     S
C1238  C1254   1.406   .     A
C1238  N1321   1.439   .     S
C1238  C1249   1.382   .     A
C1239  C1253   1.404   .     A
C1239  C1250   1.391   .     A
C1239  N1322   1.438   .     S
C1240  C1253   1.410   .     A
C1240  C1246   1.377   .     A
C1240  N1323   1.428   .     S
C1241  N1325   1.433   .     S
C1241  C1254   1.403   .     A
C1241  C1248   1.390   .     A
C1242  N1326   1.434   .     S
C1242  C1256   1.401   .     A
C1243  C1255   1.399   .     A
C1243  N1327   1.433   .     S
C1244  N1328   1.437   .     S
C1244  C1255   1.398   .     A
C1245  C1256   1.404   .     A
C1245  N1329   1.438   .     S
C1246  C1259   1.398   .     A
C1246  N1330   1.439   .     S
C1247  O1355   1.287   .     A
C1247  C1252   1.413   .     S
C1247  O1352   1.289   .     A
C1248  N1331   1.447   .     S
C1248  C1257   1.413   .     A
C1249  N1332   1.434   .     S
C1249  C1257   1.404   .     A
C1250  N1333   1.433   .     S
C1250  C1259   1.403   .     A
C1251  C1258   1.413   .     S
C1255  C1263   1.413   .     S
C1256  C1262   1.411   .     S
C1257  C1261   1.425   .     S
C1258  O1353   1.289   .     A
C1258  O1354   1.287   .     A
C1259  C1260   1.422   .     S
C1260  O1356   1.291   .     A
C1260  O1344   1.290   .     A
C1261  O1342   1.290   .     A
C1261  O1343   1.292   .     A
C1262  O1348   1.284   .     A
C1262  O1345   1.290   .     A
C1263  O1346   1.289   .     A
C1263  O1347   1.287   .     A
C1264  N1336   1.431   .     S
C1264  N1324   1.361   .     A
H1265  N1336   1.046   .     S
H1266  N1340   1.045   .     S
H1267  N1314   1.043   .     S
H1268  N1314   1.040   .     S
H1269  N1315   1.038   .     S
H1270  N1315   1.044   .     S
H1271  N1316   1.038   .     S
H1272  N1316   1.044   .     S
H1273  N1317   1.045   .     S
H1274  N1317   1.045   .     S
H1275  N1318   1.046   .     S
H1276  N1200   1.045   1_655 S
H1277  N1318   1.046   .     S
H1278  N1319   1.045   .     S
H1279  N1319   1.045   .     S
H1280  N1320   1.045   .     S
H1281  N1320   1.045   .     S
H1282  N1321   1.045   .     S
H1283  N1321   1.044   .     S
H1284  N1322   1.045   .     S
H1285  N1322   1.045   .     S
H1286  N1323   1.044   .     S
H1288  N1323   1.038   .     S
H1289  N1325   1.046   .     S
H1290  N1325   1.043   .     S
H1291  N1326   1.045   .     S
H1292  N1326   1.045   .     S
H1293  N1327   1.045   .     S
H1294  N1327   1.045   .     S
H1295  N1328   1.045   .     S
H1296  N1328   1.045   .     S
H1297  N1329   1.043   .     S
H1298  N1337   1.046   .     S
H1299  N1329   1.044   .     S
H1300  N1330   1.046   .     S
H1301  N1330   1.046   .     S
H1302  N1331   1.040   .     S
H1303  N1331   1.045   .     S
H1304  N1332   1.046   .     S
H1305  N1332   1.045   .     S
H1306  N1333   1.045   .     S
H1307  N1333   1.044   .     S
H1308  N1338   1.031   .     S
H1310  N1339   1.035   .     S
H1311  N1339   1.044   .     S
H1312  N1340   1.046   .     S
N1313  Zn1357  2.031   .     S
N1324  Zn1358  2.031   .     S
N1334  Zn1359  2.031   .     S
N1334  C1502   1.376   1_545 S
N1335  Zn1360  2.031   .     S
N1335  C1503   1.372   1_545 S
N1337  H1151   1.045   1_655 S
N1338  H1173   1.044   1_655 S
O1341  Zn1357  1.995   .     S
O1342  Zn1360  1.995   .     S
O1343  Zn1359  2.018   .     S
O1344  Zn1632  2.018   .     S
O1345  Zn1632  1.998   .     S
O1346  Zn1359  1.998   .     S
O1347  Zn1360  1.981   .     S
O1348  Zn1631  1.981   .     S
O1349  Zn1222  1.995   1_655 S
O1350  Zn1221  2.018   1_655 S
O1351  Zn1358  2.018   .     S
O1352  Zn1222  1.998   1_655 S
O1353  Zn1357  1.998   .     S
O1354  Zn1358  1.981   .     S
O1355  Zn1221  1.981   1_655 S
O1356  Zn1631  1.995   .     S
Zn1359 O1620   1.981   1_545 S
Zn1359 O1628   1.995   1_545 S
Zn1360 O1617   1.998   1_545 S
Zn1360 O1616   2.018   1_545 S
C1361  O1477   1.290   .     A
C1361  O1487   1.293   .     A
C1361  C1390   1.427   .     S
C1362  N1473   1.431   .     S
C1362  C275    1.431   1_556 S
C1362  N1585   1.360   .     S
C1363  N1474   1.433   .     S
C1363  N1596   1.386   .     S
C1364  N1475   1.424   .     S
C1364  N1449   1.380   .     A
C1364  C312    1.425   1_556 S
C1365  N1471   1.364   .     A
C1365  N1476   1.430   .     S
C1366  N1450   1.430   .     S
C1366  C279    1.414   1_556 S
C1366  N1198   1.376   1_565 S
C1367  N1451   1.426   .     S
C1367  N1199   1.372   1_565 S
C1368  N1470   1.380   .     A
C1368  N1452   1.426   .     S
C1368  C277    1.427   1_556 S
C1369  C1380   1.390   .     A
C1369  N1453   1.433   .     S
C1369  C1388   1.399   .     A
C1370  C1387   1.398   .     A
C1370  N1454   1.431   .     S
C1370  C1381   1.379   .     A
C1371  C1378   1.390   .     A
C1371  C1387   1.399   .     A
C1371  N1455   1.437   .     S
C1372  C1389   1.432   .     S
C1372  O1486   1.291   .     A
C1372  O1485   1.294   .     A
C1373  C1388   1.399   .     A
C1373  C1379   1.390   .     A
C1373  N1456   1.437   .     S
C1374  C1390   1.406   .     A
C1374  N1457   1.439   .     S
C1374  C1385   1.382   .     A
C1375  C1389   1.404   .     A
C1375  C1386   1.391   .     A
C1375  N1458   1.438   .     S
C1376  C1389   1.410   .     A
C1376  C1382   1.377   .     A
C1376  N1459   1.428   .     S
C1377  N1461   1.433   .     S
C1377  C1390   1.403   .     A
C1377  C1384   1.390   .     A
C1378  N1462   1.434   .     S
C1378  C1392   1.401   .     A
C1379  C1391   1.399   .     A
C1379  N1463   1.433   .     S
C1380  N1464   1.437   .     S
C1380  C1391   1.398   .     A
C1381  C1392   1.404   .     A
C1381  N1465   1.438   .     S
C1382  C1395   1.398   .     A
C1382  N1466   1.439   .     S
C1383  O1491   1.287   .     A
C1383  C1388   1.413   .     S
C1383  O1488   1.289   .     A
C1384  N1467   1.447   .     S
C1384  C1393   1.413   .     A
C1385  N1468   1.434   .     S
C1385  C1393   1.404   .     A
C1386  N1469   1.433   .     S
C1386  C1395   1.403   .     A
C1387  C1394   1.413   .     S
C1391  C1399   1.413   .     S
C1392  C1398   1.411   .     S
C1393  C1397   1.425   .     S
C1394  O1489   1.289   .     A
C1394  O1490   1.287   .     A
C1395  C1396   1.422   .     S
C1396  O1492   1.291   .     A
C1396  O1480   1.290   .     A
C1397  O1478   1.290   .     A
C1397  O1479   1.292   .     A
C1398  O1484   1.284   .     A
C1398  O1481   1.290   .     A
C1399  O1482   1.289   .     A
C1399  O1483   1.287   .     A
C1400  N1472   1.431   .     S
C1400  N1460   1.361   .     A
H1401  N1472   1.046   .     S
H1402  N1476   1.045   .     S
H1403  N1450   1.043   .     S
H1404  N1450   1.040   .     S
H1405  N1451   1.038   .     S
H1406  N1451   1.044   .     S
H1407  N1452   1.038   .     S
H1408  N1452   1.044   .     S
H1409  N1453   1.045   .     S
H1410  N1453   1.045   .     S
H1411  N1454   1.046   .     S
H1412  N1608   1.045   .     S
H1413  N1454   1.046   .     S
H1414  N1455   1.045   .     S
H1415  N1455   1.045   .     S
H1416  N1456   1.045   .     S
H1417  N1456   1.045   .     S
H1418  N1457   1.045   .     S
H1419  N1457   1.044   .     S
H1420  N1458   1.045   .     S
H1421  N1458   1.045   .     S
H1422  N1459   1.044   .     S
H1423  N1609   1.045   1_455 S
H1424  N1459   1.038   .     S
H1425  N1461   1.046   .     S
H1426  N1461   1.043   .     S
H1427  N1462   1.045   .     S
H1428  N1462   1.045   .     S
H1429  N1463   1.045   .     S
H1430  N1463   1.045   .     S
H1431  N1464   1.045   .     S
H1432  N1464   1.045   .     S
H1433  N1465   1.043   .     S
H1434  N1473   1.046   .     S
H1435  N1465   1.044   .     S
H1436  N1466   1.046   .     S
H1437  N1466   1.046   .     S
H1438  N1467   1.040   .     S
H1439  N1467   1.045   .     S
H1440  N1468   1.046   .     S
H1441  N1468   1.045   .     S
H1442  N1469   1.045   .     S
H1443  N1469   1.044   .     S
H1444  N1474   1.031   .     S
H1445  N1610   1.044   1_455 S
H1446  N1475   1.035   .     S
H1447  N1475   1.044   .     S
H1448  N1476   1.046   .     S
N1449  Zn1493  2.031   .     S
N1449  C1498   1.360   1_455 S
N1460  Zn1494  2.031   .     S
N1460  C1499   1.386   1_455 S
N1470  Zn1495  2.031   .     S
N1471  Zn1496  2.031   .     S
N1472  H1548   1.045   1_455 S
N1473  H1559   1.045   .     S
N1474  H1581   1.044   .     S
O1477  Zn1493  1.995   .     S
O1478  Zn1496  1.995   .     S
O1479  Zn1495  2.018   .     S
O1480  Zn1224  2.018   1_565 S
O1481  Zn1224  1.998   1_565 S
O1482  Zn1495  1.998   .     S
O1483  Zn1496  1.981   .     S
O1484  Zn1223  1.981   1_565 S
O1485  Zn1630  1.995   .     S
O1486  Zn1629  2.018   .     S
O1487  Zn1494  2.018   .     S
O1488  Zn1630  1.998   .     S
O1489  Zn1493  1.998   .     S
O1490  Zn1494  1.981   .     S
O1491  Zn1629  1.981   .     S
O1492  Zn1223  1.995   1_565 S
Zn1493 O1627   1.981   1_455 S
Zn1493 O1622   2.018   1_455 S
Zn1494 O1624   1.998   1_455 S
Zn1494 O1621   1.995   1_455 S
C1497  O1613   1.290   .     A
C1497  O1623   1.293   .     A
C1497  C1526   1.427   .     S
C1498  N1609   1.431   .     S
C1498  C411    1.431   1_556 S
C1498  N1449   1.360   1_655 S
C1499  N1610   1.433   .     S
C1499  N1460   1.386   1_655 S
C1500  N1611   1.424   .     S
C1500  N1585   1.380   .     A
C1500  C448    1.425   1_556 S
C1501  N1607   1.364   .     A
C1501  N1612   1.430   .     S
C1502  N1586   1.430   .     S
C1502  C415    1.414   1_556 S
C1502  N1334   1.376   1_565 S
C1503  N1587   1.426   .     S
C1503  N1335   1.372   1_565 S
C1504  N1606   1.380   .     A
C1504  N1588   1.426   .     S
C1504  C413    1.427   1_556 S
C1505  C1516   1.390   .     A
C1505  N1589   1.433   .     S
C1505  C1524   1.399   .     A
C1506  C1523   1.398   .     A
C1506  N1590   1.431   .     S
C1506  C1517   1.379   .     A
C1507  C1514   1.390   .     A
C1507  C1523   1.399   .     A
C1507  N1591   1.437   .     S
C1508  C1525   1.432   .     S
C1508  O1622   1.291   .     A
C1508  O1621   1.294   .     A
C1509  C1524   1.399   .     A
C1509  C1515   1.390   .     A
C1509  N1592   1.437   .     S
C1510  C1526   1.406   .     A
C1510  N1593   1.439   .     S
C1510  C1521   1.382   .     A
C1511  C1525   1.404   .     A
C1511  C1522   1.391   .     A
C1511  N1594   1.438   .     S
C1512  C1525   1.410   .     A
C1512  C1518   1.377   .     A
C1512  N1595   1.428   .     S
C1513  N1597   1.433   .     S
C1513  C1526   1.403   .     A
C1513  C1520   1.390   .     A
C1514  N1598   1.434   .     S
C1514  C1528   1.401   .     A
C1515  C1527   1.399   .     A
C1515  N1599   1.433   .     S
C1516  N1600   1.437   .     S
C1516  C1527   1.398   .     A
C1517  C1528   1.404   .     A
C1517  N1601   1.438   .     S
C1518  C1531   1.398   .     A
C1518  N1602   1.439   .     S
C1519  O1627   1.287   .     A
C1519  C1524   1.413   .     S
C1519  O1624   1.289   .     A
C1520  N1603   1.447   .     S
C1520  C1529   1.413   .     A
C1521  N1604   1.434   .     S
C1521  C1529   1.404   .     A
C1522  N1605   1.433   .     S
C1522  C1531   1.403   .     A
C1523  C1530   1.413   .     S
C1527  C1535   1.413   .     S
C1528  C1534   1.411   .     S
C1529  C1533   1.425   .     S
C1530  O1625   1.289   .     A
C1530  O1626   1.287   .     A
C1531  C1532   1.422   .     S
C1532  O1628   1.291   .     A
C1532  O1616   1.290   .     A
C1533  O1614   1.290   .     A
C1533  O1615   1.292   .     A
C1534  O1620   1.284   .     A
C1534  O1617   1.290   .     A
C1535  O1618   1.289   .     A
C1535  O1619   1.287   .     A
C1536  N1608   1.431   .     S
C1536  N1596   1.361   .     A
H1537  N1608   1.046   .     S
H1538  N1612   1.045   .     S
H1539  N1586   1.043   .     S
H1540  N1586   1.040   .     S
H1541  N1587   1.038   .     S
H1542  N1587   1.044   .     S
H1543  N1588   1.038   .     S
H1544  N1588   1.044   .     S
H1545  N1589   1.045   .     S
H1546  N1589   1.045   .     S
H1547  N1590   1.046   .     S
H1548  N1472   1.045   1_655 S
H1549  N1590   1.046   .     S
H1550  N1591   1.045   .     S
H1551  N1591   1.045   .     S
H1552  N1592   1.045   .     S
H1553  N1592   1.045   .     S
H1554  N1593   1.045   .     S
H1555  N1593   1.044   .     S
H1556  N1594   1.045   .     S
H1557  N1594   1.045   .     S
H1558  N1595   1.044   .     S
H1560  N1595   1.038   .     S
H1561  N1597   1.046   .     S
H1562  N1597   1.043   .     S
H1563  N1598   1.045   .     S
H1564  N1598   1.045   .     S
H1565  N1599   1.045   .     S
H1566  N1599   1.045   .     S
H1567  N1600   1.045   .     S
H1568  N1600   1.045   .     S
H1569  N1601   1.043   .     S
H1570  N1609   1.046   .     S
H1571  N1601   1.044   .     S
H1572  N1602   1.046   .     S
H1573  N1602   1.046   .     S
H1574  N1603   1.040   .     S
H1575  N1603   1.045   .     S
H1576  N1604   1.046   .     S
H1577  N1604   1.045   .     S
H1578  N1605   1.045   .     S
H1579  N1605   1.044   .     S
H1580  N1610   1.031   .     S
H1582  N1611   1.035   .     S
H1583  N1611   1.044   .     S
H1584  N1612   1.046   .     S
N1585  Zn1629  2.031   .     S
N1596  Zn1630  2.031   .     S
N1606  Zn1631  2.031   .     S
N1607  Zn1632  2.031   .     S
N1609  H1423   1.045   1_655 S
N1610  H1445   1.044   1_655 S
O1613  Zn1629  1.995   .     S
O1614  Zn1632  1.995   .     S
O1615  Zn1631  2.018   .     S
O1616  Zn1360  2.018   1_565 S
O1617  Zn1360  1.998   1_565 S
O1618  Zn1631  1.998   .     S
O1619  Zn1632  1.981   .     S
O1620  Zn1359  1.981   1_565 S
O1621  Zn1494  1.995   1_655 S
O1622  Zn1493  2.018   1_655 S
O1623  Zn1630  2.018   .     S
O1624  Zn1494  1.998   1_655 S
O1625  Zn1629  1.998   .     S
O1626  Zn1630  1.981   .     S
O1627  Zn1493  1.981   1_655 S
O1628  Zn1359  1.995   1_565 S
