data_str_m3_o2_o10_pcu_sym.233
_audit_creation_date              2020-01-03
_audit_creation_method            'Materials Studio'
_symmetry_space_group_name_H-M    'P1'
_symmetry_Int_Tables_number       1
_symmetry_cell_setting            triclinic
loop_
_symmetry_equiv_pos_as_xyz
  x,y,z
_cell_length_a                    25.8380
_cell_length_b                    29.8277
_cell_length_c                    28.4265
_cell_angle_alpha                 88.9356
_cell_angle_beta                  98.1669
_cell_angle_gamma                 90.8073
loop_
_atom_site_label
_atom_site_type_symbol
_atom_site_fract_x
_atom_site_fract_y
_atom_site_fract_z
_atom_site_U_iso_or_equiv
_atom_site_adp_type
_atom_site_occupancy
C1     C     0.16646   0.16395   0.25039   0.00000  Uiso   1.00
C2     C     0.16585   0.33607   0.24956   0.00000  Uiso   1.00
C3     C     0.12307   0.23334   0.04758   0.00000  Uiso   1.00
C4     C     0.17646   0.28990   0.44778   0.00000  Uiso   1.00
C5     C     0.12499   0.23240   0.09734   0.00000  Uiso   1.00
C6     C     0.17785   0.28855   0.39847   0.00000  Uiso   1.00
C7     C     0.20724   0.26956   0.10685   0.00000  Uiso   1.00
C8     C     0.15316   0.21189   0.39723   0.00000  Uiso   1.00
C9     C     0.20879   0.26800   0.05710   0.00000  Uiso   1.00
C10    C     0.15478   0.21100   0.44732   0.00000  Uiso   1.00
C11    C     0.16536   0.25112   0.02652   0.00000  Uiso   1.00
C12    C     0.16515   0.25079   0.47327   0.00000  Uiso   1.00
C13    C     0.06722   0.24958   0.23781   0.00000  Uiso   1.00
C14    C     0.26612   0.25004   0.26223   0.00000  Uiso   1.00
C15    C     0.01268   0.24577   0.23161   0.00000  Uiso   1.00
C16    C     0.32071   0.25308   0.26862   0.00000  Uiso   1.00
C17    C     0.19325   0.04471   0.28387   0.00000  Uiso   1.00
C18    C     0.12272   0.45103   0.27217   0.00000  Uiso   1.00
C19    C     0.19658   0.09140   0.28527   0.00000  Uiso   1.00
C20    C     0.12465   0.40459   0.27224   0.00000  Uiso   1.00
C21    C     0.16355   0.11600   0.25107   0.00000  Uiso   1.00
C22    C     0.16180   0.38395   0.24846   0.00000  Uiso   1.00
C23    C     0.12614   0.09511   0.21796   0.00000  Uiso   1.00
C24    C     0.19504   0.40914   0.22338   0.00000  Uiso   1.00
C25    C     0.12257   0.04864   0.21711   0.00000  Uiso   1.00
C26    C     0.19352   0.45577   0.22364   0.00000  Uiso   1.00
C27    C     0.15621   0.02398   0.25043   0.00000  Uiso   1.00
C28    C     0.15668   0.47605   0.24782   0.00000  Uiso   1.00
H29    H     0.22021   0.02431   0.30756   0.00000  Uiso   1.00
H30    H     0.09519   0.46755   0.29134   0.00000  Uiso   1.00
H31    H     0.09960   0.11495   0.19319   0.00000  Uiso   1.00
H32    H     0.22264   0.39255   0.20468   0.00000  Uiso   1.00
H33    H     0.09249   0.21810   0.11286   0.00000  Uiso   1.00
H34    H     0.18730   0.31886   0.37991   0.00000  Uiso   1.00
N35    N     0.16667   0.24999   0.12624   0.00000  Uiso   1.00
N36    N     0.16667   0.25001   0.37377   0.00000  Uiso   1.00
O37    O     0.16667   0.18454   0.28974   0.00000  Uiso   1.00
O38    O     0.16666   0.31547   0.21026   0.00000  Uiso   1.00
O39    O     0.16667   0.18453   0.21026   0.00000  Uiso   1.00
O40    O     0.16666   0.31547   0.28974   0.00000  Uiso   1.00
O41    O     0.09058   0.25000   0.28045   0.00000  Uiso   1.00
O42    O     0.24275   0.25000   0.21956   0.00000  Uiso   1.00
O43    O     0.09058   0.25000   0.20097   0.00000  Uiso   1.00
O44    O     0.24275   0.25000   0.29904   0.00000  Uiso   1.00
Zn45   Zn    0.16667   0.25001   0.30307   0.00000  Uiso   1.00
Zn46   Zn    0.16667   0.25000   0.19693   0.00000  Uiso   1.00
F47    F     0.32204   0.23194   0.18835   0.00000  Uiso   1.00
F48    F     0.01143   0.26613   0.31217   0.00000  Uiso   1.00
O49    O     0.23528   0.11378   0.31532   0.00000  Uiso   1.00
C50    C     0.23767   0.09787   0.36264   0.00000  Uiso   1.00
H51    H     0.19814   0.09227   0.37323   0.00000  Uiso   1.00
H52    H     0.25793   0.12360   0.38649   0.00000  Uiso   1.00
H53    H     0.26119   0.06687   0.36823   0.00000  Uiso   1.00
O54    O     0.09191   0.37950   0.29722   0.00000  Uiso   1.00
C55    C     0.04327   0.37435   0.26822   0.00000  Uiso   1.00
H56    H     0.01688   0.35426   0.28812   0.00000  Uiso   1.00
H57    H     0.04739   0.35601   0.23522   0.00000  Uiso   1.00
H58    H     0.02439   0.40728   0.25928   0.00000  Uiso   1.00
O59    O     0.08478   0.02699   0.18583   0.00000  Uiso   1.00
C60    C     0.09751   0.03168   0.13935   0.00000  Uiso   1.00
H61    H     0.13789   0.02006   0.13727   0.00000  Uiso   1.00
H62    H     0.07022   0.01037   0.11543   0.00000  Uiso   1.00
H63    H     0.09262   0.06685   0.12600   0.00000  Uiso   1.00
O64    O     0.22488   0.48225   0.19824   0.00000  Uiso   1.00
C65    C     0.27818   0.47322   0.21334   0.00000  Uiso   1.00
H66    H     0.30190   0.00137   0.20134   0.00000  Uiso   1.00
H67    H     0.29003   0.44234   0.19663   0.00000  Uiso   1.00
H68    H     0.28755   0.47080   0.25281   0.00000  Uiso   1.00
F69    F     0.07963   0.21743   0.02021   0.00000  Uiso   1.00
F70    F     0.18522   0.32963   0.47021   0.00000  Uiso   1.00
O71    O     0.24836   0.28847   0.13653   0.00000  Uiso   1.00
C72    C     0.24699   0.33551   0.13081   0.00000  Uiso   1.00
H73    H     0.27480   0.35035   0.15986   0.00000  Uiso   1.00
H74    H     0.20744   0.34904   0.13294   0.00000  Uiso   1.00
H75    H     0.26018   0.34641   0.09687   0.00000  Uiso   1.00
O76    O     0.14113   0.17301   0.37234   0.00000  Uiso   1.00
C77    C     0.08639   0.16676   0.36521   0.00000  Uiso   1.00
H78    H     0.07661   0.13879   0.34019   0.00000  Uiso   1.00
H79    H     0.06573   0.19696   0.34907   0.00000  Uiso   1.00
H80    H     0.07170   0.15730   0.39896   0.00000  Uiso   1.00
O81    O     0.25180   0.28498   0.03847   0.00000  Uiso   1.00
C82    C     0.29050   0.25178   0.04222   0.00000  Uiso   1.00
H83    H     0.27780   0.22345   0.01831   0.00000  Uiso   1.00
H84    H     0.30133   0.23944   0.07947   0.00000  Uiso   1.00
H85    H     0.32622   0.26674   0.03059   0.00000  Uiso   1.00
O86    O     0.14356   0.17132   0.46992   0.00000  Uiso   1.00
C87    C     0.19072   0.14889   0.48541   0.00000  Uiso   1.00
H88    H     0.21317   0.16605   0.01629   0.00000  Uiso   1.00
H89    H     0.21513   0.14552   0.45641   0.00000  Uiso   1.00
H90    H     0.18120   0.11455   0.49742   0.00000  Uiso   1.00
C91    C     0.49980   0.16395   0.25039   0.00000  Uiso   1.00
C92    C     0.49918   0.33607   0.24956   0.00000  Uiso   1.00
C93    C     0.45640   0.23334   0.04758   0.00000  Uiso   1.00
C94    C     0.50980   0.28990   0.44778   0.00000  Uiso   1.00
C95    C     0.45833   0.23240   0.09734   0.00000  Uiso   1.00
C96    C     0.51119   0.28855   0.39847   0.00000  Uiso   1.00
C97    C     0.54057   0.26956   0.10685   0.00000  Uiso   1.00
C98    C     0.48650   0.21189   0.39723   0.00000  Uiso   1.00
C99    C     0.54213   0.26800   0.05710   0.00000  Uiso   1.00
C100   C     0.48811   0.21100   0.44732   0.00000  Uiso   1.00
C101   C     0.49870   0.25112   0.02652   0.00000  Uiso   1.00
C102   C     0.49848   0.25079   0.47327   0.00000  Uiso   1.00
C103   C     0.40055   0.24958   0.23781   0.00000  Uiso   1.00
C104   C     0.59945   0.25004   0.26223   0.00000  Uiso   1.00
C105   C     0.34601   0.24577   0.23161   0.00000  Uiso   1.00
C106   C     0.65404   0.25308   0.26862   0.00000  Uiso   1.00
C107   C     0.52658   0.04471   0.28387   0.00000  Uiso   1.00
C108   C     0.45605   0.45103   0.27217   0.00000  Uiso   1.00
C109   C     0.52991   0.09140   0.28527   0.00000  Uiso   1.00
C110   C     0.45798   0.40459   0.27224   0.00000  Uiso   1.00
C111   C     0.49688   0.11600   0.25107   0.00000  Uiso   1.00
C112   C     0.49514   0.38395   0.24846   0.00000  Uiso   1.00
C113   C     0.45948   0.09511   0.21796   0.00000  Uiso   1.00
C114   C     0.52837   0.40914   0.22338   0.00000  Uiso   1.00
C115   C     0.45590   0.04864   0.21711   0.00000  Uiso   1.00
C116   C     0.52686   0.45577   0.22364   0.00000  Uiso   1.00
C117   C     0.48955   0.02398   0.25043   0.00000  Uiso   1.00
C118   C     0.49002   0.47605   0.24782   0.00000  Uiso   1.00
H119   H     0.55355   0.02431   0.30756   0.00000  Uiso   1.00
H120   H     0.42853   0.46755   0.29134   0.00000  Uiso   1.00
H121   H     0.43293   0.11495   0.19319   0.00000  Uiso   1.00
H122   H     0.55597   0.39255   0.20468   0.00000  Uiso   1.00
H123   H     0.42582   0.21810   0.11286   0.00000  Uiso   1.00
H124   H     0.52064   0.31886   0.37991   0.00000  Uiso   1.00
N125   N     0.50000   0.24999   0.12624   0.00000  Uiso   1.00
N126   N     0.50000   0.25001   0.37377   0.00000  Uiso   1.00
O127   O     0.50000   0.18454   0.28974   0.00000  Uiso   1.00
O128   O     0.50000   0.31547   0.21026   0.00000  Uiso   1.00
O129   O     0.50000   0.18453   0.21026   0.00000  Uiso   1.00
O130   O     0.50000   0.31547   0.28974   0.00000  Uiso   1.00
O131   O     0.42392   0.25000   0.28045   0.00000  Uiso   1.00
O132   O     0.57608   0.25000   0.21956   0.00000  Uiso   1.00
O133   O     0.42392   0.25000   0.20097   0.00000  Uiso   1.00
O134   O     0.57608   0.25000   0.29904   0.00000  Uiso   1.00
Zn135  Zn    0.50000   0.25001   0.30307   0.00000  Uiso   1.00
Zn136  Zn    0.50000   0.25000   0.19693   0.00000  Uiso   1.00
F137   F     0.65538   0.23194   0.18835   0.00000  Uiso   1.00
F138   F     0.34476   0.26613   0.31217   0.00000  Uiso   1.00
O139   O     0.56861   0.11378   0.31532   0.00000  Uiso   1.00
C140   C     0.57100   0.09787   0.36264   0.00000  Uiso   1.00
H141   H     0.53147   0.09227   0.37323   0.00000  Uiso   1.00
H142   H     0.59127   0.12360   0.38649   0.00000  Uiso   1.00
H143   H     0.59453   0.06687   0.36823   0.00000  Uiso   1.00
O144   O     0.42525   0.37950   0.29722   0.00000  Uiso   1.00
C145   C     0.37660   0.37435   0.26822   0.00000  Uiso   1.00
H146   H     0.35022   0.35426   0.28812   0.00000  Uiso   1.00
H147   H     0.38073   0.35601   0.23522   0.00000  Uiso   1.00
H148   H     0.35772   0.40728   0.25928   0.00000  Uiso   1.00
O149   O     0.41812   0.02699   0.18583   0.00000  Uiso   1.00
C150   C     0.43084   0.03168   0.13935   0.00000  Uiso   1.00
H151   H     0.47122   0.02006   0.13727   0.00000  Uiso   1.00
H152   H     0.40356   0.01037   0.11543   0.00000  Uiso   1.00
H153   H     0.42595   0.06685   0.12600   0.00000  Uiso   1.00
O154   O     0.55821   0.48225   0.19824   0.00000  Uiso   1.00
C155   C     0.61151   0.47322   0.21334   0.00000  Uiso   1.00
H156   H     0.63523   0.00137   0.20134   0.00000  Uiso   1.00
H157   H     0.62337   0.44234   0.19663   0.00000  Uiso   1.00
H158   H     0.62088   0.47080   0.25281   0.00000  Uiso   1.00
F159   F     0.41296   0.21743   0.02021   0.00000  Uiso   1.00
F160   F     0.51855   0.32963   0.47021   0.00000  Uiso   1.00
O161   O     0.58169   0.28847   0.13653   0.00000  Uiso   1.00
C162   C     0.58032   0.33551   0.13081   0.00000  Uiso   1.00
H163   H     0.60813   0.35035   0.15986   0.00000  Uiso   1.00
H164   H     0.54077   0.34904   0.13294   0.00000  Uiso   1.00
H165   H     0.59351   0.34641   0.09687   0.00000  Uiso   1.00
O166   O     0.47446   0.17301   0.37234   0.00000  Uiso   1.00
C167   C     0.41972   0.16676   0.36521   0.00000  Uiso   1.00
H168   H     0.40995   0.13879   0.34019   0.00000  Uiso   1.00
H169   H     0.39906   0.19696   0.34907   0.00000  Uiso   1.00
H170   H     0.40503   0.15730   0.39896   0.00000  Uiso   1.00
O171   O     0.58514   0.28498   0.03847   0.00000  Uiso   1.00
C172   C     0.62383   0.25178   0.04222   0.00000  Uiso   1.00
H173   H     0.61113   0.22345   0.01831   0.00000  Uiso   1.00
H174   H     0.63467   0.23944   0.07947   0.00000  Uiso   1.00
H175   H     0.65955   0.26674   0.03059   0.00000  Uiso   1.00
O176   O     0.47689   0.17132   0.46992   0.00000  Uiso   1.00
C177   C     0.52405   0.14889   0.48541   0.00000  Uiso   1.00
H178   H     0.54650   0.16605   0.01629   0.00000  Uiso   1.00
H179   H     0.54846   0.14552   0.45641   0.00000  Uiso   1.00
H180   H     0.51454   0.11455   0.49742   0.00000  Uiso   1.00
C181   C     0.83313   0.16395   0.25039   0.00000  Uiso   1.00
C182   C     0.83252   0.33607   0.24956   0.00000  Uiso   1.00
C183   C     0.78974   0.23334   0.04758   0.00000  Uiso   1.00
C184   C     0.84313   0.28990   0.44778   0.00000  Uiso   1.00
C185   C     0.79166   0.23240   0.09734   0.00000  Uiso   1.00
C186   C     0.84452   0.28855   0.39847   0.00000  Uiso   1.00
C187   C     0.87390   0.26956   0.10685   0.00000  Uiso   1.00
C188   C     0.81983   0.21189   0.39723   0.00000  Uiso   1.00
C189   C     0.87546   0.26800   0.05710   0.00000  Uiso   1.00
C190   C     0.82145   0.21100   0.44732   0.00000  Uiso   1.00
C191   C     0.83203   0.25112   0.02652   0.00000  Uiso   1.00
C192   C     0.83181   0.25079   0.47327   0.00000  Uiso   1.00
C193   C     0.73389   0.24958   0.23781   0.00000  Uiso   1.00
C194   C     0.93278   0.25004   0.26223   0.00000  Uiso   1.00
C195   C     0.67934   0.24577   0.23161   0.00000  Uiso   1.00
C196   C     0.98738   0.25308   0.26862   0.00000  Uiso   1.00
C197   C     0.85991   0.04471   0.28387   0.00000  Uiso   1.00
C198   C     0.78939   0.45103   0.27217   0.00000  Uiso   1.00
C199   C     0.86325   0.09140   0.28527   0.00000  Uiso   1.00
C200   C     0.79132   0.40459   0.27224   0.00000  Uiso   1.00
C201   C     0.83021   0.11600   0.25107   0.00000  Uiso   1.00
C202   C     0.82847   0.38395   0.24846   0.00000  Uiso   1.00
C203   C     0.79281   0.09511   0.21796   0.00000  Uiso   1.00
C204   C     0.86171   0.40914   0.22338   0.00000  Uiso   1.00
C205   C     0.78923   0.04864   0.21711   0.00000  Uiso   1.00
C206   C     0.86019   0.45577   0.22364   0.00000  Uiso   1.00
C207   C     0.82288   0.02398   0.25043   0.00000  Uiso   1.00
C208   C     0.82335   0.47605   0.24782   0.00000  Uiso   1.00
H209   H     0.88688   0.02431   0.30756   0.00000  Uiso   1.00
H210   H     0.76186   0.46755   0.29134   0.00000  Uiso   1.00
H211   H     0.76626   0.11495   0.19319   0.00000  Uiso   1.00
H212   H     0.88930   0.39255   0.20468   0.00000  Uiso   1.00
H213   H     0.75916   0.21810   0.11286   0.00000  Uiso   1.00
H214   H     0.85397   0.31886   0.37991   0.00000  Uiso   1.00
N215   N     0.83333   0.24999   0.12624   0.00000  Uiso   1.00
N216   N     0.83333   0.25001   0.37377   0.00000  Uiso   1.00
O217   O     0.83334   0.18454   0.28974   0.00000  Uiso   1.00
O218   O     0.83333   0.31547   0.21026   0.00000  Uiso   1.00
O219   O     0.83334   0.18453   0.21026   0.00000  Uiso   1.00
O220   O     0.83333   0.31547   0.28974   0.00000  Uiso   1.00
O221   O     0.75725   0.25000   0.28045   0.00000  Uiso   1.00
O222   O     0.90942   0.25000   0.21956   0.00000  Uiso   1.00
O223   O     0.75725   0.25000   0.20097   0.00000  Uiso   1.00
O224   O     0.90942   0.25000   0.29904   0.00000  Uiso   1.00
Zn225  Zn    0.83333   0.25001   0.30307   0.00000  Uiso   1.00
Zn226  Zn    0.83333   0.25000   0.19693   0.00000  Uiso   1.00
F227   F     0.98871   0.23194   0.18835   0.00000  Uiso   1.00
F228   F     0.67809   0.26613   0.31217   0.00000  Uiso   1.00
O229   O     0.90194   0.11378   0.31532   0.00000  Uiso   1.00
C230   C     0.90433   0.09787   0.36264   0.00000  Uiso   1.00
H231   H     0.86481   0.09227   0.37323   0.00000  Uiso   1.00
H232   H     0.92460   0.12360   0.38649   0.00000  Uiso   1.00
H233   H     0.92786   0.06687   0.36823   0.00000  Uiso   1.00
O234   O     0.75858   0.37950   0.29722   0.00000  Uiso   1.00
C235   C     0.70993   0.37435   0.26822   0.00000  Uiso   1.00
H236   H     0.68355   0.35426   0.28812   0.00000  Uiso   1.00
H237   H     0.71406   0.35601   0.23522   0.00000  Uiso   1.00
H238   H     0.69106   0.40728   0.25928   0.00000  Uiso   1.00
O239   O     0.75145   0.02699   0.18583   0.00000  Uiso   1.00
C240   C     0.76417   0.03168   0.13935   0.00000  Uiso   1.00
H241   H     0.80456   0.02006   0.13727   0.00000  Uiso   1.00
H242   H     0.73689   0.01037   0.11543   0.00000  Uiso   1.00
H243   H     0.75929   0.06685   0.12600   0.00000  Uiso   1.00
O244   O     0.89154   0.48225   0.19824   0.00000  Uiso   1.00
C245   C     0.94485   0.47322   0.21334   0.00000  Uiso   1.00
H246   H     0.96856   0.00137   0.20134   0.00000  Uiso   1.00
H247   H     0.95670   0.44234   0.19663   0.00000  Uiso   1.00
H248   H     0.95421   0.47080   0.25281   0.00000  Uiso   1.00
F249   F     0.74629   0.21743   0.02021   0.00000  Uiso   1.00
F250   F     0.85188   0.32963   0.47021   0.00000  Uiso   1.00
O251   O     0.91502   0.28847   0.13653   0.00000  Uiso   1.00
C252   C     0.91366   0.33551   0.13081   0.00000  Uiso   1.00
H253   H     0.94147   0.35035   0.15986   0.00000  Uiso   1.00
H254   H     0.87411   0.34904   0.13294   0.00000  Uiso   1.00
H255   H     0.92685   0.34641   0.09687   0.00000  Uiso   1.00
O256   O     0.80780   0.17301   0.37234   0.00000  Uiso   1.00
C257   C     0.75306   0.16676   0.36521   0.00000  Uiso   1.00
H258   H     0.74328   0.13879   0.34019   0.00000  Uiso   1.00
H259   H     0.73239   0.19696   0.34907   0.00000  Uiso   1.00
H260   H     0.73837   0.15730   0.39896   0.00000  Uiso   1.00
O261   O     0.91847   0.28498   0.03847   0.00000  Uiso   1.00
C262   C     0.95717   0.25178   0.04222   0.00000  Uiso   1.00
H263   H     0.94447   0.22345   0.01831   0.00000  Uiso   1.00
H264   H     0.96800   0.23944   0.07947   0.00000  Uiso   1.00
H265   H     0.99288   0.26674   0.03059   0.00000  Uiso   1.00
O266   O     0.81023   0.17132   0.46992   0.00000  Uiso   1.00
C267   C     0.85738   0.14889   0.48541   0.00000  Uiso   1.00
H268   H     0.87983   0.16605   0.01629   0.00000  Uiso   1.00
H269   H     0.88179   0.14552   0.45641   0.00000  Uiso   1.00
H270   H     0.84787   0.11455   0.49742   0.00000  Uiso   1.00
C271   C     0.16646   0.66395   0.25039   0.00000  Uiso   1.00
C272   C     0.16585   0.83607   0.24956   0.00000  Uiso   1.00
C273   C     0.12307   0.73334   0.04758   0.00000  Uiso   1.00
C274   C     0.17646   0.78990   0.44778   0.00000  Uiso   1.00
C275   C     0.12499   0.73240   0.09734   0.00000  Uiso   1.00
C276   C     0.17785   0.78855   0.39847   0.00000  Uiso   1.00
C277   C     0.20724   0.76956   0.10685   0.00000  Uiso   1.00
C278   C     0.15316   0.71189   0.39723   0.00000  Uiso   1.00
C279   C     0.20879   0.76800   0.05710   0.00000  Uiso   1.00
C280   C     0.15478   0.71100   0.44732   0.00000  Uiso   1.00
C281   C     0.16536   0.75112   0.02652   0.00000  Uiso   1.00
C282   C     0.16515   0.75079   0.47327   0.00000  Uiso   1.00
C283   C     0.06722   0.74958   0.23781   0.00000  Uiso   1.00
C284   C     0.26612   0.75004   0.26223   0.00000  Uiso   1.00
C285   C     0.01268   0.74577   0.23161   0.00000  Uiso   1.00
C286   C     0.32071   0.75308   0.26862   0.00000  Uiso   1.00
C287   C     0.19325   0.54471   0.28387   0.00000  Uiso   1.00
C288   C     0.12272   0.95103   0.27217   0.00000  Uiso   1.00
C289   C     0.19658   0.59140   0.28527   0.00000  Uiso   1.00
C290   C     0.12465   0.90459   0.27224   0.00000  Uiso   1.00
C291   C     0.16355   0.61600   0.25107   0.00000  Uiso   1.00
C292   C     0.16180   0.88395   0.24846   0.00000  Uiso   1.00
C293   C     0.12614   0.59511   0.21796   0.00000  Uiso   1.00
C294   C     0.19504   0.90914   0.22338   0.00000  Uiso   1.00
C295   C     0.12257   0.54864   0.21711   0.00000  Uiso   1.00
C296   C     0.19352   0.95577   0.22364   0.00000  Uiso   1.00
C297   C     0.15621   0.52398   0.25043   0.00000  Uiso   1.00
C298   C     0.15668   0.97605   0.24782   0.00000  Uiso   1.00
H299   H     0.22021   0.52431   0.30756   0.00000  Uiso   1.00
H300   H     0.09519   0.96755   0.29134   0.00000  Uiso   1.00
H301   H     0.09960   0.61495   0.19319   0.00000  Uiso   1.00
H302   H     0.22264   0.89255   0.20468   0.00000  Uiso   1.00
H303   H     0.09249   0.71810   0.11286   0.00000  Uiso   1.00
H304   H     0.18730   0.81886   0.37991   0.00000  Uiso   1.00
N305   N     0.16667   0.74999   0.12624   0.00000  Uiso   1.00
N306   N     0.16667   0.75001   0.37377   0.00000  Uiso   1.00
O307   O     0.16667   0.68454   0.28974   0.00000  Uiso   1.00
O308   O     0.16666   0.81547   0.21026   0.00000  Uiso   1.00
O309   O     0.16667   0.68453   0.21026   0.00000  Uiso   1.00
O310   O     0.16666   0.81547   0.28974   0.00000  Uiso   1.00
O311   O     0.09058   0.75000   0.28045   0.00000  Uiso   1.00
O312   O     0.24275   0.75000   0.21956   0.00000  Uiso   1.00
O313   O     0.09058   0.75000   0.20097   0.00000  Uiso   1.00
O314   O     0.24275   0.75000   0.29904   0.00000  Uiso   1.00
Zn315  Zn    0.16667   0.75001   0.30307   0.00000  Uiso   1.00
Zn316  Zn    0.16667   0.75000   0.19693   0.00000  Uiso   1.00
F317   F     0.32204   0.73194   0.18835   0.00000  Uiso   1.00
F318   F     0.01143   0.76613   0.31217   0.00000  Uiso   1.00
O319   O     0.23528   0.61378   0.31532   0.00000  Uiso   1.00
C320   C     0.23767   0.59787   0.36264   0.00000  Uiso   1.00
H321   H     0.19814   0.59227   0.37323   0.00000  Uiso   1.00
H322   H     0.25793   0.62360   0.38649   0.00000  Uiso   1.00
H323   H     0.26119   0.56687   0.36823   0.00000  Uiso   1.00
O324   O     0.09191   0.87950   0.29722   0.00000  Uiso   1.00
C325   C     0.04327   0.87435   0.26822   0.00000  Uiso   1.00
H326   H     0.01688   0.85426   0.28812   0.00000  Uiso   1.00
H327   H     0.04739   0.85601   0.23522   0.00000  Uiso   1.00
H328   H     0.02439   0.90728   0.25928   0.00000  Uiso   1.00
O329   O     0.08478   0.52699   0.18583   0.00000  Uiso   1.00
C330   C     0.09751   0.53168   0.13935   0.00000  Uiso   1.00
H331   H     0.13789   0.52006   0.13727   0.00000  Uiso   1.00
H332   H     0.07022   0.51037   0.11543   0.00000  Uiso   1.00
H333   H     0.09262   0.56685   0.12600   0.00000  Uiso   1.00
O334   O     0.22488   0.98225   0.19824   0.00000  Uiso   1.00
C335   C     0.27818   0.97322   0.21334   0.00000  Uiso   1.00
H336   H     0.30190   0.50137   0.20134   0.00000  Uiso   1.00
H337   H     0.29003   0.94234   0.19663   0.00000  Uiso   1.00
H338   H     0.28755   0.97080   0.25281   0.00000  Uiso   1.00
F339   F     0.07963   0.71743   0.02021   0.00000  Uiso   1.00
F340   F     0.18522   0.82963   0.47021   0.00000  Uiso   1.00
O341   O     0.24836   0.78847   0.13653   0.00000  Uiso   1.00
C342   C     0.24699   0.83551   0.13081   0.00000  Uiso   1.00
H343   H     0.27480   0.85035   0.15986   0.00000  Uiso   1.00
H344   H     0.20744   0.84904   0.13294   0.00000  Uiso   1.00
H345   H     0.26018   0.84641   0.09687   0.00000  Uiso   1.00
O346   O     0.14113   0.67301   0.37234   0.00000  Uiso   1.00
C347   C     0.08639   0.66676   0.36521   0.00000  Uiso   1.00
H348   H     0.07661   0.63879   0.34019   0.00000  Uiso   1.00
H349   H     0.06573   0.69696   0.34907   0.00000  Uiso   1.00
H350   H     0.07170   0.65730   0.39896   0.00000  Uiso   1.00
O351   O     0.25180   0.78498   0.03847   0.00000  Uiso   1.00
C352   C     0.29050   0.75178   0.04222   0.00000  Uiso   1.00
H353   H     0.27780   0.72345   0.01831   0.00000  Uiso   1.00
H354   H     0.30133   0.73944   0.07947   0.00000  Uiso   1.00
H355   H     0.32622   0.76674   0.03059   0.00000  Uiso   1.00
O356   O     0.14356   0.67132   0.46992   0.00000  Uiso   1.00
C357   C     0.19072   0.64889   0.48541   0.00000  Uiso   1.00
H358   H     0.21317   0.66605   0.01629   0.00000  Uiso   1.00
H359   H     0.21513   0.64552   0.45641   0.00000  Uiso   1.00
H360   H     0.18120   0.61455   0.49742   0.00000  Uiso   1.00
C361   C     0.49980   0.66395   0.25039   0.00000  Uiso   1.00
C362   C     0.49918   0.83607   0.24956   0.00000  Uiso   1.00
C363   C     0.45640   0.73334   0.04758   0.00000  Uiso   1.00
C364   C     0.50980   0.78990   0.44778   0.00000  Uiso   1.00
C365   C     0.45833   0.73240   0.09734   0.00000  Uiso   1.00
C366   C     0.51119   0.78855   0.39847   0.00000  Uiso   1.00
C367   C     0.54057   0.76956   0.10685   0.00000  Uiso   1.00
C368   C     0.48650   0.71189   0.39723   0.00000  Uiso   1.00
C369   C     0.54213   0.76800   0.05710   0.00000  Uiso   1.00
C370   C     0.48811   0.71100   0.44732   0.00000  Uiso   1.00
C371   C     0.49870   0.75112   0.02652   0.00000  Uiso   1.00
C372   C     0.49848   0.75079   0.47327   0.00000  Uiso   1.00
C373   C     0.40055   0.74958   0.23781   0.00000  Uiso   1.00
C374   C     0.59945   0.75004   0.26223   0.00000  Uiso   1.00
C375   C     0.34601   0.74577   0.23161   0.00000  Uiso   1.00
C376   C     0.65404   0.75308   0.26862   0.00000  Uiso   1.00
C377   C     0.52658   0.54471   0.28387   0.00000  Uiso   1.00
C378   C     0.45605   0.95103   0.27217   0.00000  Uiso   1.00
C379   C     0.52991   0.59140   0.28527   0.00000  Uiso   1.00
C380   C     0.45798   0.90459   0.27224   0.00000  Uiso   1.00
C381   C     0.49688   0.61600   0.25107   0.00000  Uiso   1.00
C382   C     0.49514   0.88395   0.24846   0.00000  Uiso   1.00
C383   C     0.45948   0.59511   0.21796   0.00000  Uiso   1.00
C384   C     0.52837   0.90914   0.22338   0.00000  Uiso   1.00
C385   C     0.45590   0.54864   0.21711   0.00000  Uiso   1.00
C386   C     0.52686   0.95577   0.22364   0.00000  Uiso   1.00
C387   C     0.48955   0.52398   0.25043   0.00000  Uiso   1.00
C388   C     0.49002   0.97605   0.24782   0.00000  Uiso   1.00
H389   H     0.55355   0.52431   0.30756   0.00000  Uiso   1.00
H390   H     0.42853   0.96755   0.29134   0.00000  Uiso   1.00
H391   H     0.43293   0.61495   0.19319   0.00000  Uiso   1.00
H392   H     0.55597   0.89255   0.20468   0.00000  Uiso   1.00
H393   H     0.42582   0.71810   0.11286   0.00000  Uiso   1.00
H394   H     0.52064   0.81886   0.37991   0.00000  Uiso   1.00
N395   N     0.50000   0.74999   0.12624   0.00000  Uiso   1.00
N396   N     0.50000   0.75001   0.37377   0.00000  Uiso   1.00
O397   O     0.50000   0.68454   0.28974   0.00000  Uiso   1.00
O398   O     0.50000   0.81547   0.21026   0.00000  Uiso   1.00
O399   O     0.50000   0.68453   0.21026   0.00000  Uiso   1.00
O400   O     0.50000   0.81547   0.28974   0.00000  Uiso   1.00
O401   O     0.42392   0.75000   0.28045   0.00000  Uiso   1.00
O402   O     0.57608   0.75000   0.21956   0.00000  Uiso   1.00
O403   O     0.42392   0.75000   0.20097   0.00000  Uiso   1.00
O404   O     0.57608   0.75000   0.29904   0.00000  Uiso   1.00
Zn405  Zn    0.50000   0.75001   0.30307   0.00000  Uiso   1.00
Zn406  Zn    0.50000   0.75000   0.19693   0.00000  Uiso   1.00
F407   F     0.65538   0.73194   0.18835   0.00000  Uiso   1.00
F408   F     0.34476   0.76613   0.31217   0.00000  Uiso   1.00
O409   O     0.56861   0.61378   0.31532   0.00000  Uiso   1.00
C410   C     0.57100   0.59787   0.36264   0.00000  Uiso   1.00
H411   H     0.53147   0.59227   0.37323   0.00000  Uiso   1.00
H412   H     0.59127   0.62360   0.38649   0.00000  Uiso   1.00
H413   H     0.59453   0.56687   0.36823   0.00000  Uiso   1.00
O414   O     0.42525   0.87950   0.29722   0.00000  Uiso   1.00
C415   C     0.37660   0.87435   0.26822   0.00000  Uiso   1.00
H416   H     0.35022   0.85426   0.28812   0.00000  Uiso   1.00
H417   H     0.38073   0.85601   0.23522   0.00000  Uiso   1.00
H418   H     0.35772   0.90728   0.25928   0.00000  Uiso   1.00
O419   O     0.41812   0.52699   0.18583   0.00000  Uiso   1.00
C420   C     0.43084   0.53168   0.13935   0.00000  Uiso   1.00
H421   H     0.47122   0.52006   0.13727   0.00000  Uiso   1.00
H422   H     0.40356   0.51037   0.11543   0.00000  Uiso   1.00
H423   H     0.42595   0.56685   0.12600   0.00000  Uiso   1.00
O424   O     0.55821   0.98225   0.19824   0.00000  Uiso   1.00
C425   C     0.61151   0.97322   0.21334   0.00000  Uiso   1.00
H426   H     0.63523   0.50137   0.20134   0.00000  Uiso   1.00
H427   H     0.62337   0.94234   0.19663   0.00000  Uiso   1.00
H428   H     0.62088   0.97080   0.25281   0.00000  Uiso   1.00
F429   F     0.41296   0.71743   0.02021   0.00000  Uiso   1.00
F430   F     0.51855   0.82963   0.47021   0.00000  Uiso   1.00
O431   O     0.58169   0.78847   0.13653   0.00000  Uiso   1.00
C432   C     0.58032   0.83551   0.13081   0.00000  Uiso   1.00
H433   H     0.60813   0.85035   0.15986   0.00000  Uiso   1.00
H434   H     0.54077   0.84904   0.13294   0.00000  Uiso   1.00
H435   H     0.59351   0.84641   0.09687   0.00000  Uiso   1.00
O436   O     0.47446   0.67301   0.37234   0.00000  Uiso   1.00
C437   C     0.41972   0.66676   0.36521   0.00000  Uiso   1.00
H438   H     0.40995   0.63879   0.34019   0.00000  Uiso   1.00
H439   H     0.39906   0.69696   0.34907   0.00000  Uiso   1.00
H440   H     0.40503   0.65730   0.39896   0.00000  Uiso   1.00
O441   O     0.58514   0.78498   0.03847   0.00000  Uiso   1.00
C442   C     0.62383   0.75178   0.04222   0.00000  Uiso   1.00
H443   H     0.61113   0.72345   0.01831   0.00000  Uiso   1.00
H444   H     0.63467   0.73944   0.07947   0.00000  Uiso   1.00
H445   H     0.65955   0.76674   0.03059   0.00000  Uiso   1.00
O446   O     0.47689   0.67132   0.46992   0.00000  Uiso   1.00
C447   C     0.52405   0.64889   0.48541   0.00000  Uiso   1.00
H448   H     0.54650   0.66605   0.01629   0.00000  Uiso   1.00
H449   H     0.54846   0.64552   0.45641   0.00000  Uiso   1.00
H450   H     0.51454   0.61455   0.49742   0.00000  Uiso   1.00
C451   C     0.83313   0.66395   0.25039   0.00000  Uiso   1.00
C452   C     0.83252   0.83607   0.24956   0.00000  Uiso   1.00
C453   C     0.78974   0.73334   0.04758   0.00000  Uiso   1.00
C454   C     0.84313   0.78990   0.44778   0.00000  Uiso   1.00
C455   C     0.79166   0.73240   0.09734   0.00000  Uiso   1.00
C456   C     0.84452   0.78855   0.39847   0.00000  Uiso   1.00
C457   C     0.87390   0.76956   0.10685   0.00000  Uiso   1.00
C458   C     0.81983   0.71189   0.39723   0.00000  Uiso   1.00
C459   C     0.87546   0.76800   0.05710   0.00000  Uiso   1.00
C460   C     0.82145   0.71100   0.44732   0.00000  Uiso   1.00
C461   C     0.83203   0.75112   0.02652   0.00000  Uiso   1.00
C462   C     0.83181   0.75079   0.47327   0.00000  Uiso   1.00
C463   C     0.73389   0.74958   0.23781   0.00000  Uiso   1.00
C464   C     0.93278   0.75004   0.26223   0.00000  Uiso   1.00
C465   C     0.67934   0.74577   0.23161   0.00000  Uiso   1.00
C466   C     0.98738   0.75308   0.26862   0.00000  Uiso   1.00
C467   C     0.85991   0.54471   0.28387   0.00000  Uiso   1.00
C468   C     0.78939   0.95103   0.27217   0.00000  Uiso   1.00
C469   C     0.86325   0.59140   0.28527   0.00000  Uiso   1.00
C470   C     0.79132   0.90459   0.27224   0.00000  Uiso   1.00
C471   C     0.83021   0.61600   0.25107   0.00000  Uiso   1.00
C472   C     0.82847   0.88395   0.24846   0.00000  Uiso   1.00
C473   C     0.79281   0.59511   0.21796   0.00000  Uiso   1.00
C474   C     0.86171   0.90914   0.22338   0.00000  Uiso   1.00
C475   C     0.78923   0.54864   0.21711   0.00000  Uiso   1.00
C476   C     0.86019   0.95577   0.22364   0.00000  Uiso   1.00
C477   C     0.82288   0.52398   0.25043   0.00000  Uiso   1.00
C478   C     0.82335   0.97605   0.24782   0.00000  Uiso   1.00
H479   H     0.88688   0.52431   0.30756   0.00000  Uiso   1.00
H480   H     0.76186   0.96755   0.29134   0.00000  Uiso   1.00
H481   H     0.76626   0.61495   0.19319   0.00000  Uiso   1.00
H482   H     0.88930   0.89255   0.20468   0.00000  Uiso   1.00
H483   H     0.75916   0.71810   0.11286   0.00000  Uiso   1.00
H484   H     0.85397   0.81886   0.37991   0.00000  Uiso   1.00
N485   N     0.83333   0.74999   0.12624   0.00000  Uiso   1.00
N486   N     0.83333   0.75001   0.37377   0.00000  Uiso   1.00
O487   O     0.83334   0.68454   0.28974   0.00000  Uiso   1.00
O488   O     0.83333   0.81547   0.21026   0.00000  Uiso   1.00
O489   O     0.83334   0.68453   0.21026   0.00000  Uiso   1.00
O490   O     0.83333   0.81547   0.28974   0.00000  Uiso   1.00
O491   O     0.75725   0.75000   0.28045   0.00000  Uiso   1.00
O492   O     0.90942   0.75000   0.21956   0.00000  Uiso   1.00
O493   O     0.75725   0.75000   0.20097   0.00000  Uiso   1.00
O494   O     0.90942   0.75000   0.29904   0.00000  Uiso   1.00
Zn495  Zn    0.83333   0.75001   0.30307   0.00000  Uiso   1.00
Zn496  Zn    0.83333   0.75000   0.19693   0.00000  Uiso   1.00
F497   F     0.98871   0.73194   0.18835   0.00000  Uiso   1.00
F498   F     0.67809   0.76613   0.31217   0.00000  Uiso   1.00
O499   O     0.90194   0.61378   0.31532   0.00000  Uiso   1.00
C500   C     0.90433   0.59787   0.36264   0.00000  Uiso   1.00
H501   H     0.86481   0.59227   0.37323   0.00000  Uiso   1.00
H502   H     0.92460   0.62360   0.38649   0.00000  Uiso   1.00
H503   H     0.92786   0.56687   0.36823   0.00000  Uiso   1.00
O504   O     0.75858   0.87950   0.29722   0.00000  Uiso   1.00
C505   C     0.70993   0.87435   0.26822   0.00000  Uiso   1.00
H506   H     0.68355   0.85426   0.28812   0.00000  Uiso   1.00
H507   H     0.71406   0.85601   0.23522   0.00000  Uiso   1.00
H508   H     0.69106   0.90728   0.25928   0.00000  Uiso   1.00
O509   O     0.75145   0.52699   0.18583   0.00000  Uiso   1.00
C510   C     0.76417   0.53168   0.13935   0.00000  Uiso   1.00
H511   H     0.80456   0.52006   0.13727   0.00000  Uiso   1.00
H512   H     0.73689   0.51037   0.11543   0.00000  Uiso   1.00
H513   H     0.75929   0.56685   0.12600   0.00000  Uiso   1.00
O514   O     0.89154   0.98225   0.19824   0.00000  Uiso   1.00
C515   C     0.94485   0.97322   0.21334   0.00000  Uiso   1.00
H516   H     0.96856   0.50137   0.20134   0.00000  Uiso   1.00
H517   H     0.95670   0.94234   0.19663   0.00000  Uiso   1.00
H518   H     0.95421   0.97080   0.25281   0.00000  Uiso   1.00
F519   F     0.74629   0.71743   0.02021   0.00000  Uiso   1.00
F520   F     0.85188   0.82963   0.47021   0.00000  Uiso   1.00
O521   O     0.91502   0.78847   0.13653   0.00000  Uiso   1.00
C522   C     0.91366   0.83551   0.13081   0.00000  Uiso   1.00
H523   H     0.94147   0.85035   0.15986   0.00000  Uiso   1.00
H524   H     0.87411   0.84904   0.13294   0.00000  Uiso   1.00
H525   H     0.92685   0.84641   0.09687   0.00000  Uiso   1.00
O526   O     0.80780   0.67301   0.37234   0.00000  Uiso   1.00
C527   C     0.75306   0.66676   0.36521   0.00000  Uiso   1.00
H528   H     0.74328   0.63879   0.34019   0.00000  Uiso   1.00
H529   H     0.73239   0.69696   0.34907   0.00000  Uiso   1.00
H530   H     0.73837   0.65730   0.39896   0.00000  Uiso   1.00
O531   O     0.91847   0.78498   0.03847   0.00000  Uiso   1.00
C532   C     0.95717   0.75178   0.04222   0.00000  Uiso   1.00
H533   H     0.94447   0.72345   0.01831   0.00000  Uiso   1.00
H534   H     0.96800   0.73944   0.07947   0.00000  Uiso   1.00
H535   H     0.99288   0.76674   0.03059   0.00000  Uiso   1.00
O536   O     0.81023   0.67132   0.46992   0.00000  Uiso   1.00
C537   C     0.85738   0.64889   0.48541   0.00000  Uiso   1.00
H538   H     0.87983   0.66605   0.01629   0.00000  Uiso   1.00
H539   H     0.88179   0.64552   0.45641   0.00000  Uiso   1.00
H540   H     0.84787   0.61455   0.49742   0.00000  Uiso   1.00
C541   C     0.16646   0.16395   0.75039   0.00000  Uiso   1.00
C542   C     0.16585   0.33607   0.74956   0.00000  Uiso   1.00
C543   C     0.12307   0.23334   0.54758   0.00000  Uiso   1.00
C544   C     0.17646   0.28990   0.94778   0.00000  Uiso   1.00
C545   C     0.12499   0.23240   0.59734   0.00000  Uiso   1.00
C546   C     0.17785   0.28855   0.89847   0.00000  Uiso   1.00
C547   C     0.20724   0.26956   0.60685   0.00000  Uiso   1.00
C548   C     0.15316   0.21189   0.89723   0.00000  Uiso   1.00
C549   C     0.20879   0.26800   0.55710   0.00000  Uiso   1.00
C550   C     0.15478   0.21100   0.94732   0.00000  Uiso   1.00
C551   C     0.16536   0.25112   0.52652   0.00000  Uiso   1.00
C552   C     0.16515   0.25079   0.97327   0.00000  Uiso   1.00
C553   C     0.06722   0.24958   0.73781   0.00000  Uiso   1.00
C554   C     0.26612   0.25004   0.76223   0.00000  Uiso   1.00
C555   C     0.01268   0.24577   0.73161   0.00000  Uiso   1.00
C556   C     0.32071   0.25308   0.76862   0.00000  Uiso   1.00
C557   C     0.19325   0.04471   0.78387   0.00000  Uiso   1.00
C558   C     0.12272   0.45103   0.77217   0.00000  Uiso   1.00
C559   C     0.19658   0.09140   0.78527   0.00000  Uiso   1.00
C560   C     0.12465   0.40459   0.77224   0.00000  Uiso   1.00
C561   C     0.16355   0.11600   0.75107   0.00000  Uiso   1.00
C562   C     0.16180   0.38395   0.74846   0.00000  Uiso   1.00
C563   C     0.12614   0.09511   0.71796   0.00000  Uiso   1.00
C564   C     0.19504   0.40914   0.72338   0.00000  Uiso   1.00
C565   C     0.12257   0.04864   0.71711   0.00000  Uiso   1.00
C566   C     0.19352   0.45577   0.72364   0.00000  Uiso   1.00
C567   C     0.15621   0.02398   0.75043   0.00000  Uiso   1.00
C568   C     0.15668   0.47605   0.74782   0.00000  Uiso   1.00
H569   H     0.22021   0.02431   0.80756   0.00000  Uiso   1.00
H570   H     0.09519   0.46755   0.79134   0.00000  Uiso   1.00
H571   H     0.09960   0.11495   0.69319   0.00000  Uiso   1.00
H572   H     0.22264   0.39255   0.70468   0.00000  Uiso   1.00
H573   H     0.09249   0.21810   0.61286   0.00000  Uiso   1.00
H574   H     0.18730   0.31886   0.87991   0.00000  Uiso   1.00
N575   N     0.16667   0.24999   0.62624   0.00000  Uiso   1.00
N576   N     0.16667   0.25001   0.87377   0.00000  Uiso   1.00
O577   O     0.16667   0.18454   0.78974   0.00000  Uiso   1.00
O578   O     0.16666   0.31547   0.71026   0.00000  Uiso   1.00
O579   O     0.16667   0.18453   0.71026   0.00000  Uiso   1.00
O580   O     0.16666   0.31547   0.78974   0.00000  Uiso   1.00
O581   O     0.09058   0.25000   0.78045   0.00000  Uiso   1.00
O582   O     0.24275   0.25000   0.71956   0.00000  Uiso   1.00
O583   O     0.09058   0.25000   0.70097   0.00000  Uiso   1.00
O584   O     0.24275   0.25000   0.79904   0.00000  Uiso   1.00
Zn585  Zn    0.16667   0.25001   0.80307   0.00000  Uiso   1.00
Zn586  Zn    0.16667   0.25000   0.69693   0.00000  Uiso   1.00
F587   F     0.32204   0.23194   0.68835   0.00000  Uiso   1.00
F588   F     0.01143   0.26613   0.81217   0.00000  Uiso   1.00
O589   O     0.23528   0.11378   0.81532   0.00000  Uiso   1.00
C590   C     0.23767   0.09787   0.86264   0.00000  Uiso   1.00
H591   H     0.19814   0.09227   0.87323   0.00000  Uiso   1.00
H592   H     0.25793   0.12360   0.88649   0.00000  Uiso   1.00
H593   H     0.26119   0.06687   0.86823   0.00000  Uiso   1.00
O594   O     0.09191   0.37950   0.79722   0.00000  Uiso   1.00
C595   C     0.04327   0.37435   0.76822   0.00000  Uiso   1.00
H596   H     0.01688   0.35426   0.78812   0.00000  Uiso   1.00
H597   H     0.04739   0.35601   0.73522   0.00000  Uiso   1.00
H598   H     0.02439   0.40728   0.75928   0.00000  Uiso   1.00
O599   O     0.08478   0.02699   0.68583   0.00000  Uiso   1.00
C600   C     0.09751   0.03168   0.63935   0.00000  Uiso   1.00
H601   H     0.13789   0.02006   0.63727   0.00000  Uiso   1.00
H602   H     0.07022   0.01037   0.61543   0.00000  Uiso   1.00
H603   H     0.09262   0.06685   0.62600   0.00000  Uiso   1.00
O604   O     0.22488   0.48225   0.69824   0.00000  Uiso   1.00
C605   C     0.27818   0.47322   0.71334   0.00000  Uiso   1.00
H606   H     0.30190   0.00137   0.70134   0.00000  Uiso   1.00
H607   H     0.29003   0.44234   0.69663   0.00000  Uiso   1.00
H608   H     0.28755   0.47080   0.75281   0.00000  Uiso   1.00
F609   F     0.07963   0.21743   0.52021   0.00000  Uiso   1.00
F610   F     0.18522   0.32963   0.97021   0.00000  Uiso   1.00
O611   O     0.24836   0.28847   0.63653   0.00000  Uiso   1.00
C612   C     0.24699   0.33551   0.63081   0.00000  Uiso   1.00
H613   H     0.27480   0.35035   0.65986   0.00000  Uiso   1.00
H614   H     0.20744   0.34904   0.63294   0.00000  Uiso   1.00
H615   H     0.26018   0.34641   0.59687   0.00000  Uiso   1.00
O616   O     0.14113   0.17301   0.87234   0.00000  Uiso   1.00
C617   C     0.08639   0.16676   0.86521   0.00000  Uiso   1.00
H618   H     0.07661   0.13879   0.84019   0.00000  Uiso   1.00
H619   H     0.06573   0.19696   0.84907   0.00000  Uiso   1.00
H620   H     0.07170   0.15730   0.89896   0.00000  Uiso   1.00
O621   O     0.25180   0.28498   0.53847   0.00000  Uiso   1.00
C622   C     0.29050   0.25178   0.54222   0.00000  Uiso   1.00
H623   H     0.27780   0.22345   0.51831   0.00000  Uiso   1.00
H624   H     0.30133   0.23944   0.57947   0.00000  Uiso   1.00
H625   H     0.32622   0.26674   0.53059   0.00000  Uiso   1.00
O626   O     0.14356   0.17132   0.96992   0.00000  Uiso   1.00
C627   C     0.19072   0.14889   0.98541   0.00000  Uiso   1.00
H628   H     0.21317   0.16605   0.51629   0.00000  Uiso   1.00
H629   H     0.21513   0.14552   0.95641   0.00000  Uiso   1.00
H630   H     0.18120   0.11455   0.99742   0.00000  Uiso   1.00
C631   C     0.49980   0.16395   0.75039   0.00000  Uiso   1.00
C632   C     0.49918   0.33607   0.74956   0.00000  Uiso   1.00
C633   C     0.45640   0.23334   0.54758   0.00000  Uiso   1.00
C634   C     0.50980   0.28990   0.94778   0.00000  Uiso   1.00
C635   C     0.45833   0.23240   0.59734   0.00000  Uiso   1.00
C636   C     0.51119   0.28855   0.89847   0.00000  Uiso   1.00
C637   C     0.54057   0.26956   0.60685   0.00000  Uiso   1.00
C638   C     0.48650   0.21189   0.89723   0.00000  Uiso   1.00
C639   C     0.54213   0.26800   0.55710   0.00000  Uiso   1.00
C640   C     0.48811   0.21100   0.94732   0.00000  Uiso   1.00
C641   C     0.49870   0.25112   0.52652   0.00000  Uiso   1.00
C642   C     0.49848   0.25079   0.97327   0.00000  Uiso   1.00
C643   C     0.40055   0.24958   0.73781   0.00000  Uiso   1.00
C644   C     0.59945   0.25004   0.76223   0.00000  Uiso   1.00
C645   C     0.34601   0.24577   0.73161   0.00000  Uiso   1.00
C646   C     0.65404   0.25308   0.76862   0.00000  Uiso   1.00
C647   C     0.52658   0.04471   0.78387   0.00000  Uiso   1.00
C648   C     0.45605   0.45103   0.77217   0.00000  Uiso   1.00
C649   C     0.52991   0.09140   0.78527   0.00000  Uiso   1.00
C650   C     0.45798   0.40459   0.77224   0.00000  Uiso   1.00
C651   C     0.49688   0.11600   0.75107   0.00000  Uiso   1.00
C652   C     0.49514   0.38395   0.74846   0.00000  Uiso   1.00
C653   C     0.45948   0.09511   0.71796   0.00000  Uiso   1.00
C654   C     0.52837   0.40914   0.72338   0.00000  Uiso   1.00
C655   C     0.45590   0.04864   0.71711   0.00000  Uiso   1.00
C656   C     0.52686   0.45577   0.72364   0.00000  Uiso   1.00
C657   C     0.48955   0.02398   0.75043   0.00000  Uiso   1.00
C658   C     0.49002   0.47605   0.74782   0.00000  Uiso   1.00
H659   H     0.55355   0.02431   0.80756   0.00000  Uiso   1.00
H660   H     0.42853   0.46755   0.79134   0.00000  Uiso   1.00
H661   H     0.43293   0.11495   0.69319   0.00000  Uiso   1.00
H662   H     0.55597   0.39255   0.70468   0.00000  Uiso   1.00
H663   H     0.42582   0.21810   0.61286   0.00000  Uiso   1.00
H664   H     0.52064   0.31886   0.87991   0.00000  Uiso   1.00
N665   N     0.50000   0.24999   0.62624   0.00000  Uiso   1.00
N666   N     0.50000   0.25001   0.87377   0.00000  Uiso   1.00
O667   O     0.50000   0.18454   0.78974   0.00000  Uiso   1.00
O668   O     0.50000   0.31547   0.71026   0.00000  Uiso   1.00
O669   O     0.50000   0.18453   0.71026   0.00000  Uiso   1.00
O670   O     0.50000   0.31547   0.78974   0.00000  Uiso   1.00
O671   O     0.42392   0.25000   0.78045   0.00000  Uiso   1.00
O672   O     0.57608   0.25000   0.71956   0.00000  Uiso   1.00
O673   O     0.42392   0.25000   0.70097   0.00000  Uiso   1.00
O674   O     0.57608   0.25000   0.79904   0.00000  Uiso   1.00
Zn675  Zn    0.50000   0.25001   0.80307   0.00000  Uiso   1.00
Zn676  Zn    0.50000   0.25000   0.69693   0.00000  Uiso   1.00
F677   F     0.65538   0.23194   0.68835   0.00000  Uiso   1.00
F678   F     0.34476   0.26613   0.81217   0.00000  Uiso   1.00
O679   O     0.56861   0.11378   0.81532   0.00000  Uiso   1.00
C680   C     0.57100   0.09787   0.86264   0.00000  Uiso   1.00
H681   H     0.53147   0.09227   0.87323   0.00000  Uiso   1.00
H682   H     0.59127   0.12360   0.88649   0.00000  Uiso   1.00
H683   H     0.59453   0.06687   0.86823   0.00000  Uiso   1.00
O684   O     0.42525   0.37950   0.79722   0.00000  Uiso   1.00
C685   C     0.37660   0.37435   0.76822   0.00000  Uiso   1.00
H686   H     0.35022   0.35426   0.78812   0.00000  Uiso   1.00
H687   H     0.38073   0.35601   0.73522   0.00000  Uiso   1.00
H688   H     0.35772   0.40728   0.75928   0.00000  Uiso   1.00
O689   O     0.41812   0.02699   0.68583   0.00000  Uiso   1.00
C690   C     0.43084   0.03168   0.63935   0.00000  Uiso   1.00
H691   H     0.47122   0.02006   0.63727   0.00000  Uiso   1.00
H692   H     0.40356   0.01037   0.61543   0.00000  Uiso   1.00
H693   H     0.42595   0.06685   0.62600   0.00000  Uiso   1.00
O694   O     0.55821   0.48225   0.69824   0.00000  Uiso   1.00
C695   C     0.61151   0.47322   0.71334   0.00000  Uiso   1.00
H696   H     0.63523   0.00137   0.70134   0.00000  Uiso   1.00
H697   H     0.62337   0.44234   0.69663   0.00000  Uiso   1.00
H698   H     0.62088   0.47080   0.75281   0.00000  Uiso   1.00
F699   F     0.41296   0.21743   0.52021   0.00000  Uiso   1.00
F700   F     0.51855   0.32963   0.97021   0.00000  Uiso   1.00
O701   O     0.58169   0.28847   0.63653   0.00000  Uiso   1.00
C702   C     0.58032   0.33551   0.63081   0.00000  Uiso   1.00
H703   H     0.60813   0.35035   0.65986   0.00000  Uiso   1.00
H704   H     0.54077   0.34904   0.63294   0.00000  Uiso   1.00
H705   H     0.59351   0.34641   0.59687   0.00000  Uiso   1.00
O706   O     0.47446   0.17301   0.87234   0.00000  Uiso   1.00
C707   C     0.41972   0.16676   0.86521   0.00000  Uiso   1.00
H708   H     0.40995   0.13879   0.84019   0.00000  Uiso   1.00
H709   H     0.39906   0.19696   0.84907   0.00000  Uiso   1.00
H710   H     0.40503   0.15730   0.89896   0.00000  Uiso   1.00
O711   O     0.58514   0.28498   0.53847   0.00000  Uiso   1.00
C712   C     0.62383   0.25178   0.54222   0.00000  Uiso   1.00
H713   H     0.61113   0.22345   0.51831   0.00000  Uiso   1.00
H714   H     0.63467   0.23944   0.57947   0.00000  Uiso   1.00
H715   H     0.65955   0.26674   0.53059   0.00000  Uiso   1.00
O716   O     0.47689   0.17132   0.96992   0.00000  Uiso   1.00
C717   C     0.52405   0.14889   0.98541   0.00000  Uiso   1.00
H718   H     0.54650   0.16605   0.51629   0.00000  Uiso   1.00
H719   H     0.54846   0.14552   0.95641   0.00000  Uiso   1.00
H720   H     0.51454   0.11455   0.99742   0.00000  Uiso   1.00
C721   C     0.83313   0.16395   0.75039   0.00000  Uiso   1.00
C722   C     0.83252   0.33607   0.74956   0.00000  Uiso   1.00
C723   C     0.78974   0.23334   0.54758   0.00000  Uiso   1.00
C724   C     0.84313   0.28990   0.94778   0.00000  Uiso   1.00
C725   C     0.79166   0.23240   0.59734   0.00000  Uiso   1.00
C726   C     0.84452   0.28855   0.89847   0.00000  Uiso   1.00
C727   C     0.87390   0.26956   0.60685   0.00000  Uiso   1.00
C728   C     0.81983   0.21189   0.89723   0.00000  Uiso   1.00
C729   C     0.87546   0.26800   0.55710   0.00000  Uiso   1.00
C730   C     0.82145   0.21100   0.94732   0.00000  Uiso   1.00
C731   C     0.83203   0.25112   0.52652   0.00000  Uiso   1.00
C732   C     0.83181   0.25079   0.97327   0.00000  Uiso   1.00
C733   C     0.73389   0.24958   0.73781   0.00000  Uiso   1.00
C734   C     0.93278   0.25004   0.76223   0.00000  Uiso   1.00
C735   C     0.67934   0.24577   0.73161   0.00000  Uiso   1.00
C736   C     0.98738   0.25308   0.76862   0.00000  Uiso   1.00
C737   C     0.85991   0.04471   0.78387   0.00000  Uiso   1.00
C738   C     0.78939   0.45103   0.77217   0.00000  Uiso   1.00
C739   C     0.86325   0.09140   0.78527   0.00000  Uiso   1.00
C740   C     0.79132   0.40459   0.77224   0.00000  Uiso   1.00
C741   C     0.83021   0.11600   0.75107   0.00000  Uiso   1.00
C742   C     0.82847   0.38395   0.74846   0.00000  Uiso   1.00
C743   C     0.79281   0.09511   0.71796   0.00000  Uiso   1.00
C744   C     0.86171   0.40914   0.72338   0.00000  Uiso   1.00
C745   C     0.78923   0.04864   0.71711   0.00000  Uiso   1.00
C746   C     0.86019   0.45577   0.72364   0.00000  Uiso   1.00
C747   C     0.82288   0.02398   0.75043   0.00000  Uiso   1.00
C748   C     0.82335   0.47605   0.74782   0.00000  Uiso   1.00
H749   H     0.88688   0.02431   0.80756   0.00000  Uiso   1.00
H750   H     0.76186   0.46755   0.79134   0.00000  Uiso   1.00
H751   H     0.76626   0.11495   0.69319   0.00000  Uiso   1.00
H752   H     0.88930   0.39255   0.70468   0.00000  Uiso   1.00
H753   H     0.75916   0.21810   0.61286   0.00000  Uiso   1.00
H754   H     0.85397   0.31886   0.87991   0.00000  Uiso   1.00
N755   N     0.83333   0.24999   0.62624   0.00000  Uiso   1.00
N756   N     0.83333   0.25001   0.87377   0.00000  Uiso   1.00
O757   O     0.83334   0.18454   0.78974   0.00000  Uiso   1.00
O758   O     0.83333   0.31547   0.71026   0.00000  Uiso   1.00
O759   O     0.83334   0.18453   0.71026   0.00000  Uiso   1.00
O760   O     0.83333   0.31547   0.78974   0.00000  Uiso   1.00
O761   O     0.75725   0.25000   0.78045   0.00000  Uiso   1.00
O762   O     0.90942   0.25000   0.71956   0.00000  Uiso   1.00
O763   O     0.75725   0.25000   0.70097   0.00000  Uiso   1.00
O764   O     0.90942   0.25000   0.79904   0.00000  Uiso   1.00
Zn765  Zn    0.83333   0.25001   0.80307   0.00000  Uiso   1.00
Zn766  Zn    0.83333   0.25000   0.69693   0.00000  Uiso   1.00
F767   F     0.98871   0.23194   0.68835   0.00000  Uiso   1.00
F768   F     0.67809   0.26613   0.81217   0.00000  Uiso   1.00
O769   O     0.90194   0.11378   0.81532   0.00000  Uiso   1.00
C770   C     0.90433   0.09787   0.86264   0.00000  Uiso   1.00
H771   H     0.86481   0.09227   0.87323   0.00000  Uiso   1.00
H772   H     0.92460   0.12360   0.88649   0.00000  Uiso   1.00
H773   H     0.92786   0.06687   0.86823   0.00000  Uiso   1.00
O774   O     0.75858   0.37950   0.79722   0.00000  Uiso   1.00
C775   C     0.70993   0.37435   0.76822   0.00000  Uiso   1.00
H776   H     0.68355   0.35426   0.78812   0.00000  Uiso   1.00
H777   H     0.71406   0.35601   0.73522   0.00000  Uiso   1.00
H778   H     0.69106   0.40728   0.75928   0.00000  Uiso   1.00
O779   O     0.75145   0.02699   0.68583   0.00000  Uiso   1.00
C780   C     0.76417   0.03168   0.63935   0.00000  Uiso   1.00
H781   H     0.80456   0.02006   0.63727   0.00000  Uiso   1.00
H782   H     0.73689   0.01037   0.61543   0.00000  Uiso   1.00
H783   H     0.75929   0.06685   0.62600   0.00000  Uiso   1.00
O784   O     0.89154   0.48225   0.69824   0.00000  Uiso   1.00
C785   C     0.94485   0.47322   0.71334   0.00000  Uiso   1.00
H786   H     0.96856   0.00137   0.70134   0.00000  Uiso   1.00
H787   H     0.95670   0.44234   0.69663   0.00000  Uiso   1.00
H788   H     0.95421   0.47080   0.75281   0.00000  Uiso   1.00
F789   F     0.74629   0.21743   0.52021   0.00000  Uiso   1.00
F790   F     0.85188   0.32963   0.97021   0.00000  Uiso   1.00
O791   O     0.91502   0.28847   0.63653   0.00000  Uiso   1.00
C792   C     0.91366   0.33551   0.63081   0.00000  Uiso   1.00
H793   H     0.94147   0.35035   0.65986   0.00000  Uiso   1.00
H794   H     0.87411   0.34904   0.63294   0.00000  Uiso   1.00
H795   H     0.92685   0.34641   0.59687   0.00000  Uiso   1.00
O796   O     0.80780   0.17301   0.87234   0.00000  Uiso   1.00
C797   C     0.75306   0.16676   0.86521   0.00000  Uiso   1.00
H798   H     0.74328   0.13879   0.84019   0.00000  Uiso   1.00
H799   H     0.73239   0.19696   0.84907   0.00000  Uiso   1.00
H800   H     0.73837   0.15730   0.89896   0.00000  Uiso   1.00
O801   O     0.91847   0.28498   0.53847   0.00000  Uiso   1.00
C802   C     0.95717   0.25178   0.54222   0.00000  Uiso   1.00
H803   H     0.94447   0.22345   0.51831   0.00000  Uiso   1.00
H804   H     0.96800   0.23944   0.57947   0.00000  Uiso   1.00
H805   H     0.99288   0.26674   0.53059   0.00000  Uiso   1.00
O806   O     0.81023   0.17132   0.96992   0.00000  Uiso   1.00
C807   C     0.85738   0.14889   0.98541   0.00000  Uiso   1.00
H808   H     0.87983   0.16605   0.51629   0.00000  Uiso   1.00
H809   H     0.88179   0.14552   0.95641   0.00000  Uiso   1.00
H810   H     0.84787   0.11455   0.99742   0.00000  Uiso   1.00
C811   C     0.16646   0.66395   0.75039   0.00000  Uiso   1.00
C812   C     0.16585   0.83607   0.74956   0.00000  Uiso   1.00
C813   C     0.12307   0.73334   0.54758   0.00000  Uiso   1.00
C814   C     0.17646   0.78990   0.94778   0.00000  Uiso   1.00
C815   C     0.12499   0.73240   0.59734   0.00000  Uiso   1.00
C816   C     0.17785   0.78855   0.89847   0.00000  Uiso   1.00
C817   C     0.20724   0.76956   0.60685   0.00000  Uiso   1.00
C818   C     0.15316   0.71189   0.89723   0.00000  Uiso   1.00
C819   C     0.20879   0.76800   0.55710   0.00000  Uiso   1.00
C820   C     0.15478   0.71100   0.94732   0.00000  Uiso   1.00
C821   C     0.16536   0.75112   0.52652   0.00000  Uiso   1.00
C822   C     0.16515   0.75079   0.97327   0.00000  Uiso   1.00
C823   C     0.06722   0.74958   0.73781   0.00000  Uiso   1.00
C824   C     0.26612   0.75004   0.76223   0.00000  Uiso   1.00
C825   C     0.01268   0.74577   0.73161   0.00000  Uiso   1.00
C826   C     0.32071   0.75308   0.76862   0.00000  Uiso   1.00
C827   C     0.19325   0.54471   0.78387   0.00000  Uiso   1.00
C828   C     0.12272   0.95103   0.77217   0.00000  Uiso   1.00
C829   C     0.19658   0.59140   0.78527   0.00000  Uiso   1.00
C830   C     0.12465   0.90459   0.77224   0.00000  Uiso   1.00
C831   C     0.16355   0.61600   0.75107   0.00000  Uiso   1.00
C832   C     0.16180   0.88395   0.74846   0.00000  Uiso   1.00
C833   C     0.12614   0.59511   0.71796   0.00000  Uiso   1.00
C834   C     0.19504   0.90914   0.72338   0.00000  Uiso   1.00
C835   C     0.12257   0.54864   0.71711   0.00000  Uiso   1.00
C836   C     0.19352   0.95577   0.72364   0.00000  Uiso   1.00
C837   C     0.15621   0.52398   0.75043   0.00000  Uiso   1.00
C838   C     0.15668   0.97605   0.74782   0.00000  Uiso   1.00
H839   H     0.22021   0.52431   0.80756   0.00000  Uiso   1.00
H840   H     0.09519   0.96755   0.79134   0.00000  Uiso   1.00
H841   H     0.09960   0.61495   0.69319   0.00000  Uiso   1.00
H842   H     0.22264   0.89255   0.70468   0.00000  Uiso   1.00
H843   H     0.09249   0.71810   0.61286   0.00000  Uiso   1.00
H844   H     0.18730   0.81886   0.87991   0.00000  Uiso   1.00
N845   N     0.16667   0.74999   0.62624   0.00000  Uiso   1.00
N846   N     0.16667   0.75001   0.87377   0.00000  Uiso   1.00
O847   O     0.16667   0.68454   0.78974   0.00000  Uiso   1.00
O848   O     0.16666   0.81547   0.71026   0.00000  Uiso   1.00
O849   O     0.16667   0.68453   0.71026   0.00000  Uiso   1.00
O850   O     0.16666   0.81547   0.78974   0.00000  Uiso   1.00
O851   O     0.09058   0.75000   0.78045   0.00000  Uiso   1.00
O852   O     0.24275   0.75000   0.71956   0.00000  Uiso   1.00
O853   O     0.09058   0.75000   0.70097   0.00000  Uiso   1.00
O854   O     0.24275   0.75000   0.79904   0.00000  Uiso   1.00
Zn855  Zn    0.16667   0.75001   0.80307   0.00000  Uiso   1.00
Zn856  Zn    0.16667   0.75000   0.69693   0.00000  Uiso   1.00
F857   F     0.32204   0.73194   0.68835   0.00000  Uiso   1.00
F858   F     0.01143   0.76613   0.81217   0.00000  Uiso   1.00
O859   O     0.23528   0.61378   0.81532   0.00000  Uiso   1.00
C860   C     0.23767   0.59787   0.86264   0.00000  Uiso   1.00
H861   H     0.19814   0.59227   0.87323   0.00000  Uiso   1.00
H862   H     0.25793   0.62360   0.88649   0.00000  Uiso   1.00
H863   H     0.26119   0.56687   0.86823   0.00000  Uiso   1.00
O864   O     0.09191   0.87950   0.79722   0.00000  Uiso   1.00
C865   C     0.04327   0.87435   0.76822   0.00000  Uiso   1.00
H866   H     0.01688   0.85426   0.78812   0.00000  Uiso   1.00
H867   H     0.04739   0.85601   0.73522   0.00000  Uiso   1.00
H868   H     0.02439   0.90728   0.75928   0.00000  Uiso   1.00
O869   O     0.08478   0.52699   0.68583   0.00000  Uiso   1.00
C870   C     0.09751   0.53168   0.63935   0.00000  Uiso   1.00
H871   H     0.13789   0.52006   0.63727   0.00000  Uiso   1.00
H872   H     0.07022   0.51037   0.61543   0.00000  Uiso   1.00
H873   H     0.09262   0.56685   0.62600   0.00000  Uiso   1.00
O874   O     0.22488   0.98225   0.69824   0.00000  Uiso   1.00
C875   C     0.27818   0.97322   0.71334   0.00000  Uiso   1.00
H876   H     0.30190   0.50137   0.70134   0.00000  Uiso   1.00
H877   H     0.29003   0.94234   0.69663   0.00000  Uiso   1.00
H878   H     0.28755   0.97080   0.75281   0.00000  Uiso   1.00
F879   F     0.07963   0.71743   0.52021   0.00000  Uiso   1.00
F880   F     0.18522   0.82963   0.97021   0.00000  Uiso   1.00
O881   O     0.24836   0.78847   0.63653   0.00000  Uiso   1.00
C882   C     0.24699   0.83551   0.63081   0.00000  Uiso   1.00
H883   H     0.27480   0.85035   0.65986   0.00000  Uiso   1.00
H884   H     0.20744   0.84904   0.63294   0.00000  Uiso   1.00
H885   H     0.26018   0.84641   0.59687   0.00000  Uiso   1.00
O886   O     0.14113   0.67301   0.87234   0.00000  Uiso   1.00
C887   C     0.08639   0.66676   0.86521   0.00000  Uiso   1.00
H888   H     0.07661   0.63879   0.84019   0.00000  Uiso   1.00
H889   H     0.06573   0.69696   0.84907   0.00000  Uiso   1.00
H890   H     0.07170   0.65730   0.89896   0.00000  Uiso   1.00
O891   O     0.25180   0.78498   0.53847   0.00000  Uiso   1.00
C892   C     0.29050   0.75178   0.54222   0.00000  Uiso   1.00
H893   H     0.27780   0.72345   0.51831   0.00000  Uiso   1.00
H894   H     0.30133   0.73944   0.57947   0.00000  Uiso   1.00
H895   H     0.32622   0.76674   0.53059   0.00000  Uiso   1.00
O896   O     0.14356   0.67132   0.96992   0.00000  Uiso   1.00
C897   C     0.19072   0.64889   0.98541   0.00000  Uiso   1.00
H898   H     0.21317   0.66605   0.51629   0.00000  Uiso   1.00
H899   H     0.21513   0.64552   0.95641   0.00000  Uiso   1.00
H900   H     0.18120   0.61455   0.99742   0.00000  Uiso   1.00
C901   C     0.49980   0.66395   0.75039   0.00000  Uiso   1.00
C902   C     0.49918   0.83607   0.74956   0.00000  Uiso   1.00
C903   C     0.45640   0.73334   0.54758   0.00000  Uiso   1.00
C904   C     0.50980   0.78990   0.94778   0.00000  Uiso   1.00
C905   C     0.45833   0.73240   0.59734   0.00000  Uiso   1.00
C906   C     0.51119   0.78855   0.89847   0.00000  Uiso   1.00
C907   C     0.54057   0.76956   0.60685   0.00000  Uiso   1.00
C908   C     0.48650   0.71189   0.89723   0.00000  Uiso   1.00
C909   C     0.54213   0.76800   0.55710   0.00000  Uiso   1.00
C910   C     0.48811   0.71100   0.94732   0.00000  Uiso   1.00
C911   C     0.49870   0.75112   0.52652   0.00000  Uiso   1.00
C912   C     0.49848   0.75079   0.97327   0.00000  Uiso   1.00
C913   C     0.40055   0.74958   0.73781   0.00000  Uiso   1.00
C914   C     0.59945   0.75004   0.76223   0.00000  Uiso   1.00
C915   C     0.34601   0.74577   0.73161   0.00000  Uiso   1.00
C916   C     0.65404   0.75308   0.76862   0.00000  Uiso   1.00
C917   C     0.52658   0.54471   0.78387   0.00000  Uiso   1.00
C918   C     0.45605   0.95103   0.77217   0.00000  Uiso   1.00
C919   C     0.52991   0.59140   0.78527   0.00000  Uiso   1.00
C920   C     0.45798   0.90459   0.77224   0.00000  Uiso   1.00
C921   C     0.49688   0.61600   0.75107   0.00000  Uiso   1.00
C922   C     0.49514   0.88395   0.74846   0.00000  Uiso   1.00
C923   C     0.45948   0.59511   0.71796   0.00000  Uiso   1.00
C924   C     0.52837   0.90914   0.72338   0.00000  Uiso   1.00
C925   C     0.45590   0.54864   0.71711   0.00000  Uiso   1.00
C926   C     0.52686   0.95577   0.72364   0.00000  Uiso   1.00
C927   C     0.48955   0.52398   0.75043   0.00000  Uiso   1.00
C928   C     0.49002   0.97605   0.74782   0.00000  Uiso   1.00
H929   H     0.55355   0.52431   0.80756   0.00000  Uiso   1.00
H930   H     0.42853   0.96755   0.79134   0.00000  Uiso   1.00
H931   H     0.43293   0.61495   0.69319   0.00000  Uiso   1.00
H932   H     0.55597   0.89255   0.70468   0.00000  Uiso   1.00
H933   H     0.42582   0.71810   0.61286   0.00000  Uiso   1.00
H934   H     0.52064   0.81886   0.87991   0.00000  Uiso   1.00
N935   N     0.50000   0.74999   0.62624   0.00000  Uiso   1.00
N936   N     0.50000   0.75001   0.87377   0.00000  Uiso   1.00
O937   O     0.50000   0.68454   0.78974   0.00000  Uiso   1.00
O938   O     0.50000   0.81547   0.71026   0.00000  Uiso   1.00
O939   O     0.50000   0.68453   0.71026   0.00000  Uiso   1.00
O940   O     0.50000   0.81547   0.78974   0.00000  Uiso   1.00
O941   O     0.42392   0.75000   0.78045   0.00000  Uiso   1.00
O942   O     0.57608   0.75000   0.71956   0.00000  Uiso   1.00
O943   O     0.42392   0.75000   0.70097   0.00000  Uiso   1.00
O944   O     0.57608   0.75000   0.79904   0.00000  Uiso   1.00
Zn945  Zn    0.50000   0.75001   0.80307   0.00000  Uiso   1.00
Zn946  Zn    0.50000   0.75000   0.69693   0.00000  Uiso   1.00
F947   F     0.65538   0.73194   0.68835   0.00000  Uiso   1.00
F948   F     0.34476   0.76613   0.81217   0.00000  Uiso   1.00
O949   O     0.56861   0.61378   0.81532   0.00000  Uiso   1.00
C950   C     0.57100   0.59787   0.86264   0.00000  Uiso   1.00
H951   H     0.53147   0.59227   0.87323   0.00000  Uiso   1.00
H952   H     0.59127   0.62360   0.88649   0.00000  Uiso   1.00
H953   H     0.59453   0.56687   0.86823   0.00000  Uiso   1.00
O954   O     0.42525   0.87950   0.79722   0.00000  Uiso   1.00
C955   C     0.37660   0.87435   0.76822   0.00000  Uiso   1.00
H956   H     0.35022   0.85426   0.78812   0.00000  Uiso   1.00
H957   H     0.38073   0.85601   0.73522   0.00000  Uiso   1.00
H958   H     0.35772   0.90728   0.75928   0.00000  Uiso   1.00
O959   O     0.41812   0.52699   0.68583   0.00000  Uiso   1.00
C960   C     0.43084   0.53168   0.63935   0.00000  Uiso   1.00
H961   H     0.47122   0.52006   0.63727   0.00000  Uiso   1.00
H962   H     0.40356   0.51037   0.61543   0.00000  Uiso   1.00
H963   H     0.42595   0.56685   0.62600   0.00000  Uiso   1.00
O964   O     0.55821   0.98225   0.69824   0.00000  Uiso   1.00
C965   C     0.61151   0.97322   0.71334   0.00000  Uiso   1.00
H966   H     0.63523   0.50137   0.70134   0.00000  Uiso   1.00
H967   H     0.62337   0.94234   0.69663   0.00000  Uiso   1.00
H968   H     0.62088   0.97080   0.75281   0.00000  Uiso   1.00
F969   F     0.41296   0.71743   0.52021   0.00000  Uiso   1.00
F970   F     0.51855   0.82963   0.97021   0.00000  Uiso   1.00
O971   O     0.58169   0.78847   0.63653   0.00000  Uiso   1.00
C972   C     0.58032   0.83551   0.63081   0.00000  Uiso   1.00
H973   H     0.60813   0.85035   0.65986   0.00000  Uiso   1.00
H974   H     0.54077   0.84904   0.63294   0.00000  Uiso   1.00
H975   H     0.59351   0.84641   0.59687   0.00000  Uiso   1.00
O976   O     0.47446   0.67301   0.87234   0.00000  Uiso   1.00
C977   C     0.41972   0.66676   0.86521   0.00000  Uiso   1.00
H978   H     0.40995   0.63879   0.84019   0.00000  Uiso   1.00
H979   H     0.39906   0.69696   0.84907   0.00000  Uiso   1.00
H980   H     0.40503   0.65730   0.89896   0.00000  Uiso   1.00
O981   O     0.58514   0.78498   0.53847   0.00000  Uiso   1.00
C982   C     0.62383   0.75178   0.54222   0.00000  Uiso   1.00
H983   H     0.61113   0.72345   0.51831   0.00000  Uiso   1.00
H984   H     0.63467   0.73944   0.57947   0.00000  Uiso   1.00
H985   H     0.65955   0.76674   0.53059   0.00000  Uiso   1.00
O986   O     0.47689   0.67132   0.96992   0.00000  Uiso   1.00
C987   C     0.52405   0.64889   0.98541   0.00000  Uiso   1.00
H988   H     0.54650   0.66605   0.51629   0.00000  Uiso   1.00
H989   H     0.54846   0.64552   0.95641   0.00000  Uiso   1.00
H990   H     0.51454   0.61455   0.99742   0.00000  Uiso   1.00
C991   C     0.83313   0.66395   0.75039   0.00000  Uiso   1.00
C992   C     0.83252   0.83607   0.74956   0.00000  Uiso   1.00
C993   C     0.78974   0.73334   0.54758   0.00000  Uiso   1.00
C994   C     0.84313   0.78990   0.94778   0.00000  Uiso   1.00
C995   C     0.79166   0.73240   0.59734   0.00000  Uiso   1.00
C996   C     0.84452   0.78855   0.89847   0.00000  Uiso   1.00
C997   C     0.87390   0.76956   0.60685   0.00000  Uiso   1.00
C998   C     0.81983   0.71189   0.89723   0.00000  Uiso   1.00
C999   C     0.87546   0.76800   0.55710   0.00000  Uiso   1.00
C1000  C     0.82145   0.71100   0.94732   0.00000  Uiso   1.00
C1001  C     0.83203   0.75112   0.52652   0.00000  Uiso   1.00
C1002  C     0.83181   0.75079   0.97327   0.00000  Uiso   1.00
C1003  C     0.73389   0.74958   0.73781   0.00000  Uiso   1.00
C1004  C     0.93278   0.75004   0.76223   0.00000  Uiso   1.00
C1005  C     0.67934   0.74577   0.73161   0.00000  Uiso   1.00
C1006  C     0.98738   0.75308   0.76862   0.00000  Uiso   1.00
C1007  C     0.85991   0.54471   0.78387   0.00000  Uiso   1.00
C1008  C     0.78939   0.95103   0.77217   0.00000  Uiso   1.00
C1009  C     0.86325   0.59140   0.78527   0.00000  Uiso   1.00
C1010  C     0.79132   0.90459   0.77224   0.00000  Uiso   1.00
C1011  C     0.83021   0.61600   0.75107   0.00000  Uiso   1.00
C1012  C     0.82847   0.88395   0.74846   0.00000  Uiso   1.00
C1013  C     0.79281   0.59511   0.71796   0.00000  Uiso   1.00
C1014  C     0.86171   0.90914   0.72338   0.00000  Uiso   1.00
C1015  C     0.78923   0.54864   0.71711   0.00000  Uiso   1.00
C1016  C     0.86019   0.95577   0.72364   0.00000  Uiso   1.00
C1017  C     0.82288   0.52398   0.75043   0.00000  Uiso   1.00
C1018  C     0.82335   0.97605   0.74782   0.00000  Uiso   1.00
H1019  H     0.88688   0.52431   0.80756   0.00000  Uiso   1.00
H1020  H     0.76186   0.96755   0.79134   0.00000  Uiso   1.00
H1021  H     0.76626   0.61495   0.69319   0.00000  Uiso   1.00
H1022  H     0.88930   0.89255   0.70468   0.00000  Uiso   1.00
H1023  H     0.75916   0.71810   0.61286   0.00000  Uiso   1.00
H1024  H     0.85397   0.81886   0.87991   0.00000  Uiso   1.00
N1025  N     0.83333   0.74999   0.62624   0.00000  Uiso   1.00
N1026  N     0.83333   0.75001   0.87377   0.00000  Uiso   1.00
O1027  O     0.83334   0.68454   0.78974   0.00000  Uiso   1.00
O1028  O     0.83333   0.81547   0.71026   0.00000  Uiso   1.00
O1029  O     0.83334   0.68453   0.71026   0.00000  Uiso   1.00
O1030  O     0.83333   0.81547   0.78974   0.00000  Uiso   1.00
O1031  O     0.75725   0.75000   0.78045   0.00000  Uiso   1.00
O1032  O     0.90942   0.75000   0.71956   0.00000  Uiso   1.00
O1033  O     0.75725   0.75000   0.70097   0.00000  Uiso   1.00
O1034  O     0.90942   0.75000   0.79904   0.00000  Uiso   1.00
Zn1035 Zn    0.83333   0.75001   0.80307   0.00000  Uiso   1.00
Zn1036 Zn    0.83333   0.75000   0.69693   0.00000  Uiso   1.00
F1037  F     0.98871   0.73194   0.68835   0.00000  Uiso   1.00
F1038  F     0.67809   0.76613   0.81217   0.00000  Uiso   1.00
O1039  O     0.90194   0.61378   0.81532   0.00000  Uiso   1.00
C1040  C     0.90433   0.59787   0.86264   0.00000  Uiso   1.00
H1041  H     0.86481   0.59227   0.87323   0.00000  Uiso   1.00
H1042  H     0.92460   0.62360   0.88649   0.00000  Uiso   1.00
H1043  H     0.92786   0.56687   0.86823   0.00000  Uiso   1.00
O1044  O     0.75858   0.87950   0.79722   0.00000  Uiso   1.00
C1045  C     0.70993   0.87435   0.76822   0.00000  Uiso   1.00
H1046  H     0.68355   0.85426   0.78812   0.00000  Uiso   1.00
H1047  H     0.71406   0.85601   0.73522   0.00000  Uiso   1.00
H1048  H     0.69106   0.90728   0.75928   0.00000  Uiso   1.00
O1049  O     0.75145   0.52699   0.68583   0.00000  Uiso   1.00
C1050  C     0.76417   0.53168   0.63935   0.00000  Uiso   1.00
H1051  H     0.80456   0.52006   0.63727   0.00000  Uiso   1.00
H1052  H     0.73689   0.51037   0.61543   0.00000  Uiso   1.00
H1053  H     0.75929   0.56685   0.62600   0.00000  Uiso   1.00
O1054  O     0.89154   0.98225   0.69824   0.00000  Uiso   1.00
C1055  C     0.94485   0.97322   0.71334   0.00000  Uiso   1.00
H1056  H     0.96856   0.50137   0.70134   0.00000  Uiso   1.00
H1057  H     0.95670   0.94234   0.69663   0.00000  Uiso   1.00
H1058  H     0.95421   0.97080   0.75281   0.00000  Uiso   1.00
F1059  F     0.74629   0.71743   0.52021   0.00000  Uiso   1.00
F1060  F     0.85188   0.82963   0.97021   0.00000  Uiso   1.00
O1061  O     0.91502   0.78847   0.63653   0.00000  Uiso   1.00
C1062  C     0.91366   0.83551   0.63081   0.00000  Uiso   1.00
H1063  H     0.94147   0.85035   0.65986   0.00000  Uiso   1.00
H1064  H     0.87411   0.84904   0.63294   0.00000  Uiso   1.00
H1065  H     0.92685   0.84641   0.59687   0.00000  Uiso   1.00
O1066  O     0.80780   0.67301   0.87234   0.00000  Uiso   1.00
C1067  C     0.75306   0.66676   0.86521   0.00000  Uiso   1.00
H1068  H     0.74328   0.63879   0.84019   0.00000  Uiso   1.00
H1069  H     0.73239   0.69696   0.84907   0.00000  Uiso   1.00
H1070  H     0.73837   0.65730   0.89896   0.00000  Uiso   1.00
O1071  O     0.91847   0.78498   0.53847   0.00000  Uiso   1.00
C1072  C     0.95717   0.75178   0.54222   0.00000  Uiso   1.00
H1073  H     0.94447   0.72345   0.51831   0.00000  Uiso   1.00
H1074  H     0.96800   0.73944   0.57947   0.00000  Uiso   1.00
H1075  H     0.99288   0.76674   0.53059   0.00000  Uiso   1.00
O1076  O     0.81023   0.67132   0.96992   0.00000  Uiso   1.00
C1077  C     0.85738   0.64889   0.98541   0.00000  Uiso   1.00
H1078  H     0.87983   0.66605   0.51629   0.00000  Uiso   1.00
H1079  H     0.88179   0.64552   0.95641   0.00000  Uiso   1.00
H1080  H     0.84787   0.61455   0.99742   0.00000  Uiso   1.00
loop_
_geom_bond_atom_site_label_1
_geom_bond_atom_site_label_2
_geom_bond_distance
_geom_bond_site_symmetry_2
_ccdc_geom_bond_type
C1     C21     1.431   .     S
C1     O37     1.285   .     A
C1     O39     1.286   .     A
C2     O38     1.288   .     A
C2     C22     1.433   .     S
C2     O40     1.284   .     A
C3     F69     1.357   .     S
C3     C5      1.408   .     A
C3     C11     1.411   .     A
C4     C12     1.411   .     A
C4     F70     1.357   .     S
C4     C6      1.409   .     A
C5     H33     1.082   .     S
C5     N35     1.363   .     A
C6     H34     1.081   .     S
C6     N36     1.364   .     A
C7     O71     1.380   .     S
C7     C9      1.422   .     A
C7     N35     1.371   .     A
C8     O76     1.378   .     S
C8     N36     1.373   .     A
C8     C10     1.418   .     A
C9     C11     1.411   .     A
C9     O81     1.383   .     S
C10    C12     1.411   .     A
C10    O86     1.383   .     S
C11    C552    1.513   1_554 S
C12    C551    1.513   .     S
C13    O41     1.275   .     A
C13    C15     1.398   .     S
C13    O43     1.281   .     A
C14    O42     1.276   .     A
C14    C16     1.398   .     S
C14    O44     1.280   .     A
C15    C196    1.338   1_455 S
C15    F227    1.364   1_455 S
C16    C105    1.338   .     S
C16    F138    1.365   .     S
C17    H29     1.083   .     S
C17    C27     1.396   .     A
C17    C19     1.395   .     A
C18    H30     1.084   .     S
C18    C28     1.393   .     A
C18    C20     1.387   .     A
C19    C21     1.403   .     A
C19    O49     1.391   .     S
C20    O54     1.383   .     S
C20    C22     1.405   .     A
C21    C23     1.398   .     A
C22    C24     1.395   .     A
C23    H31     1.084   .     S
C23    C25     1.388   .     A
C24    C26     1.392   .     A
C24    H32     1.079   .     S
C25    C27     1.397   .     A
C25    O59     1.385   .     S
C26    O64     1.389   .     S
C26    C28     1.401   .     A
C27    C298    1.433   1_545 S
C28    C297    1.433   .     S
N35    Zn46    2.010   .     S
N36    Zn45    2.010   .     S
O37    Zn45    1.996   .     S
O38    Zn46    1.996   .     S
O39    Zn46    1.982   .     S
O40    Zn45    1.982   .     S
O41    Zn45    1.980   .     S
O42    Zn46    1.980   .     S
O43    Zn46    1.985   .     S
O44    Zn45    1.985   .     S
F47    C105    1.364   .     S
F48    C196    1.365   1_455 S
O49    C50     1.411   .     S
C50    H52     1.109   .     S
C50    H53     1.110   .     S
C50    H51     1.115   .     S
O54    C55     1.410   .     S
C55    H56     1.109   .     S
C55    H58     1.112   .     S
C55    H57     1.114   .     S
O59    C60     1.410   .     S
C60    H63     1.112   .     S
C60    H62     1.109   .     S
C60    H61     1.114   .     S
O64    C65     1.411   .     S
C65    H67     1.111   .     S
C65    H68     1.115   .     S
C65    H336    1.109   .     S
H66    C335    1.109   1_545 S
O71    C72     1.410   .     S
C72    H75     1.110   .     S
C72    H74     1.114   .     S
C72    H73     1.109   .     S
O76    C77     1.410   .     S
C77    H78     1.109   .     S
C77    H79     1.112   .     S
C77    H80     1.111   .     S
O81    C82     1.409   .     S
C82    H84     1.113   .     S
C82    H85     1.109   .     S
C82    H83     1.111   .     S
O86    C87     1.409   .     S
C87    H90     1.109   .     S
C87    H89     1.113   .     S
C87    H628    1.110   .     S
H88    C627    1.110   1_554 S
C91    C111    1.431   .     S
C91    O127    1.285   .     A
C91    O129    1.286   .     A
C92    O128    1.288   .     A
C92    C112    1.433   .     S
C92    O130    1.284   .     A
C93    F159    1.357   .     S
C93    C95     1.408   .     A
C93    C101    1.411   .     A
C94    C102    1.411   .     A
C94    F160    1.357   .     S
C94    C96     1.409   .     A
C95    H123    1.082   .     S
C95    N125    1.363   .     A
C96    H124    1.081   .     S
C96    N126    1.364   .     A
C97    O161    1.380   .     S
C97    C99     1.422   .     A
C97    N125    1.371   .     A
C98    O166    1.378   .     S
C98    N126    1.373   .     A
C98    C100    1.418   .     A
C99    C101    1.411   .     A
C99    O171    1.383   .     S
C100   C102    1.411   .     A
C100   O176    1.383   .     S
C101   C642    1.513   1_554 S
C102   C641    1.513   .     S
C103   O131    1.275   .     A
C103   C105    1.398   .     S
C103   O133    1.281   .     A
C104   O132    1.276   .     A
C104   C106    1.398   .     S
C104   O134    1.280   .     A
C106   C195    1.338   .     S
C106   F228    1.365   .     S
C107   H119    1.083   .     S
C107   C117    1.396   .     A
C107   C109    1.395   .     A
C108   H120    1.084   .     S
C108   C118    1.393   .     A
C108   C110    1.387   .     A
C109   C111    1.403   .     A
C109   O139    1.391   .     S
C110   O144    1.383   .     S
C110   C112    1.405   .     A
C111   C113    1.398   .     A
C112   C114    1.395   .     A
C113   H121    1.084   .     S
C113   C115    1.388   .     A
C114   C116    1.392   .     A
C114   H122    1.079   .     S
C115   C117    1.397   .     A
C115   O149    1.385   .     S
C116   O154    1.389   .     S
C116   C118    1.401   .     A
C117   C388    1.433   1_545 S
C118   C387    1.433   .     S
N125   Zn136   2.010   .     S
N126   Zn135   2.010   .     S
O127   Zn135   1.996   .     S
O128   Zn136   1.996   .     S
O129   Zn136   1.982   .     S
O130   Zn135   1.982   .     S
O131   Zn135   1.980   .     S
O132   Zn136   1.980   .     S
O133   Zn136   1.985   .     S
O134   Zn135   1.985   .     S
F137   C195    1.364   .     S
O139   C140    1.411   .     S
C140   H142    1.109   .     S
C140   H143    1.110   .     S
C140   H141    1.115   .     S
O144   C145    1.410   .     S
C145   H146    1.109   .     S
C145   H148    1.112   .     S
C145   H147    1.114   .     S
O149   C150    1.410   .     S
C150   H153    1.112   .     S
C150   H152    1.109   .     S
C150   H151    1.114   .     S
O154   C155    1.411   .     S
C155   H157    1.111   .     S
C155   H158    1.115   .     S
C155   H426    1.109   .     S
H156   C425    1.109   1_545 S
O161   C162    1.410   .     S
C162   H165    1.110   .     S
C162   H164    1.114   .     S
C162   H163    1.109   .     S
O166   C167    1.410   .     S
C167   H168    1.109   .     S
C167   H169    1.112   .     S
C167   H170    1.111   .     S
O171   C172    1.409   .     S
C172   H174    1.113   .     S
C172   H175    1.109   .     S
C172   H173    1.111   .     S
O176   C177    1.409   .     S
C177   H180    1.109   .     S
C177   H179    1.113   .     S
C177   H718    1.110   .     S
H178   C717    1.110   1_554 S
C181   C201    1.431   .     S
C181   O217    1.285   .     A
C181   O219    1.286   .     A
C182   O218    1.288   .     A
C182   C202    1.433   .     S
C182   O220    1.284   .     A
C183   F249    1.357   .     S
C183   C185    1.408   .     A
C183   C191    1.411   .     A
C184   C192    1.411   .     A
C184   F250    1.357   .     S
C184   C186    1.409   .     A
C185   H213    1.082   .     S
C185   N215    1.363   .     A
C186   H214    1.081   .     S
C186   N216    1.364   .     A
C187   O251    1.380   .     S
C187   C189    1.422   .     A
C187   N215    1.371   .     A
C188   O256    1.378   .     S
C188   N216    1.373   .     A
C188   C190    1.418   .     A
C189   C191    1.411   .     A
C189   O261    1.383   .     S
C190   C192    1.411   .     A
C190   O266    1.383   .     S
C191   C732    1.513   1_554 S
C192   C731    1.513   .     S
C193   O221    1.275   .     A
C193   C195    1.398   .     S
C193   O223    1.281   .     A
C194   O222    1.276   .     A
C194   C196    1.398   .     S
C194   O224    1.280   .     A
C196   C15     1.338   1_655 S
C196   F48     1.365   1_655 S
C197   H209    1.083   .     S
C197   C207    1.396   .     A
C197   C199    1.395   .     A
C198   H210    1.084   .     S
C198   C208    1.393   .     A
C198   C200    1.387   .     A
C199   C201    1.403   .     A
C199   O229    1.391   .     S
C200   O234    1.383   .     S
C200   C202    1.405   .     A
C201   C203    1.398   .     A
C202   C204    1.395   .     A
C203   H211    1.084   .     S
C203   C205    1.388   .     A
C204   C206    1.392   .     A
C204   H212    1.079   .     S
C205   C207    1.397   .     A
C205   O239    1.385   .     S
C206   O244    1.389   .     S
C206   C208    1.401   .     A
C207   C478    1.433   1_545 S
C208   C477    1.433   .     S
N215   Zn226   2.010   .     S
N216   Zn225   2.010   .     S
O217   Zn225   1.996   .     S
O218   Zn226   1.996   .     S
O219   Zn226   1.982   .     S
O220   Zn225   1.982   .     S
O221   Zn225   1.980   .     S
O222   Zn226   1.980   .     S
O223   Zn226   1.985   .     S
O224   Zn225   1.985   .     S
F227   C15     1.364   1_655 S
O229   C230    1.411   .     S
C230   H232    1.109   .     S
C230   H233    1.110   .     S
C230   H231    1.115   .     S
O234   C235    1.410   .     S
C235   H236    1.109   .     S
C235   H238    1.112   .     S
C235   H237    1.114   .     S
O239   C240    1.410   .     S
C240   H243    1.112   .     S
C240   H242    1.109   .     S
C240   H241    1.114   .     S
O244   C245    1.411   .     S
C245   H247    1.111   .     S
C245   H248    1.115   .     S
C245   H516    1.109   .     S
H246   C515    1.109   1_545 S
O251   C252    1.410   .     S
C252   H255    1.110   .     S
C252   H254    1.114   .     S
C252   H253    1.109   .     S
O256   C257    1.410   .     S
C257   H258    1.109   .     S
C257   H259    1.112   .     S
C257   H260    1.111   .     S
O261   C262    1.409   .     S
C262   H264    1.113   .     S
C262   H265    1.109   .     S
C262   H263    1.111   .     S
O266   C267    1.409   .     S
C267   H270    1.109   .     S
C267   H269    1.113   .     S
C267   H808    1.110   .     S
H268   C807    1.110   1_554 S
C271   C291    1.431   .     S
C271   O307    1.285   .     A
C271   O309    1.286   .     A
C272   O308    1.288   .     A
C272   C292    1.433   .     S
C272   O310    1.284   .     A
C273   F339    1.357   .     S
C273   C275    1.408   .     A
C273   C281    1.411   .     A
C274   C282    1.411   .     A
C274   F340    1.357   .     S
C274   C276    1.409   .     A
C275   H303    1.082   .     S
C275   N305    1.363   .     A
C276   H304    1.081   .     S
C276   N306    1.364   .     A
C277   O341    1.380   .     S
C277   C279    1.422   .     A
C277   N305    1.371   .     A
C278   O346    1.378   .     S
C278   N306    1.373   .     A
C278   C280    1.418   .     A
C279   C281    1.411   .     A
C279   O351    1.383   .     S
C280   C282    1.411   .     A
C280   O356    1.383   .     S
C281   C822    1.513   1_554 S
C282   C821    1.513   .     S
C283   O311    1.275   .     A
C283   C285    1.398   .     S
C283   O313    1.281   .     A
C284   O312    1.276   .     A
C284   C286    1.398   .     S
C284   O314    1.280   .     A
C285   C466    1.338   1_455 S
C285   F497    1.364   1_455 S
C286   C375    1.338   .     S
C286   F408    1.365   .     S
C287   H299    1.083   .     S
C287   C297    1.396   .     A
C287   C289    1.395   .     A
C288   H300    1.084   .     S
C288   C298    1.393   .     A
C288   C290    1.387   .     A
C289   C291    1.403   .     A
C289   O319    1.391   .     S
C290   O324    1.383   .     S
C290   C292    1.405   .     A
C291   C293    1.398   .     A
C292   C294    1.395   .     A
C293   H301    1.084   .     S
C293   C295    1.388   .     A
C294   C296    1.392   .     A
C294   H302    1.079   .     S
C295   C297    1.397   .     A
C295   O329    1.385   .     S
C296   O334    1.389   .     S
C296   C298    1.401   .     A
C298   C27     1.433   1_565 S
N305   Zn316   2.010   .     S
N306   Zn315   2.010   .     S
O307   Zn315   1.996   .     S
O308   Zn316   1.996   .     S
O309   Zn316   1.982   .     S
O310   Zn315   1.982   .     S
O311   Zn315   1.980   .     S
O312   Zn316   1.980   .     S
O313   Zn316   1.985   .     S
O314   Zn315   1.985   .     S
F317   C375    1.364   .     S
F318   C466    1.365   1_455 S
O319   C320    1.411   .     S
C320   H322    1.109   .     S
C320   H323    1.110   .     S
C320   H321    1.115   .     S
O324   C325    1.410   .     S
C325   H326    1.109   .     S
C325   H328    1.112   .     S
C325   H327    1.114   .     S
O329   C330    1.410   .     S
C330   H333    1.112   .     S
C330   H332    1.109   .     S
C330   H331    1.114   .     S
O334   C335    1.411   .     S
C335   H337    1.111   .     S
C335   H338    1.115   .     S
C335   H66     1.109   1_565 S
O341   C342    1.410   .     S
C342   H345    1.110   .     S
C342   H344    1.114   .     S
C342   H343    1.109   .     S
O346   C347    1.410   .     S
C347   H348    1.109   .     S
C347   H349    1.112   .     S
C347   H350    1.111   .     S
O351   C352    1.409   .     S
C352   H354    1.113   .     S
C352   H355    1.109   .     S
C352   H353    1.111   .     S
O356   C357    1.409   .     S
C357   H360    1.109   .     S
C357   H359    1.113   .     S
C357   H898    1.110   .     S
H358   C897    1.110   1_554 S
C361   C381    1.431   .     S
C361   O397    1.285   .     A
C361   O399    1.286   .     A
C362   O398    1.288   .     A
C362   C382    1.433   .     S
C362   O400    1.284   .     A
C363   F429    1.357   .     S
C363   C365    1.408   .     A
C363   C371    1.411   .     A
C364   C372    1.411   .     A
C364   F430    1.357   .     S
C364   C366    1.409   .     A
C365   H393    1.082   .     S
C365   N395    1.363   .     A
C366   H394    1.081   .     S
C366   N396    1.364   .     A
C367   O431    1.380   .     S
C367   C369    1.422   .     A
C367   N395    1.371   .     A
C368   O436    1.378   .     S
C368   N396    1.373   .     A
C368   C370    1.418   .     A
C369   C371    1.411   .     A
C369   O441    1.383   .     S
C370   C372    1.411   .     A
C370   O446    1.383   .     S
C371   C912    1.513   1_554 S
C372   C911    1.513   .     S
C373   O401    1.275   .     A
C373   C375    1.398   .     S
C373   O403    1.281   .     A
C374   O402    1.276   .     A
C374   C376    1.398   .     S
C374   O404    1.280   .     A
C376   C465    1.338   .     S
C376   F498    1.365   .     S
C377   H389    1.083   .     S
C377   C387    1.396   .     A
C377   C379    1.395   .     A
C378   H390    1.084   .     S
C378   C388    1.393   .     A
C378   C380    1.387   .     A
C379   C381    1.403   .     A
C379   O409    1.391   .     S
C380   O414    1.383   .     S
C380   C382    1.405   .     A
C381   C383    1.398   .     A
C382   C384    1.395   .     A
C383   H391    1.084   .     S
C383   C385    1.388   .     A
C384   C386    1.392   .     A
C384   H392    1.079   .     S
C385   C387    1.397   .     A
C385   O419    1.385   .     S
C386   O424    1.389   .     S
C386   C388    1.401   .     A
C388   C117    1.433   1_565 S
N395   Zn406   2.010   .     S
N396   Zn405   2.010   .     S
O397   Zn405   1.996   .     S
O398   Zn406   1.996   .     S
O399   Zn406   1.982   .     S
O400   Zn405   1.982   .     S
O401   Zn405   1.980   .     S
O402   Zn406   1.980   .     S
O403   Zn406   1.985   .     S
O404   Zn405   1.985   .     S
F407   C465    1.364   .     S
O409   C410    1.411   .     S
C410   H412    1.109   .     S
C410   H413    1.110   .     S
C410   H411    1.115   .     S
O414   C415    1.410   .     S
C415   H416    1.109   .     S
C415   H418    1.112   .     S
C415   H417    1.114   .     S
O419   C420    1.410   .     S
C420   H423    1.112   .     S
C420   H422    1.109   .     S
C420   H421    1.114   .     S
O424   C425    1.411   .     S
C425   H427    1.111   .     S
C425   H428    1.115   .     S
C425   H156    1.109   1_565 S
O431   C432    1.410   .     S
C432   H435    1.110   .     S
C432   H434    1.114   .     S
C432   H433    1.109   .     S
O436   C437    1.410   .     S
C437   H438    1.109   .     S
C437   H439    1.112   .     S
C437   H440    1.111   .     S
O441   C442    1.409   .     S
C442   H444    1.113   .     S
C442   H445    1.109   .     S
C442   H443    1.111   .     S
O446   C447    1.409   .     S
C447   H450    1.109   .     S
C447   H449    1.113   .     S
C447   H988    1.110   .     S
H448   C987    1.110   1_554 S
C451   C471    1.431   .     S
C451   O487    1.285   .     A
C451   O489    1.286   .     A
C452   O488    1.288   .     A
C452   C472    1.433   .     S
C452   O490    1.284   .     A
C453   F519    1.357   .     S
C453   C455    1.408   .     A
C453   C461    1.411   .     A
C454   C462    1.411   .     A
C454   F520    1.357   .     S
C454   C456    1.409   .     A
C455   H483    1.082   .     S
C455   N485    1.363   .     A
C456   H484    1.081   .     S
C456   N486    1.364   .     A
C457   O521    1.380   .     S
C457   C459    1.422   .     A
C457   N485    1.371   .     A
C458   O526    1.378   .     S
C458   N486    1.373   .     A
C458   C460    1.418   .     A
C459   C461    1.411   .     A
C459   O531    1.383   .     S
C460   C462    1.411   .     A
C460   O536    1.383   .     S
C461   C1002   1.513   1_554 S
C462   C1001   1.513   .     S
C463   O491    1.275   .     A
C463   C465    1.398   .     S
C463   O493    1.281   .     A
C464   O492    1.276   .     A
C464   C466    1.398   .     S
C464   O494    1.280   .     A
C466   C285    1.338   1_655 S
C466   F318    1.365   1_655 S
C467   H479    1.083   .     S
C467   C477    1.396   .     A
C467   C469    1.395   .     A
C468   H480    1.084   .     S
C468   C478    1.393   .     A
C468   C470    1.387   .     A
C469   C471    1.403   .     A
C469   O499    1.391   .     S
C470   O504    1.383   .     S
C470   C472    1.405   .     A
C471   C473    1.398   .     A
C472   C474    1.395   .     A
C473   H481    1.084   .     S
C473   C475    1.388   .     A
C474   C476    1.392   .     A
C474   H482    1.079   .     S
C475   C477    1.397   .     A
C475   O509    1.385   .     S
C476   O514    1.389   .     S
C476   C478    1.401   .     A
C478   C207    1.433   1_565 S
N485   Zn496   2.010   .     S
N486   Zn495   2.010   .     S
O487   Zn495   1.996   .     S
O488   Zn496   1.996   .     S
O489   Zn496   1.982   .     S
O490   Zn495   1.982   .     S
O491   Zn495   1.980   .     S
O492   Zn496   1.980   .     S
O493   Zn496   1.985   .     S
O494   Zn495   1.985   .     S
F497   C285    1.364   1_655 S
O499   C500    1.411   .     S
C500   H502    1.109   .     S
C500   H503    1.110   .     S
C500   H501    1.115   .     S
O504   C505    1.410   .     S
C505   H506    1.109   .     S
C505   H508    1.112   .     S
C505   H507    1.114   .     S
O509   C510    1.410   .     S
C510   H513    1.112   .     S
C510   H512    1.109   .     S
C510   H511    1.114   .     S
O514   C515    1.411   .     S
C515   H517    1.111   .     S
C515   H518    1.115   .     S
C515   H246    1.109   1_565 S
O521   C522    1.410   .     S
C522   H525    1.110   .     S
C522   H524    1.114   .     S
C522   H523    1.109   .     S
O526   C527    1.410   .     S
C527   H528    1.109   .     S
C527   H529    1.112   .     S
C527   H530    1.111   .     S
O531   C532    1.409   .     S
C532   H534    1.113   .     S
C532   H535    1.109   .     S
C532   H533    1.111   .     S
O536   C537    1.409   .     S
C537   H540    1.109   .     S
C537   H539    1.113   .     S
C537   H1078   1.110   .     S
H538   C1077   1.110   1_554 S
C541   C561    1.431   .     S
C541   O577    1.285   .     A
C541   O579    1.286   .     A
C542   O578    1.288   .     A
C542   C562    1.433   .     S
C542   O580    1.284   .     A
C543   F609    1.357   .     S
C543   C545    1.408   .     A
C543   C551    1.411   .     A
C544   C552    1.411   .     A
C544   F610    1.357   .     S
C544   C546    1.409   .     A
C545   H573    1.082   .     S
C545   N575    1.363   .     A
C546   H574    1.081   .     S
C546   N576    1.364   .     A
C547   O611    1.380   .     S
C547   C549    1.422   .     A
C547   N575    1.371   .     A
C548   O616    1.378   .     S
C548   N576    1.373   .     A
C548   C550    1.418   .     A
C549   C551    1.411   .     A
C549   O621    1.383   .     S
C550   C552    1.411   .     A
C550   O626    1.383   .     S
C552   C11     1.513   1_556 S
C553   O581    1.275   .     A
C553   C555    1.398   .     S
C553   O583    1.281   .     A
C554   O582    1.276   .     A
C554   C556    1.398   .     S
C554   O584    1.280   .     A
C555   C736    1.338   1_455 S
C555   F767    1.364   1_455 S
C556   C645    1.338   .     S
C556   F678    1.365   .     S
C557   H569    1.083   .     S
C557   C567    1.396   .     A
C557   C559    1.395   .     A
C558   H570    1.084   .     S
C558   C568    1.393   .     A
C558   C560    1.387   .     A
C559   C561    1.403   .     A
C559   O589    1.391   .     S
C560   O594    1.383   .     S
C560   C562    1.405   .     A
C561   C563    1.398   .     A
C562   C564    1.395   .     A
C563   H571    1.084   .     S
C563   C565    1.388   .     A
C564   C566    1.392   .     A
C564   H572    1.079   .     S
C565   C567    1.397   .     A
C565   O599    1.385   .     S
C566   O604    1.389   .     S
C566   C568    1.401   .     A
C567   C838    1.433   1_545 S
C568   C837    1.433   .     S
N575   Zn586   2.010   .     S
N576   Zn585   2.010   .     S
O577   Zn585   1.996   .     S
O578   Zn586   1.996   .     S
O579   Zn586   1.982   .     S
O580   Zn585   1.982   .     S
O581   Zn585   1.980   .     S
O582   Zn586   1.980   .     S
O583   Zn586   1.985   .     S
O584   Zn585   1.985   .     S
F587   C645    1.364   .     S
F588   C736    1.365   1_455 S
O589   C590    1.411   .     S
C590   H592    1.109   .     S
C590   H593    1.110   .     S
C590   H591    1.115   .     S
O594   C595    1.410   .     S
C595   H596    1.109   .     S
C595   H598    1.112   .     S
C595   H597    1.114   .     S
O599   C600    1.410   .     S
C600   H603    1.112   .     S
C600   H602    1.109   .     S
C600   H601    1.114   .     S
O604   C605    1.411   .     S
C605   H607    1.111   .     S
C605   H608    1.115   .     S
C605   H876    1.109   .     S
H606   C875    1.109   1_545 S
O611   C612    1.410   .     S
C612   H615    1.110   .     S
C612   H614    1.114   .     S
C612   H613    1.109   .     S
O616   C617    1.410   .     S
C617   H618    1.109   .     S
C617   H619    1.112   .     S
C617   H620    1.111   .     S
O621   C622    1.409   .     S
C622   H624    1.113   .     S
C622   H625    1.109   .     S
C622   H623    1.111   .     S
O626   C627    1.409   .     S
C627   H630    1.109   .     S
C627   H629    1.113   .     S
C627   H88     1.110   1_556 S
C631   C651    1.431   .     S
C631   O667    1.285   .     A
C631   O669    1.286   .     A
C632   O668    1.288   .     A
C632   C652    1.433   .     S
C632   O670    1.284   .     A
C633   F699    1.357   .     S
C633   C635    1.408   .     A
C633   C641    1.411   .     A
C634   C642    1.411   .     A
C634   F700    1.357   .     S
C634   C636    1.409   .     A
C635   H663    1.082   .     S
C635   N665    1.363   .     A
C636   H664    1.081   .     S
C636   N666    1.364   .     A
C637   O701    1.380   .     S
C637   C639    1.422   .     A
C637   N665    1.371   .     A
C638   O706    1.378   .     S
C638   N666    1.373   .     A
C638   C640    1.418   .     A
C639   C641    1.411   .     A
C639   O711    1.383   .     S
C640   C642    1.411   .     A
C640   O716    1.383   .     S
C642   C101    1.513   1_556 S
C643   O671    1.275   .     A
C643   C645    1.398   .     S
C643   O673    1.281   .     A
C644   O672    1.276   .     A
C644   C646    1.398   .     S
C644   O674    1.280   .     A
C646   C735    1.338   .     S
C646   F768    1.365   .     S
C647   H659    1.083   .     S
C647   C657    1.396   .     A
C647   C649    1.395   .     A
C648   H660    1.084   .     S
C648   C658    1.393   .     A
C648   C650    1.387   .     A
C649   C651    1.403   .     A
C649   O679    1.391   .     S
C650   O684    1.383   .     S
C650   C652    1.405   .     A
C651   C653    1.398   .     A
C652   C654    1.395   .     A
C653   H661    1.084   .     S
C653   C655    1.388   .     A
C654   C656    1.392   .     A
C654   H662    1.079   .     S
C655   C657    1.397   .     A
C655   O689    1.385   .     S
C656   O694    1.389   .     S
C656   C658    1.401   .     A
C657   C928    1.433   1_545 S
C658   C927    1.433   .     S
N665   Zn676   2.010   .     S
N666   Zn675   2.010   .     S
O667   Zn675   1.996   .     S
O668   Zn676   1.996   .     S
O669   Zn676   1.982   .     S
O670   Zn675   1.982   .     S
O671   Zn675   1.980   .     S
O672   Zn676   1.980   .     S
O673   Zn676   1.985   .     S
O674   Zn675   1.985   .     S
F677   C735    1.364   .     S
O679   C680    1.411   .     S
C680   H682    1.109   .     S
C680   H683    1.110   .     S
C680   H681    1.115   .     S
O684   C685    1.410   .     S
C685   H686    1.109   .     S
C685   H688    1.112   .     S
C685   H687    1.114   .     S
O689   C690    1.410   .     S
C690   H693    1.112   .     S
C690   H692    1.109   .     S
C690   H691    1.114   .     S
O694   C695    1.411   .     S
C695   H697    1.111   .     S
C695   H698    1.115   .     S
C695   H966    1.109   .     S
H696   C965    1.109   1_545 S
O701   C702    1.410   .     S
C702   H705    1.110   .     S
C702   H704    1.114   .     S
C702   H703    1.109   .     S
O706   C707    1.410   .     S
C707   H708    1.109   .     S
C707   H709    1.112   .     S
C707   H710    1.111   .     S
O711   C712    1.409   .     S
C712   H714    1.113   .     S
C712   H715    1.109   .     S
C712   H713    1.111   .     S
O716   C717    1.409   .     S
C717   H720    1.109   .     S
C717   H719    1.113   .     S
C717   H178    1.110   1_556 S
C721   C741    1.431   .     S
C721   O757    1.285   .     A
C721   O759    1.286   .     A
C722   O758    1.288   .     A
C722   C742    1.433   .     S
C722   O760    1.284   .     A
C723   F789    1.357   .     S
C723   C725    1.408   .     A
C723   C731    1.411   .     A
C724   C732    1.411   .     A
C724   F790    1.357   .     S
C724   C726    1.409   .     A
C725   H753    1.082   .     S
C725   N755    1.363   .     A
C726   H754    1.081   .     S
C726   N756    1.364   .     A
C727   O791    1.380   .     S
C727   C729    1.422   .     A
C727   N755    1.371   .     A
C728   O796    1.378   .     S
C728   N756    1.373   .     A
C728   C730    1.418   .     A
C729   C731    1.411   .     A
C729   O801    1.383   .     S
C730   C732    1.411   .     A
C730   O806    1.383   .     S
C732   C191    1.513   1_556 S
C733   O761    1.275   .     A
C733   C735    1.398   .     S
C733   O763    1.281   .     A
C734   O762    1.276   .     A
C734   C736    1.398   .     S
C734   O764    1.280   .     A
C736   C555    1.338   1_655 S
C736   F588    1.365   1_655 S
C737   H749    1.083   .     S
C737   C747    1.396   .     A
C737   C739    1.395   .     A
C738   H750    1.084   .     S
C738   C748    1.393   .     A
C738   C740    1.387   .     A
C739   C741    1.403   .     A
C739   O769    1.391   .     S
C740   O774    1.383   .     S
C740   C742    1.405   .     A
C741   C743    1.398   .     A
C742   C744    1.395   .     A
C743   H751    1.084   .     S
C743   C745    1.388   .     A
C744   C746    1.392   .     A
C744   H752    1.079   .     S
C745   C747    1.397   .     A
C745   O779    1.385   .     S
C746   O784    1.389   .     S
C746   C748    1.401   .     A
C747   C1018   1.433   1_545 S
C748   C1017   1.433   .     S
N755   Zn766   2.010   .     S
N756   Zn765   2.010   .     S
O757   Zn765   1.996   .     S
O758   Zn766   1.996   .     S
O759   Zn766   1.982   .     S
O760   Zn765   1.982   .     S
O761   Zn765   1.980   .     S
O762   Zn766   1.980   .     S
O763   Zn766   1.985   .     S
O764   Zn765   1.985   .     S
F767   C555    1.364   1_655 S
O769   C770    1.411   .     S
C770   H772    1.109   .     S
C770   H773    1.110   .     S
C770   H771    1.115   .     S
O774   C775    1.410   .     S
C775   H776    1.109   .     S
C775   H778    1.112   .     S
C775   H777    1.114   .     S
O779   C780    1.410   .     S
C780   H783    1.112   .     S
C780   H782    1.109   .     S
C780   H781    1.114   .     S
O784   C785    1.411   .     S
C785   H787    1.111   .     S
C785   H788    1.115   .     S
C785   H1056   1.109   .     S
H786   C1055   1.109   1_545 S
O791   C792    1.410   .     S
C792   H795    1.110   .     S
C792   H794    1.114   .     S
C792   H793    1.109   .     S
O796   C797    1.410   .     S
C797   H798    1.109   .     S
C797   H799    1.112   .     S
C797   H800    1.111   .     S
O801   C802    1.409   .     S
C802   H804    1.113   .     S
C802   H805    1.109   .     S
C802   H803    1.111   .     S
O806   C807    1.409   .     S
C807   H810    1.109   .     S
C807   H809    1.113   .     S
C807   H268    1.110   1_556 S
C811   C831    1.431   .     S
C811   O847    1.285   .     A
C811   O849    1.286   .     A
C812   O848    1.288   .     A
C812   C832    1.433   .     S
C812   O850    1.284   .     A
C813   F879    1.357   .     S
C813   C815    1.408   .     A
C813   C821    1.411   .     A
C814   C822    1.411   .     A
C814   F880    1.357   .     S
C814   C816    1.409   .     A
C815   H843    1.082   .     S
C815   N845    1.363   .     A
C816   H844    1.081   .     S
C816   N846    1.364   .     A
C817   O881    1.380   .     S
C817   C819    1.422   .     A
C817   N845    1.371   .     A
C818   O886    1.378   .     S
C818   N846    1.373   .     A
C818   C820    1.418   .     A
C819   C821    1.411   .     A
C819   O891    1.383   .     S
C820   C822    1.411   .     A
C820   O896    1.383   .     S
C822   C281    1.513   1_556 S
C823   O851    1.275   .     A
C823   C825    1.398   .     S
C823   O853    1.281   .     A
C824   O852    1.276   .     A
C824   C826    1.398   .     S
C824   O854    1.280   .     A
C825   C1006   1.338   1_455 S
C825   F1037   1.364   1_455 S
C826   C915    1.338   .     S
C826   F948    1.365   .     S
C827   H839    1.083   .     S
C827   C837    1.396   .     A
C827   C829    1.395   .     A
C828   H840    1.084   .     S
C828   C838    1.393   .     A
C828   C830    1.387   .     A
C829   C831    1.403   .     A
C829   O859    1.391   .     S
C830   O864    1.383   .     S
C830   C832    1.405   .     A
C831   C833    1.398   .     A
C832   C834    1.395   .     A
C833   H841    1.084   .     S
C833   C835    1.388   .     A
C834   C836    1.392   .     A
C834   H842    1.079   .     S
C835   C837    1.397   .     A
C835   O869    1.385   .     S
C836   O874    1.389   .     S
C836   C838    1.401   .     A
C838   C567    1.433   1_565 S
N845   Zn856   2.010   .     S
N846   Zn855   2.010   .     S
O847   Zn855   1.996   .     S
O848   Zn856   1.996   .     S
O849   Zn856   1.982   .     S
O850   Zn855   1.982   .     S
O851   Zn855   1.980   .     S
O852   Zn856   1.980   .     S
O853   Zn856   1.985   .     S
O854   Zn855   1.985   .     S
F857   C915    1.364   .     S
F858   C1006   1.365   1_455 S
O859   C860    1.411   .     S
C860   H862    1.109   .     S
C860   H863    1.110   .     S
C860   H861    1.115   .     S
O864   C865    1.410   .     S
C865   H866    1.109   .     S
C865   H868    1.112   .     S
C865   H867    1.114   .     S
O869   C870    1.410   .     S
C870   H873    1.112   .     S
C870   H872    1.109   .     S
C870   H871    1.114   .     S
O874   C875    1.411   .     S
C875   H877    1.111   .     S
C875   H878    1.115   .     S
C875   H606    1.109   1_565 S
O881   C882    1.410   .     S
C882   H885    1.110   .     S
C882   H884    1.114   .     S
C882   H883    1.109   .     S
O886   C887    1.410   .     S
C887   H888    1.109   .     S
C887   H889    1.112   .     S
C887   H890    1.111   .     S
O891   C892    1.409   .     S
C892   H894    1.113   .     S
C892   H895    1.109   .     S
C892   H893    1.111   .     S
O896   C897    1.409   .     S
C897   H900    1.109   .     S
C897   H899    1.113   .     S
C897   H358    1.110   1_556 S
C901   C921    1.431   .     S
C901   O937    1.285   .     A
C901   O939    1.286   .     A
C902   O938    1.288   .     A
C902   C922    1.433   .     S
C902   O940    1.284   .     A
C903   F969    1.357   .     S
C903   C905    1.408   .     A
C903   C911    1.411   .     A
C904   C912    1.411   .     A
C904   F970    1.357   .     S
C904   C906    1.409   .     A
C905   H933    1.082   .     S
C905   N935    1.363   .     A
C906   H934    1.081   .     S
C906   N936    1.364   .     A
C907   O971    1.380   .     S
C907   C909    1.422   .     A
C907   N935    1.371   .     A
C908   O976    1.378   .     S
C908   N936    1.373   .     A
C908   C910    1.418   .     A
C909   C911    1.411   .     A
C909   O981    1.383   .     S
C910   C912    1.411   .     A
C910   O986    1.383   .     S
C912   C371    1.513   1_556 S
C913   O941    1.275   .     A
C913   C915    1.398   .     S
C913   O943    1.281   .     A
C914   O942    1.276   .     A
C914   C916    1.398   .     S
C914   O944    1.280   .     A
C916   C1005   1.338   .     S
C916   F1038   1.365   .     S
C917   H929    1.083   .     S
C917   C927    1.396   .     A
C917   C919    1.395   .     A
C918   H930    1.084   .     S
C918   C928    1.393   .     A
C918   C920    1.387   .     A
C919   C921    1.403   .     A
C919   O949    1.391   .     S
C920   O954    1.383   .     S
C920   C922    1.405   .     A
C921   C923    1.398   .     A
C922   C924    1.395   .     A
C923   H931    1.084   .     S
C923   C925    1.388   .     A
C924   C926    1.392   .     A
C924   H932    1.079   .     S
C925   C927    1.397   .     A
C925   O959    1.385   .     S
C926   O964    1.389   .     S
C926   C928    1.401   .     A
C928   C657    1.433   1_565 S
N935   Zn946   2.010   .     S
N936   Zn945   2.010   .     S
O937   Zn945   1.996   .     S
O938   Zn946   1.996   .     S
O939   Zn946   1.982   .     S
O940   Zn945   1.982   .     S
O941   Zn945   1.980   .     S
O942   Zn946   1.980   .     S
O943   Zn946   1.985   .     S
O944   Zn945   1.985   .     S
F947   C1005   1.364   .     S
O949   C950    1.411   .     S
C950   H952    1.109   .     S
C950   H953    1.110   .     S
C950   H951    1.115   .     S
O954   C955    1.410   .     S
C955   H956    1.109   .     S
C955   H958    1.112   .     S
C955   H957    1.114   .     S
O959   C960    1.410   .     S
C960   H963    1.112   .     S
C960   H962    1.109   .     S
C960   H961    1.114   .     S
O964   C965    1.411   .     S
C965   H967    1.111   .     S
C965   H968    1.115   .     S
C965   H696    1.109   1_565 S
O971   C972    1.410   .     S
C972   H975    1.110   .     S
C972   H974    1.114   .     S
C972   H973    1.109   .     S
O976   C977    1.410   .     S
C977   H978    1.109   .     S
C977   H979    1.112   .     S
C977   H980    1.111   .     S
O981   C982    1.409   .     S
C982   H984    1.113   .     S
C982   H985    1.109   .     S
C982   H983    1.111   .     S
O986   C987    1.409   .     S
C987   H990    1.109   .     S
C987   H989    1.113   .     S
C987   H448    1.110   1_556 S
C991   C1011   1.431   .     S
C991   O1027   1.285   .     A
C991   O1029   1.286   .     A
C992   O1028   1.288   .     A
C992   C1012   1.433   .     S
C992   O1030   1.284   .     A
C993   F1059   1.357   .     S
C993   C995    1.408   .     A
C993   C1001   1.411   .     A
C994   C1002   1.411   .     A
C994   F1060   1.357   .     S
C994   C996    1.409   .     A
C995   H1023   1.082   .     S
C995   N1025   1.363   .     A
C996   H1024   1.081   .     S
C996   N1026   1.364   .     A
C997   O1061   1.380   .     S
C997   C999    1.422   .     A
C997   N1025   1.371   .     A
C998   O1066   1.378   .     S
C998   N1026   1.373   .     A
C998   C1000   1.418   .     A
C999   C1001   1.411   .     A
C999   O1071   1.383   .     S
C1000  C1002   1.411   .     A
C1000  O1076   1.383   .     S
C1002  C461    1.513   1_556 S
C1003  O1031   1.275   .     A
C1003  C1005   1.398   .     S
C1003  O1033   1.281   .     A
C1004  O1032   1.276   .     A
C1004  C1006   1.398   .     S
C1004  O1034   1.280   .     A
C1006  C825    1.338   1_655 S
C1006  F858    1.365   1_655 S
C1007  H1019   1.083   .     S
C1007  C1017   1.396   .     A
C1007  C1009   1.395   .     A
C1008  H1020   1.084   .     S
C1008  C1018   1.393   .     A
C1008  C1010   1.387   .     A
C1009  C1011   1.403   .     A
C1009  O1039   1.391   .     S
C1010  O1044   1.383   .     S
C1010  C1012   1.405   .     A
C1011  C1013   1.398   .     A
C1012  C1014   1.395   .     A
C1013  H1021   1.084   .     S
C1013  C1015   1.388   .     A
C1014  C1016   1.392   .     A
C1014  H1022   1.079   .     S
C1015  C1017   1.397   .     A
C1015  O1049   1.385   .     S
C1016  O1054   1.389   .     S
C1016  C1018   1.401   .     A
C1018  C747    1.433   1_565 S
N1025  Zn1036  2.010   .     S
N1026  Zn1035  2.010   .     S
O1027  Zn1035  1.996   .     S
O1028  Zn1036  1.996   .     S
O1029  Zn1036  1.982   .     S
O1030  Zn1035  1.982   .     S
O1031  Zn1035  1.980   .     S
O1032  Zn1036  1.980   .     S
O1033  Zn1036  1.985   .     S
O1034  Zn1035  1.985   .     S
F1037  C825    1.364   1_655 S
O1039  C1040   1.411   .     S
C1040  H1042   1.109   .     S
C1040  H1043   1.110   .     S
C1040  H1041   1.115   .     S
O1044  C1045   1.410   .     S
C1045  H1046   1.109   .     S
C1045  H1048   1.112   .     S
C1045  H1047   1.114   .     S
O1049  C1050   1.410   .     S
C1050  H1053   1.112   .     S
C1050  H1052   1.109   .     S
C1050  H1051   1.114   .     S
O1054  C1055   1.411   .     S
C1055  H1057   1.111   .     S
C1055  H1058   1.115   .     S
C1055  H786    1.109   1_565 S
O1061  C1062   1.410   .     S
C1062  H1065   1.110   .     S
C1062  H1064   1.114   .     S
C1062  H1063   1.109   .     S
O1066  C1067   1.410   .     S
C1067  H1068   1.109   .     S
C1067  H1069   1.112   .     S
C1067  H1070   1.111   .     S
O1071  C1072   1.409   .     S
C1072  H1074   1.113   .     S
C1072  H1075   1.109   .     S
C1072  H1073   1.111   .     S
O1076  C1077   1.409   .     S
C1077  H1080   1.109   .     S
C1077  H1079   1.113   .     S
C1077  H538    1.110   1_556 S
