data_str_m3_o10_o18_pcu_sym.48
_audit_creation_date              2020-01-03
_audit_creation_method            'Materials Studio'
_symmetry_space_group_name_H-M    'P1'
_symmetry_Int_Tables_number       1
_symmetry_cell_setting            triclinic
loop_
_symmetry_equiv_pos_as_xyz
  x,y,z
_cell_length_a                    23.3158
_cell_length_b                    25.7165
_cell_length_c                    28.8445
_cell_angle_alpha                 93.4685
_cell_angle_beta                  95.6482
_cell_angle_gamma                 93.9661
loop_
_atom_site_label
_atom_site_type_symbol
_atom_site_fract_x
_atom_site_fract_y
_atom_site_fract_z
_atom_site_U_iso_or_equiv
_atom_site_adp_type
_atom_site_occupancy
C1     C     0.01488   0.26486   0.24829   0.00000  Uiso   1.00
C2     C     0.31039   0.16391   0.15970   0.00000  Uiso   1.00
C3     C     0.04164   0.19880   0.38731   0.00000  Uiso   1.00
C4     C     0.29612   0.16472   0.10909   0.00000  Uiso   1.00
C5     C     0.02141   0.24071   0.46106   0.00000  Uiso   1.00
C6     C     0.32255   0.14073   0.03216   0.00000  Uiso   1.00
C7     C     0.00184   0.21854   0.41618   0.00000  Uiso   1.00
C8     C     0.00344   0.14757   0.07997   0.00000  Uiso   1.00
C9     C     0.10090   0.20599   0.40335   0.00000  Uiso   1.00
C10    C     0.24190   0.18062   0.08923   0.00000  Uiso   1.00
C11    C     0.11572   0.20995   0.45112   0.00000  Uiso   1.00
C12    C     0.31827   0.06841   0.25107   0.00000  Uiso   1.00
C13    C     0.23394   0.18423   0.04025   0.00000  Uiso   1.00
C14    C     0.07870   0.23545   0.47914   0.00000  Uiso   1.00
C15    C     0.27022   0.15664   0.01239   0.00000  Uiso   1.00
C16    C     0.16776   0.19224   0.47100   0.00000  Uiso   1.00
C17    C     0.18663   0.20802   0.01773   0.00000  Uiso   1.00
C18    C     0.18846   0.18056   0.11675   0.00000  Uiso   1.00
C19    C     0.18561   0.23082   0.14818   0.00000  Uiso   1.00
C20    C     0.14653   0.22667   0.37326   0.00000  Uiso   1.00
C21    C     0.13014   0.27715   0.35167   0.00000  Uiso   1.00
C22    C     0.15758   0.24744   0.03992   0.00000  Uiso   1.00
C23    C     0.19950   0.15731   0.44600   0.00000  Uiso   1.00
C24    C     0.10146   0.25727   0.02301   0.00000  Uiso   1.00
C25    C     0.25197   0.14247   0.46564   0.00000  Uiso   1.00
C26    C     0.02274   0.31934   0.24748   0.00000  Uiso   1.00
C27    C     0.31027   0.01388   0.25138   0.00000  Uiso   1.00
C28    C     0.02384   0.17702   0.33950   0.00000  Uiso   1.00
H29    H     0.07691   0.28276   0.04337   0.00000  Uiso   1.00
H30    H     0.26700   0.33020   0.25489   0.00000  Uiso   1.00
H31    H     0.16227   0.12141   0.21904   0.00000  Uiso   1.00
H32    H     0.17153   0.21423   0.27744   0.00000  Uiso   1.00
H33    H     0.18653   0.22249   0.18521   0.00000  Uiso   1.00
H34    H     0.22238   0.25979   0.14485   0.00000  Uiso   1.00
H35    H     0.14423   0.24871   0.13942   0.00000  Uiso   1.00
H36    H     0.14780   0.17364   0.09313   0.00000  Uiso   1.00
H37    H     0.18546   0.14537   0.13706   0.00000  Uiso   1.00
H38    H     0.08810   0.27136   0.33009   0.00000  Uiso   1.00
H39    H     0.12698   0.30806   0.37973   0.00000  Uiso   1.00
H40    H     0.27724   0.11820   0.44474   0.00000  Uiso   1.00
H41    H     0.16376   0.29080   0.32956   0.00000  Uiso   1.00
H42    H     0.18855   0.23739   0.39438   0.00000  Uiso   1.00
H43    H     0.15587   0.19605   0.34740   0.00000  Uiso   1.00
H44    H     0.04450   0.13510   0.09443   0.00000  Uiso   1.00
H45    H     0.29007   0.21908   0.40335   0.00000  Uiso   1.00
H46    H     0.32495   0.25933   0.48210   0.00000  Uiso   1.00
H47    H     0.01876   0.12231   0.01070   0.00000  Uiso   1.00
H48    H     0.17750   0.26961   0.07072   0.00000  Uiso   1.00
H49    H     0.18457   0.14193   0.41083   0.00000  Uiso   1.00
H50    H     0.06600   0.00300   0.24395   0.00000  Uiso   1.00
N51    N     0.14695   0.15216   0.23739   0.00000  Uiso   1.00
N52    N     0.18638   0.18117   0.26260   0.00000  Uiso   1.00
O53    O     0.29719   0.24631   0.25309   0.00000  Uiso   1.00
O54    O     0.03614   0.08702   0.24691   0.00000  Uiso   1.00
O55    O     0.05822   0.23702   0.24501   0.00000  Uiso   1.00
O56    O     0.27512   0.09632   0.25498   0.00000  Uiso   1.00
O57    O     0.30328   0.17397   0.32247   0.00000  Uiso   1.00
O58    O     0.03005   0.15937   0.17753   0.00000  Uiso   1.00
O59    O     0.06431   0.16467   0.31439   0.00000  Uiso   1.00
O60    O     0.26902   0.16866   0.18561   0.00000  Uiso   1.00
Zn61   Zn    0.27033   0.17287   0.25539   0.00000  Uiso   1.00
Zn62   Zn    0.06300   0.16046   0.24460   0.00000  Uiso   1.00
C63    C     0.34821   0.26486   0.24829   0.00000  Uiso   1.00
C64    C     0.64372   0.16391   0.15970   0.00000  Uiso   1.00
C65    C     0.37497   0.19880   0.38731   0.00000  Uiso   1.00
C66    C     0.62945   0.16472   0.10909   0.00000  Uiso   1.00
C67    C     0.35474   0.24071   0.46106   0.00000  Uiso   1.00
C68    C     0.65589   0.14073   0.03216   0.00000  Uiso   1.00
C69    C     0.33517   0.21854   0.41618   0.00000  Uiso   1.00
C70    C     0.33677   0.14757   0.07997   0.00000  Uiso   1.00
C71    C     0.43423   0.20599   0.40335   0.00000  Uiso   1.00
C72    C     0.57524   0.18062   0.08923   0.00000  Uiso   1.00
C73    C     0.44905   0.20995   0.45112   0.00000  Uiso   1.00
C74    C     0.65160   0.06841   0.25107   0.00000  Uiso   1.00
C75    C     0.56727   0.18423   0.04025   0.00000  Uiso   1.00
C76    C     0.41203   0.23545   0.47914   0.00000  Uiso   1.00
C77    C     0.60355   0.15664   0.01239   0.00000  Uiso   1.00
C78    C     0.50109   0.19224   0.47100   0.00000  Uiso   1.00
C79    C     0.51996   0.20802   0.01773   0.00000  Uiso   1.00
C80    C     0.52180   0.18056   0.11675   0.00000  Uiso   1.00
C81    C     0.51895   0.23082   0.14818   0.00000  Uiso   1.00
C82    C     0.47986   0.22667   0.37326   0.00000  Uiso   1.00
C83    C     0.46348   0.27715   0.35167   0.00000  Uiso   1.00
C84    C     0.49091   0.24744   0.03992   0.00000  Uiso   1.00
C85    C     0.53283   0.15731   0.44600   0.00000  Uiso   1.00
C86    C     0.43480   0.25727   0.02301   0.00000  Uiso   1.00
C87    C     0.58530   0.14247   0.46564   0.00000  Uiso   1.00
C88    C     0.35607   0.31934   0.24748   0.00000  Uiso   1.00
C89    C     0.64360   0.01388   0.25138   0.00000  Uiso   1.00
C90    C     0.35717   0.17702   0.33950   0.00000  Uiso   1.00
H91    H     0.41025   0.28276   0.04337   0.00000  Uiso   1.00
H92    H     0.60034   0.33020   0.25489   0.00000  Uiso   1.00
H93    H     0.49561   0.12141   0.21904   0.00000  Uiso   1.00
H94    H     0.50486   0.21423   0.27744   0.00000  Uiso   1.00
H95    H     0.51986   0.22249   0.18521   0.00000  Uiso   1.00
H96    H     0.55571   0.25979   0.14485   0.00000  Uiso   1.00
H97    H     0.47756   0.24871   0.13942   0.00000  Uiso   1.00
H98    H     0.48114   0.17364   0.09313   0.00000  Uiso   1.00
H99    H     0.51879   0.14537   0.13706   0.00000  Uiso   1.00
H100   H     0.42144   0.27136   0.33009   0.00000  Uiso   1.00
H101   H     0.46031   0.30806   0.37973   0.00000  Uiso   1.00
H102   H     0.61058   0.11820   0.44474   0.00000  Uiso   1.00
H103   H     0.49710   0.29080   0.32956   0.00000  Uiso   1.00
H104   H     0.52189   0.23739   0.39438   0.00000  Uiso   1.00
H105   H     0.48921   0.19605   0.34740   0.00000  Uiso   1.00
H106   H     0.37783   0.13510   0.09443   0.00000  Uiso   1.00
H107   H     0.62340   0.21908   0.40335   0.00000  Uiso   1.00
H108   H     0.65829   0.25933   0.48210   0.00000  Uiso   1.00
H109   H     0.35209   0.12231   0.01070   0.00000  Uiso   1.00
H110   H     0.51083   0.26961   0.07072   0.00000  Uiso   1.00
H111   H     0.51791   0.14193   0.41083   0.00000  Uiso   1.00
H112   H     0.39933   0.00300   0.24395   0.00000  Uiso   1.00
N113   N     0.48029   0.15216   0.23739   0.00000  Uiso   1.00
N114   N     0.51971   0.18117   0.26260   0.00000  Uiso   1.00
O115   O     0.63052   0.24631   0.25309   0.00000  Uiso   1.00
O116   O     0.36948   0.08702   0.24691   0.00000  Uiso   1.00
O117   O     0.39155   0.23702   0.24501   0.00000  Uiso   1.00
O118   O     0.60845   0.09632   0.25498   0.00000  Uiso   1.00
O119   O     0.63662   0.17397   0.32247   0.00000  Uiso   1.00
O120   O     0.36338   0.15937   0.17753   0.00000  Uiso   1.00
O121   O     0.39764   0.16467   0.31439   0.00000  Uiso   1.00
O122   O     0.60236   0.16866   0.18561   0.00000  Uiso   1.00
Zn123  Zn    0.60366   0.17287   0.25539   0.00000  Uiso   1.00
Zn124  Zn    0.39634   0.16046   0.24460   0.00000  Uiso   1.00
C125   C     0.68155   0.26486   0.24829   0.00000  Uiso   1.00
C126   C     0.97706   0.16391   0.15970   0.00000  Uiso   1.00
C127   C     0.70831   0.19880   0.38731   0.00000  Uiso   1.00
C128   C     0.96278   0.16472   0.10909   0.00000  Uiso   1.00
C129   C     0.68808   0.24071   0.46106   0.00000  Uiso   1.00
C130   C     0.98922   0.14073   0.03216   0.00000  Uiso   1.00
C131   C     0.66850   0.21854   0.41618   0.00000  Uiso   1.00
C132   C     0.67011   0.14757   0.07997   0.00000  Uiso   1.00
C133   C     0.76757   0.20599   0.40335   0.00000  Uiso   1.00
C134   C     0.90857   0.18062   0.08923   0.00000  Uiso   1.00
C135   C     0.78239   0.20995   0.45112   0.00000  Uiso   1.00
C136   C     0.98494   0.06841   0.25107   0.00000  Uiso   1.00
C137   C     0.90061   0.18423   0.04025   0.00000  Uiso   1.00
C138   C     0.74537   0.23545   0.47914   0.00000  Uiso   1.00
C139   C     0.93689   0.15664   0.01239   0.00000  Uiso   1.00
C140   C     0.83442   0.19224   0.47100   0.00000  Uiso   1.00
C141   C     0.85330   0.20802   0.01773   0.00000  Uiso   1.00
C142   C     0.85513   0.18056   0.11675   0.00000  Uiso   1.00
C143   C     0.85228   0.23082   0.14818   0.00000  Uiso   1.00
C144   C     0.81319   0.22667   0.37326   0.00000  Uiso   1.00
C145   C     0.79681   0.27715   0.35167   0.00000  Uiso   1.00
C146   C     0.82425   0.24744   0.03992   0.00000  Uiso   1.00
C147   C     0.86617   0.15731   0.44600   0.00000  Uiso   1.00
C148   C     0.76813   0.25727   0.02301   0.00000  Uiso   1.00
C149   C     0.91864   0.14247   0.46564   0.00000  Uiso   1.00
C150   C     0.68940   0.31934   0.24748   0.00000  Uiso   1.00
C151   C     0.97694   0.01388   0.25138   0.00000  Uiso   1.00
C152   C     0.69050   0.17702   0.33950   0.00000  Uiso   1.00
H153   H     0.74358   0.28276   0.04337   0.00000  Uiso   1.00
H154   H     0.93367   0.33020   0.25489   0.00000  Uiso   1.00
H155   H     0.82894   0.12141   0.21904   0.00000  Uiso   1.00
H156   H     0.83819   0.21423   0.27744   0.00000  Uiso   1.00
H157   H     0.85320   0.22249   0.18521   0.00000  Uiso   1.00
H158   H     0.88904   0.25979   0.14485   0.00000  Uiso   1.00
H159   H     0.81089   0.24871   0.13942   0.00000  Uiso   1.00
H160   H     0.81447   0.17364   0.09313   0.00000  Uiso   1.00
H161   H     0.85213   0.14537   0.13706   0.00000  Uiso   1.00
H162   H     0.75477   0.27136   0.33009   0.00000  Uiso   1.00
H163   H     0.79365   0.30806   0.37973   0.00000  Uiso   1.00
H164   H     0.94391   0.11820   0.44474   0.00000  Uiso   1.00
H165   H     0.83043   0.29080   0.32956   0.00000  Uiso   1.00
H166   H     0.85522   0.23739   0.39438   0.00000  Uiso   1.00
H167   H     0.82254   0.19605   0.34740   0.00000  Uiso   1.00
H168   H     0.71116   0.13510   0.09443   0.00000  Uiso   1.00
H169   H     0.95674   0.21908   0.40335   0.00000  Uiso   1.00
H170   H     0.99162   0.25933   0.48210   0.00000  Uiso   1.00
H171   H     0.68543   0.12231   0.01070   0.00000  Uiso   1.00
H172   H     0.84416   0.26961   0.07072   0.00000  Uiso   1.00
H173   H     0.85124   0.14193   0.41083   0.00000  Uiso   1.00
H174   H     0.73267   0.00300   0.24395   0.00000  Uiso   1.00
N175   N     0.81362   0.15216   0.23739   0.00000  Uiso   1.00
N176   N     0.85305   0.18117   0.26260   0.00000  Uiso   1.00
O177   O     0.96386   0.24631   0.25309   0.00000  Uiso   1.00
O178   O     0.70281   0.08702   0.24691   0.00000  Uiso   1.00
O179   O     0.72488   0.23702   0.24501   0.00000  Uiso   1.00
O180   O     0.94178   0.09632   0.25498   0.00000  Uiso   1.00
O181   O     0.96995   0.17397   0.32247   0.00000  Uiso   1.00
O182   O     0.69672   0.15937   0.17753   0.00000  Uiso   1.00
O183   O     0.73098   0.16467   0.31439   0.00000  Uiso   1.00
O184   O     0.93569   0.16866   0.18561   0.00000  Uiso   1.00
Zn185  Zn    0.93700   0.17287   0.25539   0.00000  Uiso   1.00
Zn186  Zn    0.72967   0.16046   0.24460   0.00000  Uiso   1.00
C187   C     0.01488   0.59820   0.24829   0.00000  Uiso   1.00
C188   C     0.31039   0.49725   0.15970   0.00000  Uiso   1.00
C189   C     0.04164   0.53213   0.38731   0.00000  Uiso   1.00
C190   C     0.29612   0.49805   0.10909   0.00000  Uiso   1.00
C191   C     0.02141   0.57404   0.46106   0.00000  Uiso   1.00
C192   C     0.32255   0.47406   0.03216   0.00000  Uiso   1.00
C193   C     0.00184   0.55187   0.41618   0.00000  Uiso   1.00
C194   C     0.00344   0.48090   0.07997   0.00000  Uiso   1.00
C195   C     0.10090   0.53932   0.40335   0.00000  Uiso   1.00
C196   C     0.24190   0.51396   0.08923   0.00000  Uiso   1.00
C197   C     0.11572   0.54328   0.45112   0.00000  Uiso   1.00
C198   C     0.31827   0.40174   0.25107   0.00000  Uiso   1.00
C199   C     0.23394   0.51757   0.04025   0.00000  Uiso   1.00
C200   C     0.07870   0.56878   0.47914   0.00000  Uiso   1.00
C201   C     0.27022   0.48997   0.01239   0.00000  Uiso   1.00
C202   C     0.16776   0.52558   0.47100   0.00000  Uiso   1.00
C203   C     0.18663   0.54136   0.01773   0.00000  Uiso   1.00
C204   C     0.18846   0.51389   0.11675   0.00000  Uiso   1.00
C205   C     0.18561   0.56415   0.14818   0.00000  Uiso   1.00
C206   C     0.14653   0.56000   0.37326   0.00000  Uiso   1.00
C207   C     0.13014   0.61048   0.35167   0.00000  Uiso   1.00
C208   C     0.15758   0.58077   0.03992   0.00000  Uiso   1.00
C209   C     0.19950   0.49065   0.44600   0.00000  Uiso   1.00
C210   C     0.10146   0.59060   0.02301   0.00000  Uiso   1.00
C211   C     0.25197   0.47580   0.46564   0.00000  Uiso   1.00
C212   C     0.02274   0.65267   0.24748   0.00000  Uiso   1.00
C213   C     0.31027   0.34721   0.25138   0.00000  Uiso   1.00
C214   C     0.02384   0.51036   0.33950   0.00000  Uiso   1.00
H215   H     0.07691   0.61609   0.04337   0.00000  Uiso   1.00
H216   H     0.26700   0.66353   0.25489   0.00000  Uiso   1.00
H217   H     0.16227   0.45474   0.21904   0.00000  Uiso   1.00
H218   H     0.17153   0.54757   0.27744   0.00000  Uiso   1.00
H219   H     0.18653   0.55583   0.18521   0.00000  Uiso   1.00
H220   H     0.22238   0.59312   0.14485   0.00000  Uiso   1.00
H221   H     0.14423   0.58205   0.13942   0.00000  Uiso   1.00
H222   H     0.14780   0.50698   0.09313   0.00000  Uiso   1.00
H223   H     0.18546   0.47870   0.13706   0.00000  Uiso   1.00
H224   H     0.08810   0.60469   0.33009   0.00000  Uiso   1.00
H225   H     0.12698   0.64139   0.37973   0.00000  Uiso   1.00
H226   H     0.27724   0.45154   0.44474   0.00000  Uiso   1.00
H227   H     0.16376   0.62414   0.32956   0.00000  Uiso   1.00
H228   H     0.18855   0.57072   0.39438   0.00000  Uiso   1.00
H229   H     0.15587   0.52938   0.34740   0.00000  Uiso   1.00
H230   H     0.04450   0.46844   0.09443   0.00000  Uiso   1.00
H231   H     0.29007   0.55242   0.40335   0.00000  Uiso   1.00
H232   H     0.32495   0.59266   0.48210   0.00000  Uiso   1.00
H233   H     0.01876   0.45564   0.01070   0.00000  Uiso   1.00
H234   H     0.17750   0.60294   0.07072   0.00000  Uiso   1.00
H235   H     0.18457   0.47526   0.41083   0.00000  Uiso   1.00
H236   H     0.06600   0.33633   0.24395   0.00000  Uiso   1.00
N237   N     0.14695   0.48550   0.23739   0.00000  Uiso   1.00
N238   N     0.18638   0.51450   0.26260   0.00000  Uiso   1.00
O239   O     0.29719   0.57964   0.25309   0.00000  Uiso   1.00
O240   O     0.03614   0.42036   0.24691   0.00000  Uiso   1.00
O241   O     0.05822   0.57035   0.24501   0.00000  Uiso   1.00
O242   O     0.27512   0.42965   0.25498   0.00000  Uiso   1.00
O243   O     0.30328   0.50730   0.32247   0.00000  Uiso   1.00
O244   O     0.03005   0.49270   0.17753   0.00000  Uiso   1.00
O245   O     0.06431   0.49801   0.31439   0.00000  Uiso   1.00
O246   O     0.26902   0.50199   0.18561   0.00000  Uiso   1.00
Zn247  Zn    0.27033   0.50621   0.25539   0.00000  Uiso   1.00
Zn248  Zn    0.06300   0.49379   0.24460   0.00000  Uiso   1.00
C249   C     0.34821   0.59820   0.24829   0.00000  Uiso   1.00
C250   C     0.64372   0.49725   0.15970   0.00000  Uiso   1.00
C251   C     0.37497   0.53213   0.38731   0.00000  Uiso   1.00
C252   C     0.62945   0.49805   0.10909   0.00000  Uiso   1.00
C253   C     0.35474   0.57404   0.46106   0.00000  Uiso   1.00
C254   C     0.65589   0.47406   0.03216   0.00000  Uiso   1.00
C255   C     0.33517   0.55187   0.41618   0.00000  Uiso   1.00
C256   C     0.33677   0.48090   0.07997   0.00000  Uiso   1.00
C257   C     0.43423   0.53932   0.40335   0.00000  Uiso   1.00
C258   C     0.57524   0.51396   0.08923   0.00000  Uiso   1.00
C259   C     0.44905   0.54328   0.45112   0.00000  Uiso   1.00
C260   C     0.65160   0.40174   0.25107   0.00000  Uiso   1.00
C261   C     0.56727   0.51757   0.04025   0.00000  Uiso   1.00
C262   C     0.41203   0.56878   0.47914   0.00000  Uiso   1.00
C263   C     0.60355   0.48997   0.01239   0.00000  Uiso   1.00
C264   C     0.50109   0.52558   0.47100   0.00000  Uiso   1.00
C265   C     0.51996   0.54136   0.01773   0.00000  Uiso   1.00
C266   C     0.52180   0.51389   0.11675   0.00000  Uiso   1.00
C267   C     0.51895   0.56415   0.14818   0.00000  Uiso   1.00
C268   C     0.47986   0.56000   0.37326   0.00000  Uiso   1.00
C269   C     0.46348   0.61048   0.35167   0.00000  Uiso   1.00
C270   C     0.49091   0.58077   0.03992   0.00000  Uiso   1.00
C271   C     0.53283   0.49065   0.44600   0.00000  Uiso   1.00
C272   C     0.43480   0.59060   0.02301   0.00000  Uiso   1.00
C273   C     0.58530   0.47580   0.46564   0.00000  Uiso   1.00
C274   C     0.35607   0.65267   0.24748   0.00000  Uiso   1.00
C275   C     0.64360   0.34721   0.25138   0.00000  Uiso   1.00
C276   C     0.35717   0.51036   0.33950   0.00000  Uiso   1.00
H277   H     0.41025   0.61609   0.04337   0.00000  Uiso   1.00
H278   H     0.60034   0.66353   0.25489   0.00000  Uiso   1.00
H279   H     0.49561   0.45474   0.21904   0.00000  Uiso   1.00
H280   H     0.50486   0.54757   0.27744   0.00000  Uiso   1.00
H281   H     0.51986   0.55583   0.18521   0.00000  Uiso   1.00
H282   H     0.55571   0.59312   0.14485   0.00000  Uiso   1.00
H283   H     0.47756   0.58205   0.13942   0.00000  Uiso   1.00
H284   H     0.48114   0.50698   0.09313   0.00000  Uiso   1.00
H285   H     0.51879   0.47870   0.13706   0.00000  Uiso   1.00
H286   H     0.42144   0.60469   0.33009   0.00000  Uiso   1.00
H287   H     0.46031   0.64139   0.37973   0.00000  Uiso   1.00
H288   H     0.61058   0.45154   0.44474   0.00000  Uiso   1.00
H289   H     0.49710   0.62414   0.32956   0.00000  Uiso   1.00
H290   H     0.52189   0.57072   0.39438   0.00000  Uiso   1.00
H291   H     0.48921   0.52938   0.34740   0.00000  Uiso   1.00
H292   H     0.37783   0.46844   0.09443   0.00000  Uiso   1.00
H293   H     0.62340   0.55242   0.40335   0.00000  Uiso   1.00
H294   H     0.65829   0.59266   0.48210   0.00000  Uiso   1.00
H295   H     0.35209   0.45564   0.01070   0.00000  Uiso   1.00
H296   H     0.51083   0.60294   0.07072   0.00000  Uiso   1.00
H297   H     0.51791   0.47526   0.41083   0.00000  Uiso   1.00
H298   H     0.39933   0.33633   0.24395   0.00000  Uiso   1.00
N299   N     0.48029   0.48550   0.23739   0.00000  Uiso   1.00
N300   N     0.51971   0.51450   0.26260   0.00000  Uiso   1.00
O301   O     0.63052   0.57964   0.25309   0.00000  Uiso   1.00
O302   O     0.36948   0.42036   0.24691   0.00000  Uiso   1.00
O303   O     0.39155   0.57035   0.24501   0.00000  Uiso   1.00
O304   O     0.60845   0.42965   0.25498   0.00000  Uiso   1.00
O305   O     0.63662   0.50730   0.32247   0.00000  Uiso   1.00
O306   O     0.36338   0.49270   0.17753   0.00000  Uiso   1.00
O307   O     0.39764   0.49801   0.31439   0.00000  Uiso   1.00
O308   O     0.60236   0.50199   0.18561   0.00000  Uiso   1.00
Zn309  Zn    0.60366   0.50621   0.25539   0.00000  Uiso   1.00
Zn310  Zn    0.39634   0.49379   0.24460   0.00000  Uiso   1.00
C311   C     0.68155   0.59820   0.24829   0.00000  Uiso   1.00
C312   C     0.97706   0.49725   0.15970   0.00000  Uiso   1.00
C313   C     0.70831   0.53213   0.38731   0.00000  Uiso   1.00
C314   C     0.96278   0.49805   0.10909   0.00000  Uiso   1.00
C315   C     0.68808   0.57404   0.46106   0.00000  Uiso   1.00
C316   C     0.98922   0.47406   0.03216   0.00000  Uiso   1.00
C317   C     0.66850   0.55187   0.41618   0.00000  Uiso   1.00
C318   C     0.67011   0.48090   0.07997   0.00000  Uiso   1.00
C319   C     0.76757   0.53932   0.40335   0.00000  Uiso   1.00
C320   C     0.90857   0.51396   0.08923   0.00000  Uiso   1.00
C321   C     0.78239   0.54328   0.45112   0.00000  Uiso   1.00
C322   C     0.98494   0.40174   0.25107   0.00000  Uiso   1.00
C323   C     0.90061   0.51757   0.04025   0.00000  Uiso   1.00
C324   C     0.74537   0.56878   0.47914   0.00000  Uiso   1.00
C325   C     0.93689   0.48997   0.01239   0.00000  Uiso   1.00
C326   C     0.83442   0.52558   0.47100   0.00000  Uiso   1.00
C327   C     0.85330   0.54136   0.01773   0.00000  Uiso   1.00
C328   C     0.85513   0.51389   0.11675   0.00000  Uiso   1.00
C329   C     0.85228   0.56415   0.14818   0.00000  Uiso   1.00
C330   C     0.81319   0.56000   0.37326   0.00000  Uiso   1.00
C331   C     0.79681   0.61048   0.35167   0.00000  Uiso   1.00
C332   C     0.82425   0.58077   0.03992   0.00000  Uiso   1.00
C333   C     0.86617   0.49065   0.44600   0.00000  Uiso   1.00
C334   C     0.76813   0.59060   0.02301   0.00000  Uiso   1.00
C335   C     0.91864   0.47580   0.46564   0.00000  Uiso   1.00
C336   C     0.68940   0.65267   0.24748   0.00000  Uiso   1.00
C337   C     0.97694   0.34721   0.25138   0.00000  Uiso   1.00
C338   C     0.69050   0.51036   0.33950   0.00000  Uiso   1.00
H339   H     0.74358   0.61609   0.04337   0.00000  Uiso   1.00
H340   H     0.93367   0.66353   0.25489   0.00000  Uiso   1.00
H341   H     0.82894   0.45474   0.21904   0.00000  Uiso   1.00
H342   H     0.83819   0.54757   0.27744   0.00000  Uiso   1.00
H343   H     0.85320   0.55583   0.18521   0.00000  Uiso   1.00
H344   H     0.88904   0.59312   0.14485   0.00000  Uiso   1.00
H345   H     0.81089   0.58205   0.13942   0.00000  Uiso   1.00
H346   H     0.81447   0.50698   0.09313   0.00000  Uiso   1.00
H347   H     0.85213   0.47870   0.13706   0.00000  Uiso   1.00
H348   H     0.75477   0.60469   0.33009   0.00000  Uiso   1.00
H349   H     0.79365   0.64139   0.37973   0.00000  Uiso   1.00
H350   H     0.94391   0.45154   0.44474   0.00000  Uiso   1.00
H351   H     0.83043   0.62414   0.32956   0.00000  Uiso   1.00
H352   H     0.85522   0.57072   0.39438   0.00000  Uiso   1.00
H353   H     0.82254   0.52938   0.34740   0.00000  Uiso   1.00
H354   H     0.71116   0.46844   0.09443   0.00000  Uiso   1.00
H355   H     0.95674   0.55242   0.40335   0.00000  Uiso   1.00
H356   H     0.99162   0.59266   0.48210   0.00000  Uiso   1.00
H357   H     0.68543   0.45564   0.01070   0.00000  Uiso   1.00
H358   H     0.84416   0.60294   0.07072   0.00000  Uiso   1.00
H359   H     0.85124   0.47526   0.41083   0.00000  Uiso   1.00
H360   H     0.73267   0.33633   0.24395   0.00000  Uiso   1.00
N361   N     0.81362   0.48550   0.23739   0.00000  Uiso   1.00
N362   N     0.85305   0.51450   0.26260   0.00000  Uiso   1.00
O363   O     0.96386   0.57964   0.25309   0.00000  Uiso   1.00
O364   O     0.70281   0.42036   0.24691   0.00000  Uiso   1.00
O365   O     0.72488   0.57035   0.24501   0.00000  Uiso   1.00
O366   O     0.94178   0.42965   0.25498   0.00000  Uiso   1.00
O367   O     0.96995   0.50730   0.32247   0.00000  Uiso   1.00
O368   O     0.69672   0.49270   0.17753   0.00000  Uiso   1.00
O369   O     0.73098   0.49801   0.31439   0.00000  Uiso   1.00
O370   O     0.93569   0.50199   0.18561   0.00000  Uiso   1.00
Zn371  Zn    0.93700   0.50621   0.25539   0.00000  Uiso   1.00
Zn372  Zn    0.72967   0.49379   0.24460   0.00000  Uiso   1.00
C373   C     0.01488   0.93153   0.24829   0.00000  Uiso   1.00
C374   C     0.31039   0.83058   0.15970   0.00000  Uiso   1.00
C375   C     0.04164   0.86546   0.38731   0.00000  Uiso   1.00
C376   C     0.29612   0.83139   0.10909   0.00000  Uiso   1.00
C377   C     0.02141   0.90738   0.46106   0.00000  Uiso   1.00
C378   C     0.32255   0.80739   0.03216   0.00000  Uiso   1.00
C379   C     0.00184   0.88521   0.41618   0.00000  Uiso   1.00
C380   C     0.00344   0.81424   0.07997   0.00000  Uiso   1.00
C381   C     0.10090   0.87266   0.40335   0.00000  Uiso   1.00
C382   C     0.24190   0.84729   0.08923   0.00000  Uiso   1.00
C383   C     0.11572   0.87661   0.45112   0.00000  Uiso   1.00
C384   C     0.31827   0.73508   0.25107   0.00000  Uiso   1.00
C385   C     0.23394   0.85090   0.04025   0.00000  Uiso   1.00
C386   C     0.07870   0.90211   0.47914   0.00000  Uiso   1.00
C387   C     0.27022   0.82331   0.01239   0.00000  Uiso   1.00
C388   C     0.16776   0.85891   0.47100   0.00000  Uiso   1.00
C389   C     0.18663   0.87469   0.01773   0.00000  Uiso   1.00
C390   C     0.18846   0.84723   0.11675   0.00000  Uiso   1.00
C391   C     0.18561   0.89749   0.14818   0.00000  Uiso   1.00
C392   C     0.14653   0.89334   0.37326   0.00000  Uiso   1.00
C393   C     0.13014   0.94381   0.35167   0.00000  Uiso   1.00
C394   C     0.15758   0.91410   0.03992   0.00000  Uiso   1.00
C395   C     0.19950   0.82398   0.44600   0.00000  Uiso   1.00
C396   C     0.10146   0.92394   0.02301   0.00000  Uiso   1.00
C397   C     0.25197   0.80914   0.46564   0.00000  Uiso   1.00
C398   C     0.02274   0.98600   0.24748   0.00000  Uiso   1.00
C399   C     0.31027   0.68055   0.25138   0.00000  Uiso   1.00
C400   C     0.02384   0.84369   0.33950   0.00000  Uiso   1.00
H401   H     0.07691   0.94943   0.04337   0.00000  Uiso   1.00
H402   H     0.26700   0.99686   0.25489   0.00000  Uiso   1.00
H403   H     0.16227   0.78808   0.21904   0.00000  Uiso   1.00
H404   H     0.17153   0.88090   0.27744   0.00000  Uiso   1.00
H405   H     0.18653   0.88916   0.18521   0.00000  Uiso   1.00
H406   H     0.22238   0.92646   0.14485   0.00000  Uiso   1.00
H407   H     0.14423   0.91538   0.13942   0.00000  Uiso   1.00
H408   H     0.14780   0.84031   0.09313   0.00000  Uiso   1.00
H409   H     0.18546   0.81204   0.13706   0.00000  Uiso   1.00
H410   H     0.08810   0.93803   0.33009   0.00000  Uiso   1.00
H411   H     0.12698   0.97473   0.37973   0.00000  Uiso   1.00
H412   H     0.27724   0.78487   0.44474   0.00000  Uiso   1.00
H413   H     0.16376   0.95747   0.32956   0.00000  Uiso   1.00
H414   H     0.18855   0.90406   0.39438   0.00000  Uiso   1.00
H415   H     0.15587   0.86271   0.34740   0.00000  Uiso   1.00
H416   H     0.04450   0.80177   0.09443   0.00000  Uiso   1.00
H417   H     0.29007   0.88575   0.40335   0.00000  Uiso   1.00
H418   H     0.32495   0.92599   0.48210   0.00000  Uiso   1.00
H419   H     0.01876   0.78897   0.01070   0.00000  Uiso   1.00
H420   H     0.17750   0.93627   0.07072   0.00000  Uiso   1.00
H421   H     0.18457   0.80859   0.41083   0.00000  Uiso   1.00
H422   H     0.06600   0.66966   0.24395   0.00000  Uiso   1.00
N423   N     0.14695   0.81883   0.23739   0.00000  Uiso   1.00
N424   N     0.18638   0.84784   0.26260   0.00000  Uiso   1.00
O425   O     0.29719   0.91298   0.25309   0.00000  Uiso   1.00
O426   O     0.03614   0.75369   0.24691   0.00000  Uiso   1.00
O427   O     0.05822   0.90368   0.24501   0.00000  Uiso   1.00
O428   O     0.27512   0.76298   0.25498   0.00000  Uiso   1.00
O429   O     0.30328   0.84063   0.32247   0.00000  Uiso   1.00
O430   O     0.03005   0.82603   0.17753   0.00000  Uiso   1.00
O431   O     0.06431   0.83134   0.31439   0.00000  Uiso   1.00
O432   O     0.26902   0.83533   0.18561   0.00000  Uiso   1.00
Zn433  Zn    0.27033   0.83954   0.25539   0.00000  Uiso   1.00
Zn434  Zn    0.06300   0.82713   0.24460   0.00000  Uiso   1.00
C435   C     0.34821   0.93153   0.24829   0.00000  Uiso   1.00
C436   C     0.64372   0.83058   0.15970   0.00000  Uiso   1.00
C437   C     0.37497   0.86546   0.38731   0.00000  Uiso   1.00
C438   C     0.62945   0.83139   0.10909   0.00000  Uiso   1.00
C439   C     0.35474   0.90738   0.46106   0.00000  Uiso   1.00
C440   C     0.65589   0.80739   0.03216   0.00000  Uiso   1.00
C441   C     0.33517   0.88521   0.41618   0.00000  Uiso   1.00
C442   C     0.33677   0.81424   0.07997   0.00000  Uiso   1.00
C443   C     0.43423   0.87266   0.40335   0.00000  Uiso   1.00
C444   C     0.57524   0.84729   0.08923   0.00000  Uiso   1.00
C445   C     0.44905   0.87661   0.45112   0.00000  Uiso   1.00
C446   C     0.65160   0.73508   0.25107   0.00000  Uiso   1.00
C447   C     0.56727   0.85090   0.04025   0.00000  Uiso   1.00
C448   C     0.41203   0.90211   0.47914   0.00000  Uiso   1.00
C449   C     0.60355   0.82331   0.01239   0.00000  Uiso   1.00
C450   C     0.50109   0.85891   0.47100   0.00000  Uiso   1.00
C451   C     0.51996   0.87469   0.01773   0.00000  Uiso   1.00
C452   C     0.52180   0.84723   0.11675   0.00000  Uiso   1.00
C453   C     0.51895   0.89749   0.14818   0.00000  Uiso   1.00
C454   C     0.47986   0.89334   0.37326   0.00000  Uiso   1.00
C455   C     0.46348   0.94381   0.35167   0.00000  Uiso   1.00
C456   C     0.49091   0.91410   0.03992   0.00000  Uiso   1.00
C457   C     0.53283   0.82398   0.44600   0.00000  Uiso   1.00
C458   C     0.43480   0.92394   0.02301   0.00000  Uiso   1.00
C459   C     0.58530   0.80914   0.46564   0.00000  Uiso   1.00
C460   C     0.35607   0.98600   0.24748   0.00000  Uiso   1.00
C461   C     0.64360   0.68055   0.25138   0.00000  Uiso   1.00
C462   C     0.35717   0.84369   0.33950   0.00000  Uiso   1.00
H463   H     0.41025   0.94943   0.04337   0.00000  Uiso   1.00
H464   H     0.60034   0.99686   0.25489   0.00000  Uiso   1.00
H465   H     0.49561   0.78808   0.21904   0.00000  Uiso   1.00
H466   H     0.50486   0.88090   0.27744   0.00000  Uiso   1.00
H467   H     0.51986   0.88916   0.18521   0.00000  Uiso   1.00
H468   H     0.55571   0.92646   0.14485   0.00000  Uiso   1.00
H469   H     0.47756   0.91538   0.13942   0.00000  Uiso   1.00
H470   H     0.48114   0.84031   0.09313   0.00000  Uiso   1.00
H471   H     0.51879   0.81204   0.13706   0.00000  Uiso   1.00
H472   H     0.42144   0.93803   0.33009   0.00000  Uiso   1.00
H473   H     0.46031   0.97473   0.37973   0.00000  Uiso   1.00
H474   H     0.61058   0.78487   0.44474   0.00000  Uiso   1.00
H475   H     0.49710   0.95747   0.32956   0.00000  Uiso   1.00
H476   H     0.52189   0.90406   0.39438   0.00000  Uiso   1.00
H477   H     0.48921   0.86271   0.34740   0.00000  Uiso   1.00
H478   H     0.37783   0.80177   0.09443   0.00000  Uiso   1.00
H479   H     0.62340   0.88575   0.40335   0.00000  Uiso   1.00
H480   H     0.65829   0.92599   0.48210   0.00000  Uiso   1.00
H481   H     0.35209   0.78897   0.01070   0.00000  Uiso   1.00
H482   H     0.51083   0.93627   0.07072   0.00000  Uiso   1.00
H483   H     0.51791   0.80859   0.41083   0.00000  Uiso   1.00
H484   H     0.39933   0.66966   0.24395   0.00000  Uiso   1.00
N485   N     0.48029   0.81883   0.23739   0.00000  Uiso   1.00
N486   N     0.51971   0.84784   0.26260   0.00000  Uiso   1.00
O487   O     0.63052   0.91298   0.25309   0.00000  Uiso   1.00
O488   O     0.36948   0.75369   0.24691   0.00000  Uiso   1.00
O489   O     0.39155   0.90368   0.24501   0.00000  Uiso   1.00
O490   O     0.60845   0.76298   0.25498   0.00000  Uiso   1.00
O491   O     0.63662   0.84063   0.32247   0.00000  Uiso   1.00
O492   O     0.36338   0.82603   0.17753   0.00000  Uiso   1.00
O493   O     0.39764   0.83134   0.31439   0.00000  Uiso   1.00
O494   O     0.60236   0.83533   0.18561   0.00000  Uiso   1.00
Zn495  Zn    0.60366   0.83954   0.25539   0.00000  Uiso   1.00
Zn496  Zn    0.39634   0.82713   0.24460   0.00000  Uiso   1.00
C497   C     0.68155   0.93153   0.24829   0.00000  Uiso   1.00
C498   C     0.97706   0.83058   0.15970   0.00000  Uiso   1.00
C499   C     0.70831   0.86546   0.38731   0.00000  Uiso   1.00
C500   C     0.96278   0.83139   0.10909   0.00000  Uiso   1.00
C501   C     0.68808   0.90738   0.46106   0.00000  Uiso   1.00
C502   C     0.98922   0.80739   0.03216   0.00000  Uiso   1.00
C503   C     0.66850   0.88521   0.41618   0.00000  Uiso   1.00
C504   C     0.67011   0.81424   0.07997   0.00000  Uiso   1.00
C505   C     0.76757   0.87266   0.40335   0.00000  Uiso   1.00
C506   C     0.90857   0.84729   0.08923   0.00000  Uiso   1.00
C507   C     0.78239   0.87661   0.45112   0.00000  Uiso   1.00
C508   C     0.98494   0.73508   0.25107   0.00000  Uiso   1.00
C509   C     0.90061   0.85090   0.04025   0.00000  Uiso   1.00
C510   C     0.74537   0.90211   0.47914   0.00000  Uiso   1.00
C511   C     0.93689   0.82331   0.01239   0.00000  Uiso   1.00
C512   C     0.83442   0.85891   0.47100   0.00000  Uiso   1.00
C513   C     0.85330   0.87469   0.01773   0.00000  Uiso   1.00
C514   C     0.85513   0.84723   0.11675   0.00000  Uiso   1.00
C515   C     0.85228   0.89749   0.14818   0.00000  Uiso   1.00
C516   C     0.81319   0.89334   0.37326   0.00000  Uiso   1.00
C517   C     0.79681   0.94381   0.35167   0.00000  Uiso   1.00
C518   C     0.82425   0.91410   0.03992   0.00000  Uiso   1.00
C519   C     0.86617   0.82398   0.44600   0.00000  Uiso   1.00
C520   C     0.76813   0.92394   0.02301   0.00000  Uiso   1.00
C521   C     0.91864   0.80914   0.46564   0.00000  Uiso   1.00
C522   C     0.68940   0.98600   0.24748   0.00000  Uiso   1.00
C523   C     0.97694   0.68055   0.25138   0.00000  Uiso   1.00
C524   C     0.69050   0.84369   0.33950   0.00000  Uiso   1.00
H525   H     0.74358   0.94943   0.04337   0.00000  Uiso   1.00
H526   H     0.93367   0.99686   0.25489   0.00000  Uiso   1.00
H527   H     0.82894   0.78808   0.21904   0.00000  Uiso   1.00
H528   H     0.83819   0.88090   0.27744   0.00000  Uiso   1.00
H529   H     0.85320   0.88916   0.18521   0.00000  Uiso   1.00
H530   H     0.88904   0.92646   0.14485   0.00000  Uiso   1.00
H531   H     0.81089   0.91538   0.13942   0.00000  Uiso   1.00
H532   H     0.81447   0.84031   0.09313   0.00000  Uiso   1.00
H533   H     0.85213   0.81204   0.13706   0.00000  Uiso   1.00
H534   H     0.75477   0.93803   0.33009   0.00000  Uiso   1.00
H535   H     0.79365   0.97473   0.37973   0.00000  Uiso   1.00
H536   H     0.94391   0.78487   0.44474   0.00000  Uiso   1.00
H537   H     0.83043   0.95747   0.32956   0.00000  Uiso   1.00
H538   H     0.85522   0.90406   0.39438   0.00000  Uiso   1.00
H539   H     0.82254   0.86271   0.34740   0.00000  Uiso   1.00
H540   H     0.71116   0.80177   0.09443   0.00000  Uiso   1.00
H541   H     0.95674   0.88575   0.40335   0.00000  Uiso   1.00
H542   H     0.99162   0.92599   0.48210   0.00000  Uiso   1.00
H543   H     0.68543   0.78897   0.01070   0.00000  Uiso   1.00
H544   H     0.84416   0.93627   0.07072   0.00000  Uiso   1.00
H545   H     0.85124   0.80859   0.41083   0.00000  Uiso   1.00
H546   H     0.73267   0.66966   0.24395   0.00000  Uiso   1.00
N547   N     0.81362   0.81883   0.23739   0.00000  Uiso   1.00
N548   N     0.85305   0.84784   0.26260   0.00000  Uiso   1.00
O549   O     0.96386   0.91298   0.25309   0.00000  Uiso   1.00
O550   O     0.70281   0.75369   0.24691   0.00000  Uiso   1.00
O551   O     0.72488   0.90368   0.24501   0.00000  Uiso   1.00
O552   O     0.94178   0.76298   0.25498   0.00000  Uiso   1.00
O553   O     0.96995   0.84063   0.32247   0.00000  Uiso   1.00
O554   O     0.69672   0.82603   0.17753   0.00000  Uiso   1.00
O555   O     0.73098   0.83134   0.31439   0.00000  Uiso   1.00
O556   O     0.93569   0.83533   0.18561   0.00000  Uiso   1.00
Zn557  Zn    0.93700   0.83954   0.25539   0.00000  Uiso   1.00
Zn558  Zn    0.72967   0.82713   0.24460   0.00000  Uiso   1.00
C559   C     0.01488   0.26486   0.74829   0.00000  Uiso   1.00
C560   C     0.31039   0.16391   0.65970   0.00000  Uiso   1.00
C561   C     0.04164   0.19880   0.88731   0.00000  Uiso   1.00
C562   C     0.29612   0.16472   0.60909   0.00000  Uiso   1.00
C563   C     0.02141   0.24071   0.96106   0.00000  Uiso   1.00
C564   C     0.32255   0.14073   0.53216   0.00000  Uiso   1.00
C565   C     0.00184   0.21854   0.91618   0.00000  Uiso   1.00
C566   C     0.00344   0.14757   0.57997   0.00000  Uiso   1.00
C567   C     0.10090   0.20599   0.90335   0.00000  Uiso   1.00
C568   C     0.24190   0.18062   0.58923   0.00000  Uiso   1.00
C569   C     0.11572   0.20995   0.95112   0.00000  Uiso   1.00
C570   C     0.31827   0.06841   0.75107   0.00000  Uiso   1.00
C571   C     0.23394   0.18423   0.54025   0.00000  Uiso   1.00
C572   C     0.07870   0.23545   0.97914   0.00000  Uiso   1.00
C573   C     0.27022   0.15664   0.51239   0.00000  Uiso   1.00
C574   C     0.16776   0.19224   0.97100   0.00000  Uiso   1.00
C575   C     0.18663   0.20802   0.51773   0.00000  Uiso   1.00
C576   C     0.18846   0.18056   0.61675   0.00000  Uiso   1.00
C577   C     0.18561   0.23082   0.64818   0.00000  Uiso   1.00
C578   C     0.14653   0.22667   0.87326   0.00000  Uiso   1.00
C579   C     0.13014   0.27715   0.85167   0.00000  Uiso   1.00
C580   C     0.15758   0.24744   0.53992   0.00000  Uiso   1.00
C581   C     0.19950   0.15731   0.94600   0.00000  Uiso   1.00
C582   C     0.10146   0.25727   0.52301   0.00000  Uiso   1.00
C583   C     0.25197   0.14247   0.96564   0.00000  Uiso   1.00
C584   C     0.02274   0.31934   0.74748   0.00000  Uiso   1.00
C585   C     0.31027   0.01388   0.75138   0.00000  Uiso   1.00
C586   C     0.02384   0.17702   0.83950   0.00000  Uiso   1.00
H587   H     0.07691   0.28276   0.54337   0.00000  Uiso   1.00
H588   H     0.26700   0.33020   0.75489   0.00000  Uiso   1.00
H589   H     0.16227   0.12141   0.71904   0.00000  Uiso   1.00
H590   H     0.17153   0.21423   0.77744   0.00000  Uiso   1.00
H591   H     0.18653   0.22249   0.68521   0.00000  Uiso   1.00
H592   H     0.22238   0.25979   0.64485   0.00000  Uiso   1.00
H593   H     0.14423   0.24871   0.63942   0.00000  Uiso   1.00
H594   H     0.14780   0.17364   0.59313   0.00000  Uiso   1.00
H595   H     0.18546   0.14537   0.63706   0.00000  Uiso   1.00
H596   H     0.08810   0.27136   0.83009   0.00000  Uiso   1.00
H597   H     0.12698   0.30806   0.87973   0.00000  Uiso   1.00
H598   H     0.27724   0.11820   0.94474   0.00000  Uiso   1.00
H599   H     0.16376   0.29080   0.82956   0.00000  Uiso   1.00
H600   H     0.18855   0.23739   0.89438   0.00000  Uiso   1.00
H601   H     0.15587   0.19605   0.84740   0.00000  Uiso   1.00
H602   H     0.04450   0.13510   0.59443   0.00000  Uiso   1.00
H603   H     0.29007   0.21908   0.90335   0.00000  Uiso   1.00
H604   H     0.32495   0.25933   0.98210   0.00000  Uiso   1.00
H605   H     0.01876   0.12231   0.51070   0.00000  Uiso   1.00
H606   H     0.17750   0.26961   0.57072   0.00000  Uiso   1.00
H607   H     0.18457   0.14193   0.91083   0.00000  Uiso   1.00
H608   H     0.06600   0.00300   0.74395   0.00000  Uiso   1.00
N609   N     0.14695   0.15216   0.73739   0.00000  Uiso   1.00
N610   N     0.18638   0.18117   0.76260   0.00000  Uiso   1.00
O611   O     0.29719   0.24631   0.75309   0.00000  Uiso   1.00
O612   O     0.03614   0.08702   0.74691   0.00000  Uiso   1.00
O613   O     0.05822   0.23702   0.74501   0.00000  Uiso   1.00
O614   O     0.27512   0.09632   0.75498   0.00000  Uiso   1.00
O615   O     0.30328   0.17397   0.82247   0.00000  Uiso   1.00
O616   O     0.03005   0.15937   0.67753   0.00000  Uiso   1.00
O617   O     0.06431   0.16467   0.81439   0.00000  Uiso   1.00
O618   O     0.26902   0.16866   0.68561   0.00000  Uiso   1.00
Zn619  Zn    0.27033   0.17287   0.75539   0.00000  Uiso   1.00
Zn620  Zn    0.06300   0.16046   0.74460   0.00000  Uiso   1.00
C621   C     0.34821   0.26486   0.74829   0.00000  Uiso   1.00
C622   C     0.64372   0.16391   0.65970   0.00000  Uiso   1.00
C623   C     0.37497   0.19880   0.88731   0.00000  Uiso   1.00
C624   C     0.62945   0.16472   0.60909   0.00000  Uiso   1.00
C625   C     0.35474   0.24071   0.96106   0.00000  Uiso   1.00
C626   C     0.65589   0.14073   0.53216   0.00000  Uiso   1.00
C627   C     0.33517   0.21854   0.91618   0.00000  Uiso   1.00
C628   C     0.33677   0.14757   0.57997   0.00000  Uiso   1.00
C629   C     0.43423   0.20599   0.90335   0.00000  Uiso   1.00
C630   C     0.57524   0.18062   0.58923   0.00000  Uiso   1.00
C631   C     0.44905   0.20995   0.95112   0.00000  Uiso   1.00
C632   C     0.65160   0.06841   0.75107   0.00000  Uiso   1.00
C633   C     0.56727   0.18423   0.54025   0.00000  Uiso   1.00
C634   C     0.41203   0.23545   0.97914   0.00000  Uiso   1.00
C635   C     0.60355   0.15664   0.51239   0.00000  Uiso   1.00
C636   C     0.50109   0.19224   0.97100   0.00000  Uiso   1.00
C637   C     0.51996   0.20802   0.51773   0.00000  Uiso   1.00
C638   C     0.52180   0.18056   0.61675   0.00000  Uiso   1.00
C639   C     0.51895   0.23082   0.64818   0.00000  Uiso   1.00
C640   C     0.47986   0.22667   0.87326   0.00000  Uiso   1.00
C641   C     0.46348   0.27715   0.85167   0.00000  Uiso   1.00
C642   C     0.49091   0.24744   0.53992   0.00000  Uiso   1.00
C643   C     0.53283   0.15731   0.94600   0.00000  Uiso   1.00
C644   C     0.43480   0.25727   0.52301   0.00000  Uiso   1.00
C645   C     0.58530   0.14247   0.96564   0.00000  Uiso   1.00
C646   C     0.35607   0.31934   0.74748   0.00000  Uiso   1.00
C647   C     0.64360   0.01388   0.75138   0.00000  Uiso   1.00
C648   C     0.35717   0.17702   0.83950   0.00000  Uiso   1.00
H649   H     0.41025   0.28276   0.54337   0.00000  Uiso   1.00
H650   H     0.60034   0.33020   0.75489   0.00000  Uiso   1.00
H651   H     0.49561   0.12141   0.71904   0.00000  Uiso   1.00
H652   H     0.50486   0.21423   0.77744   0.00000  Uiso   1.00
H653   H     0.51986   0.22249   0.68521   0.00000  Uiso   1.00
H654   H     0.55571   0.25979   0.64485   0.00000  Uiso   1.00
H655   H     0.47756   0.24871   0.63942   0.00000  Uiso   1.00
H656   H     0.48114   0.17364   0.59313   0.00000  Uiso   1.00
H657   H     0.51879   0.14537   0.63706   0.00000  Uiso   1.00
H658   H     0.42144   0.27136   0.83009   0.00000  Uiso   1.00
H659   H     0.46031   0.30806   0.87973   0.00000  Uiso   1.00
H660   H     0.61058   0.11820   0.94474   0.00000  Uiso   1.00
H661   H     0.49710   0.29080   0.82956   0.00000  Uiso   1.00
H662   H     0.52189   0.23739   0.89438   0.00000  Uiso   1.00
H663   H     0.48921   0.19605   0.84740   0.00000  Uiso   1.00
H664   H     0.37783   0.13510   0.59443   0.00000  Uiso   1.00
H665   H     0.62340   0.21908   0.90335   0.00000  Uiso   1.00
H666   H     0.65829   0.25933   0.98210   0.00000  Uiso   1.00
H667   H     0.35209   0.12231   0.51070   0.00000  Uiso   1.00
H668   H     0.51083   0.26961   0.57072   0.00000  Uiso   1.00
H669   H     0.51791   0.14193   0.91083   0.00000  Uiso   1.00
H670   H     0.39933   0.00300   0.74395   0.00000  Uiso   1.00
N671   N     0.48029   0.15216   0.73739   0.00000  Uiso   1.00
N672   N     0.51971   0.18117   0.76260   0.00000  Uiso   1.00
O673   O     0.63052   0.24631   0.75309   0.00000  Uiso   1.00
O674   O     0.36948   0.08702   0.74691   0.00000  Uiso   1.00
O675   O     0.39155   0.23702   0.74501   0.00000  Uiso   1.00
O676   O     0.60845   0.09632   0.75498   0.00000  Uiso   1.00
O677   O     0.63662   0.17397   0.82247   0.00000  Uiso   1.00
O678   O     0.36338   0.15937   0.67753   0.00000  Uiso   1.00
O679   O     0.39764   0.16467   0.81439   0.00000  Uiso   1.00
O680   O     0.60236   0.16866   0.68561   0.00000  Uiso   1.00
Zn681  Zn    0.60366   0.17287   0.75539   0.00000  Uiso   1.00
Zn682  Zn    0.39634   0.16046   0.74460   0.00000  Uiso   1.00
C683   C     0.68155   0.26486   0.74829   0.00000  Uiso   1.00
C684   C     0.97706   0.16391   0.65970   0.00000  Uiso   1.00
C685   C     0.70831   0.19880   0.88731   0.00000  Uiso   1.00
C686   C     0.96278   0.16472   0.60909   0.00000  Uiso   1.00
C687   C     0.68808   0.24071   0.96106   0.00000  Uiso   1.00
C688   C     0.98922   0.14073   0.53216   0.00000  Uiso   1.00
C689   C     0.66850   0.21854   0.91618   0.00000  Uiso   1.00
C690   C     0.67011   0.14757   0.57997   0.00000  Uiso   1.00
C691   C     0.76757   0.20599   0.90335   0.00000  Uiso   1.00
C692   C     0.90857   0.18062   0.58923   0.00000  Uiso   1.00
C693   C     0.78239   0.20995   0.95112   0.00000  Uiso   1.00
C694   C     0.98494   0.06841   0.75107   0.00000  Uiso   1.00
C695   C     0.90061   0.18423   0.54025   0.00000  Uiso   1.00
C696   C     0.74537   0.23545   0.97914   0.00000  Uiso   1.00
C697   C     0.93689   0.15664   0.51239   0.00000  Uiso   1.00
C698   C     0.83442   0.19224   0.97100   0.00000  Uiso   1.00
C699   C     0.85330   0.20802   0.51773   0.00000  Uiso   1.00
C700   C     0.85513   0.18056   0.61675   0.00000  Uiso   1.00
C701   C     0.85228   0.23082   0.64818   0.00000  Uiso   1.00
C702   C     0.81319   0.22667   0.87326   0.00000  Uiso   1.00
C703   C     0.79681   0.27715   0.85167   0.00000  Uiso   1.00
C704   C     0.82425   0.24744   0.53992   0.00000  Uiso   1.00
C705   C     0.86617   0.15731   0.94600   0.00000  Uiso   1.00
C706   C     0.76813   0.25727   0.52301   0.00000  Uiso   1.00
C707   C     0.91864   0.14247   0.96564   0.00000  Uiso   1.00
C708   C     0.68940   0.31934   0.74748   0.00000  Uiso   1.00
C709   C     0.97694   0.01388   0.75138   0.00000  Uiso   1.00
C710   C     0.69050   0.17702   0.83950   0.00000  Uiso   1.00
H711   H     0.74358   0.28276   0.54337   0.00000  Uiso   1.00
H712   H     0.93367   0.33020   0.75489   0.00000  Uiso   1.00
H713   H     0.82894   0.12141   0.71904   0.00000  Uiso   1.00
H714   H     0.83819   0.21423   0.77744   0.00000  Uiso   1.00
H715   H     0.85320   0.22249   0.68521   0.00000  Uiso   1.00
H716   H     0.88904   0.25979   0.64485   0.00000  Uiso   1.00
H717   H     0.81089   0.24871   0.63942   0.00000  Uiso   1.00
H718   H     0.81447   0.17364   0.59313   0.00000  Uiso   1.00
H719   H     0.85213   0.14537   0.63706   0.00000  Uiso   1.00
H720   H     0.75477   0.27136   0.83009   0.00000  Uiso   1.00
H721   H     0.79365   0.30806   0.87973   0.00000  Uiso   1.00
H722   H     0.94391   0.11820   0.94474   0.00000  Uiso   1.00
H723   H     0.83043   0.29080   0.82956   0.00000  Uiso   1.00
H724   H     0.85522   0.23739   0.89438   0.00000  Uiso   1.00
H725   H     0.82254   0.19605   0.84740   0.00000  Uiso   1.00
H726   H     0.71116   0.13510   0.59443   0.00000  Uiso   1.00
H727   H     0.95674   0.21908   0.90335   0.00000  Uiso   1.00
H728   H     0.99162   0.25933   0.98210   0.00000  Uiso   1.00
H729   H     0.68543   0.12231   0.51070   0.00000  Uiso   1.00
H730   H     0.84416   0.26961   0.57072   0.00000  Uiso   1.00
H731   H     0.85124   0.14193   0.91083   0.00000  Uiso   1.00
H732   H     0.73267   0.00300   0.74395   0.00000  Uiso   1.00
N733   N     0.81362   0.15216   0.73739   0.00000  Uiso   1.00
N734   N     0.85305   0.18117   0.76260   0.00000  Uiso   1.00
O735   O     0.96386   0.24631   0.75309   0.00000  Uiso   1.00
O736   O     0.70281   0.08702   0.74691   0.00000  Uiso   1.00
O737   O     0.72488   0.23702   0.74501   0.00000  Uiso   1.00
O738   O     0.94178   0.09632   0.75498   0.00000  Uiso   1.00
O739   O     0.96995   0.17397   0.82247   0.00000  Uiso   1.00
O740   O     0.69672   0.15937   0.67753   0.00000  Uiso   1.00
O741   O     0.73098   0.16467   0.81439   0.00000  Uiso   1.00
O742   O     0.93569   0.16866   0.68561   0.00000  Uiso   1.00
Zn743  Zn    0.93700   0.17287   0.75539   0.00000  Uiso   1.00
Zn744  Zn    0.72967   0.16046   0.74460   0.00000  Uiso   1.00
C745   C     0.01488   0.59820   0.74829   0.00000  Uiso   1.00
C746   C     0.31039   0.49725   0.65970   0.00000  Uiso   1.00
C747   C     0.04164   0.53213   0.88731   0.00000  Uiso   1.00
C748   C     0.29612   0.49805   0.60909   0.00000  Uiso   1.00
C749   C     0.02141   0.57404   0.96106   0.00000  Uiso   1.00
C750   C     0.32255   0.47406   0.53216   0.00000  Uiso   1.00
C751   C     0.00184   0.55187   0.91618   0.00000  Uiso   1.00
C752   C     0.00344   0.48090   0.57997   0.00000  Uiso   1.00
C753   C     0.10090   0.53932   0.90335   0.00000  Uiso   1.00
C754   C     0.24190   0.51396   0.58923   0.00000  Uiso   1.00
C755   C     0.11572   0.54328   0.95112   0.00000  Uiso   1.00
C756   C     0.31827   0.40174   0.75107   0.00000  Uiso   1.00
C757   C     0.23394   0.51757   0.54025   0.00000  Uiso   1.00
C758   C     0.07870   0.56878   0.97914   0.00000  Uiso   1.00
C759   C     0.27022   0.48997   0.51239   0.00000  Uiso   1.00
C760   C     0.16776   0.52558   0.97100   0.00000  Uiso   1.00
C761   C     0.18663   0.54136   0.51773   0.00000  Uiso   1.00
C762   C     0.18846   0.51389   0.61675   0.00000  Uiso   1.00
C763   C     0.18561   0.56415   0.64818   0.00000  Uiso   1.00
C764   C     0.14653   0.56000   0.87326   0.00000  Uiso   1.00
C765   C     0.13014   0.61048   0.85167   0.00000  Uiso   1.00
C766   C     0.15758   0.58077   0.53992   0.00000  Uiso   1.00
C767   C     0.19950   0.49065   0.94600   0.00000  Uiso   1.00
C768   C     0.10146   0.59060   0.52301   0.00000  Uiso   1.00
C769   C     0.25197   0.47580   0.96564   0.00000  Uiso   1.00
C770   C     0.02274   0.65267   0.74748   0.00000  Uiso   1.00
C771   C     0.31027   0.34721   0.75138   0.00000  Uiso   1.00
C772   C     0.02384   0.51036   0.83950   0.00000  Uiso   1.00
H773   H     0.07691   0.61609   0.54337   0.00000  Uiso   1.00
H774   H     0.26700   0.66353   0.75489   0.00000  Uiso   1.00
H775   H     0.16227   0.45474   0.71904   0.00000  Uiso   1.00
H776   H     0.17153   0.54757   0.77744   0.00000  Uiso   1.00
H777   H     0.18653   0.55583   0.68521   0.00000  Uiso   1.00
H778   H     0.22238   0.59312   0.64485   0.00000  Uiso   1.00
H779   H     0.14423   0.58205   0.63942   0.00000  Uiso   1.00
H780   H     0.14780   0.50698   0.59313   0.00000  Uiso   1.00
H781   H     0.18546   0.47870   0.63706   0.00000  Uiso   1.00
H782   H     0.08810   0.60469   0.83009   0.00000  Uiso   1.00
H783   H     0.12698   0.64139   0.87973   0.00000  Uiso   1.00
H784   H     0.27724   0.45154   0.94474   0.00000  Uiso   1.00
H785   H     0.16376   0.62414   0.82956   0.00000  Uiso   1.00
H786   H     0.18855   0.57072   0.89438   0.00000  Uiso   1.00
H787   H     0.15587   0.52938   0.84740   0.00000  Uiso   1.00
H788   H     0.04450   0.46844   0.59443   0.00000  Uiso   1.00
H789   H     0.29007   0.55242   0.90335   0.00000  Uiso   1.00
H790   H     0.32495   0.59266   0.98210   0.00000  Uiso   1.00
H791   H     0.01876   0.45564   0.51070   0.00000  Uiso   1.00
H792   H     0.17750   0.60294   0.57072   0.00000  Uiso   1.00
H793   H     0.18457   0.47526   0.91083   0.00000  Uiso   1.00
H794   H     0.06600   0.33633   0.74395   0.00000  Uiso   1.00
N795   N     0.14695   0.48550   0.73739   0.00000  Uiso   1.00
N796   N     0.18638   0.51450   0.76260   0.00000  Uiso   1.00
O797   O     0.29719   0.57964   0.75309   0.00000  Uiso   1.00
O798   O     0.03614   0.42036   0.74691   0.00000  Uiso   1.00
O799   O     0.05822   0.57035   0.74501   0.00000  Uiso   1.00
O800   O     0.27512   0.42965   0.75498   0.00000  Uiso   1.00
O801   O     0.30328   0.50730   0.82247   0.00000  Uiso   1.00
O802   O     0.03005   0.49270   0.67753   0.00000  Uiso   1.00
O803   O     0.06431   0.49801   0.81439   0.00000  Uiso   1.00
O804   O     0.26902   0.50199   0.68561   0.00000  Uiso   1.00
Zn805  Zn    0.27033   0.50621   0.75539   0.00000  Uiso   1.00
Zn806  Zn    0.06300   0.49379   0.74460   0.00000  Uiso   1.00
C807   C     0.34821   0.59820   0.74829   0.00000  Uiso   1.00
C808   C     0.64372   0.49725   0.65970   0.00000  Uiso   1.00
C809   C     0.37497   0.53213   0.88731   0.00000  Uiso   1.00
C810   C     0.62945   0.49805   0.60909   0.00000  Uiso   1.00
C811   C     0.35474   0.57404   0.96106   0.00000  Uiso   1.00
C812   C     0.65589   0.47406   0.53216   0.00000  Uiso   1.00
C813   C     0.33517   0.55187   0.91618   0.00000  Uiso   1.00
C814   C     0.33677   0.48090   0.57997   0.00000  Uiso   1.00
C815   C     0.43423   0.53932   0.90335   0.00000  Uiso   1.00
C816   C     0.57524   0.51396   0.58923   0.00000  Uiso   1.00
C817   C     0.44905   0.54328   0.95112   0.00000  Uiso   1.00
C818   C     0.65160   0.40174   0.75107   0.00000  Uiso   1.00
C819   C     0.56727   0.51757   0.54025   0.00000  Uiso   1.00
C820   C     0.41203   0.56878   0.97914   0.00000  Uiso   1.00
C821   C     0.60355   0.48997   0.51239   0.00000  Uiso   1.00
C822   C     0.50109   0.52558   0.97100   0.00000  Uiso   1.00
C823   C     0.51996   0.54136   0.51773   0.00000  Uiso   1.00
C824   C     0.52180   0.51389   0.61675   0.00000  Uiso   1.00
C825   C     0.51895   0.56415   0.64818   0.00000  Uiso   1.00
C826   C     0.47986   0.56000   0.87326   0.00000  Uiso   1.00
C827   C     0.46348   0.61048   0.85167   0.00000  Uiso   1.00
C828   C     0.49091   0.58077   0.53992   0.00000  Uiso   1.00
C829   C     0.53283   0.49065   0.94600   0.00000  Uiso   1.00
C830   C     0.43480   0.59060   0.52301   0.00000  Uiso   1.00
C831   C     0.58530   0.47580   0.96564   0.00000  Uiso   1.00
C832   C     0.35607   0.65267   0.74748   0.00000  Uiso   1.00
C833   C     0.64360   0.34721   0.75138   0.00000  Uiso   1.00
C834   C     0.35717   0.51036   0.83950   0.00000  Uiso   1.00
H835   H     0.41025   0.61609   0.54337   0.00000  Uiso   1.00
H836   H     0.60034   0.66353   0.75489   0.00000  Uiso   1.00
H837   H     0.49561   0.45474   0.71904   0.00000  Uiso   1.00
H838   H     0.50486   0.54757   0.77744   0.00000  Uiso   1.00
H839   H     0.51986   0.55583   0.68521   0.00000  Uiso   1.00
H840   H     0.55571   0.59312   0.64485   0.00000  Uiso   1.00
H841   H     0.47756   0.58205   0.63942   0.00000  Uiso   1.00
H842   H     0.48114   0.50698   0.59313   0.00000  Uiso   1.00
H843   H     0.51879   0.47870   0.63706   0.00000  Uiso   1.00
H844   H     0.42144   0.60469   0.83009   0.00000  Uiso   1.00
H845   H     0.46031   0.64139   0.87973   0.00000  Uiso   1.00
H846   H     0.61058   0.45154   0.94474   0.00000  Uiso   1.00
H847   H     0.49710   0.62414   0.82956   0.00000  Uiso   1.00
H848   H     0.52189   0.57072   0.89438   0.00000  Uiso   1.00
H849   H     0.48921   0.52938   0.84740   0.00000  Uiso   1.00
H850   H     0.37783   0.46844   0.59443   0.00000  Uiso   1.00
H851   H     0.62340   0.55242   0.90335   0.00000  Uiso   1.00
H852   H     0.65829   0.59266   0.98210   0.00000  Uiso   1.00
H853   H     0.35209   0.45564   0.51070   0.00000  Uiso   1.00
H854   H     0.51083   0.60294   0.57072   0.00000  Uiso   1.00
H855   H     0.51791   0.47526   0.91083   0.00000  Uiso   1.00
H856   H     0.39933   0.33633   0.74395   0.00000  Uiso   1.00
N857   N     0.48029   0.48550   0.73739   0.00000  Uiso   1.00
N858   N     0.51971   0.51450   0.76260   0.00000  Uiso   1.00
O859   O     0.63052   0.57964   0.75309   0.00000  Uiso   1.00
O860   O     0.36948   0.42036   0.74691   0.00000  Uiso   1.00
O861   O     0.39155   0.57035   0.74501   0.00000  Uiso   1.00
O862   O     0.60845   0.42965   0.75498   0.00000  Uiso   1.00
O863   O     0.63662   0.50730   0.82247   0.00000  Uiso   1.00
O864   O     0.36338   0.49270   0.67753   0.00000  Uiso   1.00
O865   O     0.39764   0.49801   0.81439   0.00000  Uiso   1.00
O866   O     0.60236   0.50199   0.68561   0.00000  Uiso   1.00
Zn867  Zn    0.60366   0.50621   0.75539   0.00000  Uiso   1.00
Zn868  Zn    0.39634   0.49379   0.74460   0.00000  Uiso   1.00
C869   C     0.68155   0.59820   0.74829   0.00000  Uiso   1.00
C870   C     0.97706   0.49725   0.65970   0.00000  Uiso   1.00
C871   C     0.70831   0.53213   0.88731   0.00000  Uiso   1.00
C872   C     0.96278   0.49805   0.60909   0.00000  Uiso   1.00
C873   C     0.68808   0.57404   0.96106   0.00000  Uiso   1.00
C874   C     0.98922   0.47406   0.53216   0.00000  Uiso   1.00
C875   C     0.66850   0.55187   0.91618   0.00000  Uiso   1.00
C876   C     0.67011   0.48090   0.57997   0.00000  Uiso   1.00
C877   C     0.76757   0.53932   0.90335   0.00000  Uiso   1.00
C878   C     0.90857   0.51396   0.58923   0.00000  Uiso   1.00
C879   C     0.78239   0.54328   0.95112   0.00000  Uiso   1.00
C880   C     0.98494   0.40174   0.75107   0.00000  Uiso   1.00
C881   C     0.90061   0.51757   0.54025   0.00000  Uiso   1.00
C882   C     0.74537   0.56878   0.97914   0.00000  Uiso   1.00
C883   C     0.93689   0.48997   0.51239   0.00000  Uiso   1.00
C884   C     0.83442   0.52558   0.97100   0.00000  Uiso   1.00
C885   C     0.85330   0.54136   0.51773   0.00000  Uiso   1.00
C886   C     0.85513   0.51389   0.61675   0.00000  Uiso   1.00
C887   C     0.85228   0.56415   0.64818   0.00000  Uiso   1.00
C888   C     0.81319   0.56000   0.87326   0.00000  Uiso   1.00
C889   C     0.79681   0.61048   0.85167   0.00000  Uiso   1.00
C890   C     0.82425   0.58077   0.53992   0.00000  Uiso   1.00
C891   C     0.86617   0.49065   0.94600   0.00000  Uiso   1.00
C892   C     0.76813   0.59060   0.52301   0.00000  Uiso   1.00
C893   C     0.91864   0.47580   0.96564   0.00000  Uiso   1.00
C894   C     0.68940   0.65267   0.74748   0.00000  Uiso   1.00
C895   C     0.97694   0.34721   0.75138   0.00000  Uiso   1.00
C896   C     0.69050   0.51036   0.83950   0.00000  Uiso   1.00
H897   H     0.74358   0.61609   0.54337   0.00000  Uiso   1.00
H898   H     0.93367   0.66353   0.75489   0.00000  Uiso   1.00
H899   H     0.82894   0.45474   0.71904   0.00000  Uiso   1.00
H900   H     0.83819   0.54757   0.77744   0.00000  Uiso   1.00
H901   H     0.85320   0.55583   0.68521   0.00000  Uiso   1.00
H902   H     0.88904   0.59312   0.64485   0.00000  Uiso   1.00
H903   H     0.81089   0.58205   0.63942   0.00000  Uiso   1.00
H904   H     0.81447   0.50698   0.59313   0.00000  Uiso   1.00
H905   H     0.85213   0.47870   0.63706   0.00000  Uiso   1.00
H906   H     0.75477   0.60469   0.83009   0.00000  Uiso   1.00
H907   H     0.79365   0.64139   0.87973   0.00000  Uiso   1.00
H908   H     0.94391   0.45154   0.94474   0.00000  Uiso   1.00
H909   H     0.83043   0.62414   0.82956   0.00000  Uiso   1.00
H910   H     0.85522   0.57072   0.89438   0.00000  Uiso   1.00
H911   H     0.82254   0.52938   0.84740   0.00000  Uiso   1.00
H912   H     0.71116   0.46844   0.59443   0.00000  Uiso   1.00
H913   H     0.95674   0.55242   0.90335   0.00000  Uiso   1.00
H914   H     0.99162   0.59266   0.98210   0.00000  Uiso   1.00
H915   H     0.68543   0.45564   0.51070   0.00000  Uiso   1.00
H916   H     0.84416   0.60294   0.57072   0.00000  Uiso   1.00
H917   H     0.85124   0.47526   0.91083   0.00000  Uiso   1.00
H918   H     0.73267   0.33633   0.74395   0.00000  Uiso   1.00
N919   N     0.81362   0.48550   0.73739   0.00000  Uiso   1.00
N920   N     0.85305   0.51450   0.76260   0.00000  Uiso   1.00
O921   O     0.96386   0.57964   0.75309   0.00000  Uiso   1.00
O922   O     0.70281   0.42036   0.74691   0.00000  Uiso   1.00
O923   O     0.72488   0.57035   0.74501   0.00000  Uiso   1.00
O924   O     0.94178   0.42965   0.75498   0.00000  Uiso   1.00
O925   O     0.96995   0.50730   0.82247   0.00000  Uiso   1.00
O926   O     0.69672   0.49270   0.67753   0.00000  Uiso   1.00
O927   O     0.73098   0.49801   0.81439   0.00000  Uiso   1.00
O928   O     0.93569   0.50199   0.68561   0.00000  Uiso   1.00
Zn929  Zn    0.93700   0.50621   0.75539   0.00000  Uiso   1.00
Zn930  Zn    0.72967   0.49379   0.74460   0.00000  Uiso   1.00
C931   C     0.01488   0.93153   0.74829   0.00000  Uiso   1.00
C932   C     0.31039   0.83058   0.65970   0.00000  Uiso   1.00
C933   C     0.04164   0.86546   0.88731   0.00000  Uiso   1.00
C934   C     0.29612   0.83139   0.60909   0.00000  Uiso   1.00
C935   C     0.02141   0.90738   0.96106   0.00000  Uiso   1.00
C936   C     0.32255   0.80739   0.53216   0.00000  Uiso   1.00
C937   C     0.00184   0.88521   0.91618   0.00000  Uiso   1.00
C938   C     0.00344   0.81424   0.57997   0.00000  Uiso   1.00
C939   C     0.10090   0.87266   0.90335   0.00000  Uiso   1.00
C940   C     0.24190   0.84729   0.58923   0.00000  Uiso   1.00
C941   C     0.11572   0.87661   0.95112   0.00000  Uiso   1.00
C942   C     0.31827   0.73508   0.75107   0.00000  Uiso   1.00
C943   C     0.23394   0.85090   0.54025   0.00000  Uiso   1.00
C944   C     0.07870   0.90211   0.97914   0.00000  Uiso   1.00
C945   C     0.27022   0.82331   0.51239   0.00000  Uiso   1.00
C946   C     0.16776   0.85891   0.97100   0.00000  Uiso   1.00
C947   C     0.18663   0.87469   0.51773   0.00000  Uiso   1.00
C948   C     0.18846   0.84723   0.61675   0.00000  Uiso   1.00
C949   C     0.18561   0.89749   0.64818   0.00000  Uiso   1.00
C950   C     0.14653   0.89334   0.87326   0.00000  Uiso   1.00
C951   C     0.13014   0.94381   0.85167   0.00000  Uiso   1.00
C952   C     0.15758   0.91410   0.53992   0.00000  Uiso   1.00
C953   C     0.19950   0.82398   0.94600   0.00000  Uiso   1.00
C954   C     0.10146   0.92394   0.52301   0.00000  Uiso   1.00
C955   C     0.25197   0.80914   0.96564   0.00000  Uiso   1.00
C956   C     0.02274   0.98600   0.74748   0.00000  Uiso   1.00
C957   C     0.31027   0.68055   0.75138   0.00000  Uiso   1.00
C958   C     0.02384   0.84369   0.83950   0.00000  Uiso   1.00
H959   H     0.07691   0.94943   0.54337   0.00000  Uiso   1.00
H960   H     0.26700   0.99686   0.75489   0.00000  Uiso   1.00
H961   H     0.16227   0.78808   0.71904   0.00000  Uiso   1.00
H962   H     0.17153   0.88090   0.77744   0.00000  Uiso   1.00
H963   H     0.18653   0.88916   0.68521   0.00000  Uiso   1.00
H964   H     0.22238   0.92646   0.64485   0.00000  Uiso   1.00
H965   H     0.14423   0.91538   0.63942   0.00000  Uiso   1.00
H966   H     0.14780   0.84031   0.59313   0.00000  Uiso   1.00
H967   H     0.18546   0.81204   0.63706   0.00000  Uiso   1.00
H968   H     0.08810   0.93803   0.83009   0.00000  Uiso   1.00
H969   H     0.12698   0.97473   0.87973   0.00000  Uiso   1.00
H970   H     0.27724   0.78487   0.94474   0.00000  Uiso   1.00
H971   H     0.16376   0.95747   0.82956   0.00000  Uiso   1.00
H972   H     0.18855   0.90406   0.89438   0.00000  Uiso   1.00
H973   H     0.15587   0.86271   0.84740   0.00000  Uiso   1.00
H974   H     0.04450   0.80177   0.59443   0.00000  Uiso   1.00
H975   H     0.29007   0.88575   0.90335   0.00000  Uiso   1.00
H976   H     0.32495   0.92599   0.98210   0.00000  Uiso   1.00
H977   H     0.01876   0.78897   0.51070   0.00000  Uiso   1.00
H978   H     0.17750   0.93627   0.57072   0.00000  Uiso   1.00
H979   H     0.18457   0.80859   0.91083   0.00000  Uiso   1.00
H980   H     0.06600   0.66966   0.74395   0.00000  Uiso   1.00
N981   N     0.14695   0.81883   0.73739   0.00000  Uiso   1.00
N982   N     0.18638   0.84784   0.76260   0.00000  Uiso   1.00
O983   O     0.29719   0.91298   0.75309   0.00000  Uiso   1.00
O984   O     0.03614   0.75369   0.74691   0.00000  Uiso   1.00
O985   O     0.05822   0.90368   0.74501   0.00000  Uiso   1.00
O986   O     0.27512   0.76298   0.75498   0.00000  Uiso   1.00
O987   O     0.30328   0.84063   0.82247   0.00000  Uiso   1.00
O988   O     0.03005   0.82603   0.67753   0.00000  Uiso   1.00
O989   O     0.06431   0.83134   0.81439   0.00000  Uiso   1.00
O990   O     0.26902   0.83533   0.68561   0.00000  Uiso   1.00
Zn991  Zn    0.27033   0.83954   0.75539   0.00000  Uiso   1.00
Zn992  Zn    0.06300   0.82713   0.74460   0.00000  Uiso   1.00
C993   C     0.34821   0.93153   0.74829   0.00000  Uiso   1.00
C994   C     0.64372   0.83058   0.65970   0.00000  Uiso   1.00
C995   C     0.37497   0.86546   0.88731   0.00000  Uiso   1.00
C996   C     0.62945   0.83139   0.60909   0.00000  Uiso   1.00
C997   C     0.35474   0.90738   0.96106   0.00000  Uiso   1.00
C998   C     0.65589   0.80739   0.53216   0.00000  Uiso   1.00
C999   C     0.33517   0.88521   0.91618   0.00000  Uiso   1.00
C1000  C     0.33677   0.81424   0.57997   0.00000  Uiso   1.00
C1001  C     0.43423   0.87266   0.90335   0.00000  Uiso   1.00
C1002  C     0.57524   0.84729   0.58923   0.00000  Uiso   1.00
C1003  C     0.44905   0.87661   0.95112   0.00000  Uiso   1.00
C1004  C     0.65160   0.73508   0.75107   0.00000  Uiso   1.00
C1005  C     0.56727   0.85090   0.54025   0.00000  Uiso   1.00
C1006  C     0.41203   0.90211   0.97914   0.00000  Uiso   1.00
C1007  C     0.60355   0.82331   0.51239   0.00000  Uiso   1.00
C1008  C     0.50109   0.85891   0.97100   0.00000  Uiso   1.00
C1009  C     0.51996   0.87469   0.51773   0.00000  Uiso   1.00
C1010  C     0.52180   0.84723   0.61675   0.00000  Uiso   1.00
C1011  C     0.51895   0.89749   0.64818   0.00000  Uiso   1.00
C1012  C     0.47986   0.89334   0.87326   0.00000  Uiso   1.00
C1013  C     0.46348   0.94381   0.85167   0.00000  Uiso   1.00
C1014  C     0.49091   0.91410   0.53992   0.00000  Uiso   1.00
C1015  C     0.53283   0.82398   0.94600   0.00000  Uiso   1.00
C1016  C     0.43480   0.92394   0.52301   0.00000  Uiso   1.00
C1017  C     0.58530   0.80914   0.96564   0.00000  Uiso   1.00
C1018  C     0.35607   0.98600   0.74748   0.00000  Uiso   1.00
C1019  C     0.64360   0.68055   0.75138   0.00000  Uiso   1.00
C1020  C     0.35717   0.84369   0.83950   0.00000  Uiso   1.00
H1021  H     0.41025   0.94943   0.54337   0.00000  Uiso   1.00
H1022  H     0.60034   0.99686   0.75489   0.00000  Uiso   1.00
H1023  H     0.49561   0.78808   0.71904   0.00000  Uiso   1.00
H1024  H     0.50486   0.88090   0.77744   0.00000  Uiso   1.00
H1025  H     0.51986   0.88916   0.68521   0.00000  Uiso   1.00
H1026  H     0.55571   0.92646   0.64485   0.00000  Uiso   1.00
H1027  H     0.47756   0.91538   0.63942   0.00000  Uiso   1.00
H1028  H     0.48114   0.84031   0.59313   0.00000  Uiso   1.00
H1029  H     0.51879   0.81204   0.63706   0.00000  Uiso   1.00
H1030  H     0.42144   0.93803   0.83009   0.00000  Uiso   1.00
H1031  H     0.46031   0.97473   0.87973   0.00000  Uiso   1.00
H1032  H     0.61058   0.78487   0.94474   0.00000  Uiso   1.00
H1033  H     0.49710   0.95747   0.82956   0.00000  Uiso   1.00
H1034  H     0.52189   0.90406   0.89438   0.00000  Uiso   1.00
H1035  H     0.48921   0.86271   0.84740   0.00000  Uiso   1.00
H1036  H     0.37783   0.80177   0.59443   0.00000  Uiso   1.00
H1037  H     0.62340   0.88575   0.90335   0.00000  Uiso   1.00
H1038  H     0.65829   0.92599   0.98210   0.00000  Uiso   1.00
H1039  H     0.35209   0.78897   0.51070   0.00000  Uiso   1.00
H1040  H     0.51083   0.93627   0.57072   0.00000  Uiso   1.00
H1041  H     0.51791   0.80859   0.91083   0.00000  Uiso   1.00
H1042  H     0.39933   0.66966   0.74395   0.00000  Uiso   1.00
N1043  N     0.48029   0.81883   0.73739   0.00000  Uiso   1.00
N1044  N     0.51971   0.84784   0.76260   0.00000  Uiso   1.00
O1045  O     0.63052   0.91298   0.75309   0.00000  Uiso   1.00
O1046  O     0.36948   0.75369   0.74691   0.00000  Uiso   1.00
O1047  O     0.39155   0.90368   0.74501   0.00000  Uiso   1.00
O1048  O     0.60845   0.76298   0.75498   0.00000  Uiso   1.00
O1049  O     0.63662   0.84063   0.82247   0.00000  Uiso   1.00
O1050  O     0.36338   0.82603   0.67753   0.00000  Uiso   1.00
O1051  O     0.39764   0.83134   0.81439   0.00000  Uiso   1.00
O1052  O     0.60236   0.83533   0.68561   0.00000  Uiso   1.00
Zn1053 Zn    0.60366   0.83954   0.75539   0.00000  Uiso   1.00
Zn1054 Zn    0.39634   0.82713   0.74460   0.00000  Uiso   1.00
C1055  C     0.68155   0.93153   0.74829   0.00000  Uiso   1.00
C1056  C     0.97706   0.83058   0.65970   0.00000  Uiso   1.00
C1057  C     0.70831   0.86546   0.88731   0.00000  Uiso   1.00
C1058  C     0.96278   0.83139   0.60909   0.00000  Uiso   1.00
C1059  C     0.68808   0.90738   0.96106   0.00000  Uiso   1.00
C1060  C     0.98922   0.80739   0.53216   0.00000  Uiso   1.00
C1061  C     0.66850   0.88521   0.91618   0.00000  Uiso   1.00
C1062  C     0.67011   0.81424   0.57997   0.00000  Uiso   1.00
C1063  C     0.76757   0.87266   0.90335   0.00000  Uiso   1.00
C1064  C     0.90857   0.84729   0.58923   0.00000  Uiso   1.00
C1065  C     0.78239   0.87661   0.95112   0.00000  Uiso   1.00
C1066  C     0.98494   0.73508   0.75107   0.00000  Uiso   1.00
C1067  C     0.90061   0.85090   0.54025   0.00000  Uiso   1.00
C1068  C     0.74537   0.90211   0.97914   0.00000  Uiso   1.00
C1069  C     0.93689   0.82331   0.51239   0.00000  Uiso   1.00
C1070  C     0.83442   0.85891   0.97100   0.00000  Uiso   1.00
C1071  C     0.85330   0.87469   0.51773   0.00000  Uiso   1.00
C1072  C     0.85513   0.84723   0.61675   0.00000  Uiso   1.00
C1073  C     0.85228   0.89749   0.64818   0.00000  Uiso   1.00
C1074  C     0.81319   0.89334   0.87326   0.00000  Uiso   1.00
C1075  C     0.79681   0.94381   0.85167   0.00000  Uiso   1.00
C1076  C     0.82425   0.91410   0.53992   0.00000  Uiso   1.00
C1077  C     0.86617   0.82398   0.94600   0.00000  Uiso   1.00
C1078  C     0.76813   0.92394   0.52301   0.00000  Uiso   1.00
C1079  C     0.91864   0.80914   0.96564   0.00000  Uiso   1.00
C1080  C     0.68940   0.98600   0.74748   0.00000  Uiso   1.00
C1081  C     0.97694   0.68055   0.75138   0.00000  Uiso   1.00
C1082  C     0.69050   0.84369   0.83950   0.00000  Uiso   1.00
H1083  H     0.74358   0.94943   0.54337   0.00000  Uiso   1.00
H1084  H     0.93367   0.99686   0.75489   0.00000  Uiso   1.00
H1085  H     0.82894   0.78808   0.71904   0.00000  Uiso   1.00
H1086  H     0.83819   0.88090   0.77744   0.00000  Uiso   1.00
H1087  H     0.85320   0.88916   0.68521   0.00000  Uiso   1.00
H1088  H     0.88904   0.92646   0.64485   0.00000  Uiso   1.00
H1089  H     0.81089   0.91538   0.63942   0.00000  Uiso   1.00
H1090  H     0.81447   0.84031   0.59313   0.00000  Uiso   1.00
H1091  H     0.85213   0.81204   0.63706   0.00000  Uiso   1.00
H1092  H     0.75477   0.93803   0.83009   0.00000  Uiso   1.00
H1093  H     0.79365   0.97473   0.87973   0.00000  Uiso   1.00
H1094  H     0.94391   0.78487   0.94474   0.00000  Uiso   1.00
H1095  H     0.83043   0.95747   0.82956   0.00000  Uiso   1.00
H1096  H     0.85522   0.90406   0.89438   0.00000  Uiso   1.00
H1097  H     0.82254   0.86271   0.84740   0.00000  Uiso   1.00
H1098  H     0.71116   0.80177   0.59443   0.00000  Uiso   1.00
H1099  H     0.95674   0.88575   0.90335   0.00000  Uiso   1.00
H1100  H     0.99162   0.92599   0.98210   0.00000  Uiso   1.00
H1101  H     0.68543   0.78897   0.51070   0.00000  Uiso   1.00
H1102  H     0.84416   0.93627   0.57072   0.00000  Uiso   1.00
H1103  H     0.85124   0.80859   0.91083   0.00000  Uiso   1.00
H1104  H     0.73267   0.66966   0.74395   0.00000  Uiso   1.00
N1105  N     0.81362   0.81883   0.73739   0.00000  Uiso   1.00
N1106  N     0.85305   0.84784   0.76260   0.00000  Uiso   1.00
O1107  O     0.96386   0.91298   0.75309   0.00000  Uiso   1.00
O1108  O     0.70281   0.75369   0.74691   0.00000  Uiso   1.00
O1109  O     0.72488   0.90368   0.74501   0.00000  Uiso   1.00
O1110  O     0.94178   0.76298   0.75498   0.00000  Uiso   1.00
O1111  O     0.96995   0.84063   0.82247   0.00000  Uiso   1.00
O1112  O     0.69672   0.82603   0.67753   0.00000  Uiso   1.00
O1113  O     0.73098   0.83134   0.81439   0.00000  Uiso   1.00
O1114  O     0.93569   0.83533   0.68561   0.00000  Uiso   1.00
Zn1115 Zn    0.93700   0.83954   0.75539   0.00000  Uiso   1.00
Zn1116 Zn    0.72967   0.82713   0.74460   0.00000  Uiso   1.00
loop_
_geom_bond_atom_site_label_1
_geom_bond_atom_site_label_2
_geom_bond_distance
_geom_bond_site_symmetry_2
_ccdc_geom_bond_type
C1     O55     1.286   .     A
C1     C26     1.402   .     S
C1     O177    1.274   1_455 S
C2     C4      1.467   .     S
C2     O60     1.285   .     A
C2     O120    1.307   .     S
C3     C9      1.409   .     A
C3     C28     1.466   .     S
C3     C7      1.407   .     A
C4     C10     1.432   .     A
C4     C70     1.403   .     S
C5     C14     1.404   .     A
C5     C7      1.403   .     A
C5     H170    1.083   1_455 S
C6     C15     1.394   .     A
C6     C70     1.384   .     S
C6     H109    1.084   .     S
C7     H169    1.081   1_455 S
C8     H44     1.083   .     S
C8     C130    1.384   1_455 S
C8     C128    1.403   1_455 S
C9     C20     1.526   .     S
C9     C11     1.383   .     A
C10    C18     1.542   .     S
C10    C13     1.416   .     A
C11    C14     1.407   .     A
C11    C16     1.407   .     A
C12    O56     1.285   .     A
C12    C27     1.403   .     S
C12    O116    1.275   .     S
C13    C17     1.419   .     A
C13    C15     1.419   .     A
C14    C582    1.392   .     S
C15    C583    1.392   1_554 S
C16    C23     1.412   .     A
C16    C575    1.402   .     S
C17    C22     1.414   .     A
C17    C574    1.402   1_554 S
C18    H37     1.109   .     S
C18    C19     1.542   .     S
C18    H36     1.109   .     S
C19    H35     1.111   .     S
C19    H33     1.100   .     S
C19    H34     1.112   .     S
C20    H42     1.110   .     S
C20    H43     1.099   .     S
C20    C21     1.529   .     S
C21    H39     1.111   .     S
C21    H41     1.110   .     S
C21    H38     1.104   .     S
C22    H48     1.073   .     S
C22    C24     1.396   .     A
C23    H49     1.082   .     S
C23    C25     1.385   .     A
C24    H29     1.083   .     S
C24    C572    1.392   1_554 S
C25    H40     1.084   .     S
C25    C573    1.392   .     S
C26    C337    1.337   1_455 S
C26    H236    1.088   .     S
C27    C460    1.337   1_545 S
C27    H402    1.088   1_545 S
C28    O59     1.290   .     A
C28    O181    1.299   1_455 S
H30    C213    1.088   .     S
H31    N51     1.029   .     S
H32    N52     1.026   .     S
H45    C69     1.081   .     S
H46    C67     1.083   .     S
H47    C130    1.084   1_455 S
H50    C398    1.088   1_545 S
N51    Zn62    2.013   .     S
N51    N52     1.280   .     D
N52    Zn61    2.013   .     S
O53    Zn61    1.955   .     S
O53    C63     1.274   .     S
O54    Zn62    1.955   .     S
O54    C136    1.275   1_455 S
O55    Zn62    1.979   .     S
O56    Zn61    1.979   .     S
O57    Zn61    2.008   .     S
O57    C90     1.299   .     S
O58    Zn62    2.008   .     S
O58    C126    1.307   1_455 S
O59    Zn62    2.006   .     S
O60    Zn61    2.006   .     S
C63    O117    1.286   .     A
C63    C88     1.402   .     S
C64    C66     1.467   .     S
C64    O122    1.285   .     A
C64    O182    1.307   .     S
C65    C71     1.409   .     A
C65    C90     1.466   .     S
C65    C69     1.407   .     A
C66    C72     1.432   .     A
C66    C132    1.403   .     S
C67    C76     1.404   .     A
C67    C69     1.403   .     A
C68    C77     1.394   .     A
C68    C132    1.384   .     S
C68    H171    1.084   .     S
C70    H106    1.083   .     S
C71    C82     1.526   .     S
C71    C73     1.383   .     A
C72    C80     1.542   .     S
C72    C75     1.416   .     A
C73    C76     1.407   .     A
C73    C78     1.407   .     A
C74    O118    1.285   .     A
C74    C89     1.403   .     S
C74    O178    1.275   .     S
C75    C79     1.419   .     A
C75    C77     1.419   .     A
C76    C644    1.392   .     S
C77    C645    1.392   1_554 S
C78    C85     1.412   .     A
C78    C637    1.402   .     S
C79    C84     1.414   .     A
C79    C636    1.402   1_554 S
C80    H99     1.109   .     S
C80    C81     1.542   .     S
C80    H98     1.109   .     S
C81    H97     1.111   .     S
C81    H95     1.100   .     S
C81    H96     1.112   .     S
C82    H104    1.110   .     S
C82    H105    1.099   .     S
C82    C83     1.529   .     S
C83    H101    1.111   .     S
C83    H103    1.110   .     S
C83    H100    1.104   .     S
C84    H110    1.073   .     S
C84    C86     1.396   .     A
C85    H111    1.082   .     S
C85    C87     1.385   .     A
C86    H91     1.083   .     S
C86    C634    1.392   1_554 S
C87    H102    1.084   .     S
C87    C635    1.392   .     S
C88    C213    1.337   .     S
C88    H298    1.088   .     S
C89    C522    1.337   1_545 S
C89    H464    1.088   1_545 S
C90    O121    1.290   .     A
H92    C275    1.088   .     S
H93    N113    1.029   .     S
H94    N114    1.026   .     S
H107   C131    1.081   .     S
H108   C129    1.083   .     S
H112   C460    1.088   1_545 S
N113   Zn124   2.013   .     S
N113   N114    1.280   .     D
N114   Zn123   2.013   .     S
O115   Zn123   1.955   .     S
O115   C125    1.274   .     S
O116   Zn124   1.955   .     S
O117   Zn124   1.979   .     S
O118   Zn123   1.979   .     S
O119   Zn123   2.008   .     S
O119   C152    1.299   .     S
O120   Zn124   2.008   .     S
O121   Zn124   2.006   .     S
O122   Zn123   2.006   .     S
C125   O179    1.286   .     A
C125   C150    1.402   .     S
C126   C128    1.467   .     S
C126   O184    1.285   .     A
C126   O58     1.307   1_655 S
C127   C133    1.409   .     A
C127   C152    1.466   .     S
C127   C131    1.407   .     A
C128   C134    1.432   .     A
C128   C8      1.403   1_655 S
C129   C138    1.404   .     A
C129   C131    1.403   .     A
C130   C139    1.394   .     A
C130   C8      1.384   1_655 S
C130   H47     1.084   1_655 S
C132   H168    1.083   .     S
C133   C144    1.526   .     S
C133   C135    1.383   .     A
C134   C142    1.542   .     S
C134   C137    1.416   .     A
C135   C138    1.407   .     A
C135   C140    1.407   .     A
C136   O180    1.285   .     A
C136   C151    1.403   .     S
C136   O54     1.275   1_655 S
C137   C141    1.419   .     A
C137   C139    1.419   .     A
C138   C706    1.392   .     S
C139   C707    1.392   1_554 S
C140   C147    1.412   .     A
C140   C699    1.402   .     S
C141   C146    1.414   .     A
C141   C698    1.402   1_554 S
C142   H161    1.109   .     S
C142   C143    1.542   .     S
C142   H160    1.109   .     S
C143   H159    1.111   .     S
C143   H157    1.100   .     S
C143   H158    1.112   .     S
C144   H166    1.110   .     S
C144   H167    1.099   .     S
C144   C145    1.529   .     S
C145   H163    1.111   .     S
C145   H165    1.110   .     S
C145   H162    1.104   .     S
C146   H172    1.073   .     S
C146   C148    1.396   .     A
C147   H173    1.082   .     S
C147   C149    1.385   .     A
C148   H153    1.083   .     S
C148   C696    1.392   1_554 S
C149   H164    1.084   .     S
C149   C697    1.392   .     S
C150   C275    1.337   .     S
C150   H360    1.088   .     S
C151   C398    1.337   1_645 S
C151   H526    1.088   1_545 S
C152   O183    1.290   .     A
H154   C337    1.088   .     S
H155   N175    1.029   .     S
H156   N176    1.026   .     S
H169   C7      1.081   1_655 S
H170   C5      1.083   1_655 S
H174   C522    1.088   1_545 S
N175   Zn186   2.013   .     S
N175   N176    1.280   .     D
N176   Zn185   2.013   .     S
O177   Zn185   1.955   .     S
O177   C1      1.274   1_655 S
O178   Zn186   1.955   .     S
O179   Zn186   1.979   .     S
O180   Zn185   1.979   .     S
O181   Zn185   2.008   .     S
O181   C28     1.299   1_655 S
O182   Zn186   2.008   .     S
O183   Zn186   2.006   .     S
O184   Zn185   2.006   .     S
C187   O241    1.286   .     A
C187   C212    1.402   .     S
C187   O363    1.274   1_455 S
C188   C190    1.467   .     S
C188   O246    1.285   .     A
C188   O306    1.307   .     S
C189   C195    1.409   .     A
C189   C214    1.466   .     S
C189   C193    1.407   .     A
C190   C196    1.432   .     A
C190   C256    1.403   .     S
C191   C200    1.404   .     A
C191   C193    1.403   .     A
C191   H356    1.083   1_455 S
C192   C201    1.394   .     A
C192   C256    1.384   .     S
C192   H295    1.084   .     S
C193   H355    1.081   1_455 S
C194   H230    1.083   .     S
C194   C316    1.384   1_455 S
C194   C314    1.403   1_455 S
C195   C206    1.526   .     S
C195   C197    1.383   .     A
C196   C204    1.542   .     S
C196   C199    1.416   .     A
C197   C200    1.407   .     A
C197   C202    1.407   .     A
C198   O242    1.285   .     A
C198   C213    1.403   .     S
C198   O302    1.275   .     S
C199   C203    1.419   .     A
C199   C201    1.419   .     A
C200   C768    1.392   .     S
C201   C769    1.392   1_554 S
C202   C209    1.412   .     A
C202   C761    1.402   .     S
C203   C208    1.414   .     A
C203   C760    1.402   1_554 S
C204   H223    1.109   .     S
C204   C205    1.542   .     S
C204   H222    1.109   .     S
C205   H221    1.111   .     S
C205   H219    1.100   .     S
C205   H220    1.112   .     S
C206   H228    1.110   .     S
C206   H229    1.099   .     S
C206   C207    1.529   .     S
C207   H225    1.111   .     S
C207   H227    1.110   .     S
C207   H224    1.104   .     S
C208   H234    1.073   .     S
C208   C210    1.396   .     A
C209   H235    1.082   .     S
C209   C211    1.385   .     A
C210   H215    1.083   .     S
C210   C758    1.392   1_554 S
C211   H226    1.084   .     S
C211   C759    1.392   .     S
C212   C523    1.337   1_455 S
C212   H422    1.088   .     S
C214   O245    1.290   .     A
C214   O367    1.299   1_455 S
H216   C399    1.088   .     S
H217   N237    1.029   .     S
H218   N238    1.026   .     S
H231   C255    1.081   .     S
H232   C253    1.083   .     S
H233   C316    1.084   1_455 S
N237   Zn248   2.013   .     S
N237   N238    1.280   .     D
N238   Zn247   2.013   .     S
O239   Zn247   1.955   .     S
O239   C249    1.274   .     S
O240   Zn248   1.955   .     S
O240   C322    1.275   1_455 S
O241   Zn248   1.979   .     S
O242   Zn247   1.979   .     S
O243   Zn247   2.008   .     S
O243   C276    1.299   .     S
O244   Zn248   2.008   .     S
O244   C312    1.307   1_455 S
O245   Zn248   2.006   .     S
O246   Zn247   2.006   .     S
C249   O303    1.286   .     A
C249   C274    1.402   .     S
C250   C252    1.467   .     S
C250   O308    1.285   .     A
C250   O368    1.307   .     S
C251   C257    1.409   .     A
C251   C276    1.466   .     S
C251   C255    1.407   .     A
C252   C258    1.432   .     A
C252   C318    1.403   .     S
C253   C262    1.404   .     A
C253   C255    1.403   .     A
C254   C263    1.394   .     A
C254   C318    1.384   .     S
C254   H357    1.084   .     S
C256   H292    1.083   .     S
C257   C268    1.526   .     S
C257   C259    1.383   .     A
C258   C266    1.542   .     S
C258   C261    1.416   .     A
C259   C262    1.407   .     A
C259   C264    1.407   .     A
C260   O304    1.285   .     A
C260   C275    1.403   .     S
C260   O364    1.275   .     S
C261   C265    1.419   .     A
C261   C263    1.419   .     A
C262   C830    1.392   .     S
C263   C831    1.392   1_554 S
C264   C271    1.412   .     A
C264   C823    1.402   .     S
C265   C270    1.414   .     A
C265   C822    1.402   1_554 S
C266   H285    1.109   .     S
C266   C267    1.542   .     S
C266   H284    1.109   .     S
C267   H283    1.111   .     S
C267   H281    1.100   .     S
C267   H282    1.112   .     S
C268   H290    1.110   .     S
C268   H291    1.099   .     S
C268   C269    1.529   .     S
C269   H287    1.111   .     S
C269   H289    1.110   .     S
C269   H286    1.104   .     S
C270   H296    1.073   .     S
C270   C272    1.396   .     A
C271   H297    1.082   .     S
C271   C273    1.385   .     A
C272   H277    1.083   .     S
C272   C820    1.392   1_554 S
C273   H288    1.084   .     S
C273   C821    1.392   .     S
C274   C399    1.337   .     S
C274   H484    1.088   .     S
C276   O307    1.290   .     A
H278   C461    1.088   .     S
H279   N299    1.029   .     S
H280   N300    1.026   .     S
H293   C317    1.081   .     S
H294   C315    1.083   .     S
N299   Zn310   2.013   .     S
N299   N300    1.280   .     D
N300   Zn309   2.013   .     S
O301   Zn309   1.955   .     S
O301   C311    1.274   .     S
O302   Zn310   1.955   .     S
O303   Zn310   1.979   .     S
O304   Zn309   1.979   .     S
O305   Zn309   2.008   .     S
O305   C338    1.299   .     S
O306   Zn310   2.008   .     S
O307   Zn310   2.006   .     S
O308   Zn309   2.006   .     S
C311   O365    1.286   .     A
C311   C336    1.402   .     S
C312   C314    1.467   .     S
C312   O370    1.285   .     A
C312   O244    1.307   1_655 S
C313   C319    1.409   .     A
C313   C338    1.466   .     S
C313   C317    1.407   .     A
C314   C320    1.432   .     A
C314   C194    1.403   1_655 S
C315   C324    1.404   .     A
C315   C317    1.403   .     A
C316   C325    1.394   .     A
C316   C194    1.384   1_655 S
C316   H233    1.084   1_655 S
C318   H354    1.083   .     S
C319   C330    1.526   .     S
C319   C321    1.383   .     A
C320   C328    1.542   .     S
C320   C323    1.416   .     A
C321   C324    1.407   .     A
C321   C326    1.407   .     A
C322   O366    1.285   .     A
C322   C337    1.403   .     S
C322   O240    1.275   1_655 S
C323   C327    1.419   .     A
C323   C325    1.419   .     A
C324   C892    1.392   .     S
C325   C893    1.392   1_554 S
C326   C333    1.412   .     A
C326   C885    1.402   .     S
C327   C332    1.414   .     A
C327   C884    1.402   1_554 S
C328   H347    1.109   .     S
C328   C329    1.542   .     S
C328   H346    1.109   .     S
C329   H345    1.111   .     S
C329   H343    1.100   .     S
C329   H344    1.112   .     S
C330   H352    1.110   .     S
C330   H353    1.099   .     S
C330   C331    1.529   .     S
C331   H349    1.111   .     S
C331   H351    1.110   .     S
C331   H348    1.104   .     S
C332   H358    1.073   .     S
C332   C334    1.396   .     A
C333   H359    1.082   .     S
C333   C335    1.385   .     A
C334   H339    1.083   .     S
C334   C882    1.392   1_554 S
C335   H350    1.084   .     S
C335   C883    1.392   .     S
C336   C461    1.337   .     S
C336   H546    1.088   .     S
C337   C26     1.337   1_655 S
C338   O369    1.290   .     A
H340   C523    1.088   .     S
H341   N361    1.029   .     S
H342   N362    1.026   .     S
H355   C193    1.081   1_655 S
H356   C191    1.083   1_655 S
N361   Zn372   2.013   .     S
N361   N362    1.280   .     D
N362   Zn371   2.013   .     S
O363   Zn371   1.955   .     S
O363   C187    1.274   1_655 S
O364   Zn372   1.955   .     S
O365   Zn372   1.979   .     S
O366   Zn371   1.979   .     S
O367   Zn371   2.008   .     S
O367   C214    1.299   1_655 S
O368   Zn372   2.008   .     S
O369   Zn372   2.006   .     S
O370   Zn371   2.006   .     S
C373   O427    1.286   .     A
C373   C398    1.402   .     S
C373   O549    1.274   1_455 S
C374   C376    1.467   .     S
C374   O432    1.285   .     A
C374   O492    1.307   .     S
C375   C381    1.409   .     A
C375   C400    1.466   .     S
C375   C379    1.407   .     A
C376   C382    1.432   .     A
C376   C442    1.403   .     S
C377   C386    1.404   .     A
C377   C379    1.403   .     A
C377   H542    1.083   1_455 S
C378   C387    1.394   .     A
C378   C442    1.384   .     S
C378   H481    1.084   .     S
C379   H541    1.081   1_455 S
C380   H416    1.083   .     S
C380   C502    1.384   1_455 S
C380   C500    1.403   1_455 S
C381   C392    1.526   .     S
C381   C383    1.383   .     A
C382   C390    1.542   .     S
C382   C385    1.416   .     A
C383   C386    1.407   .     A
C383   C388    1.407   .     A
C384   O428    1.285   .     A
C384   C399    1.403   .     S
C384   O488    1.275   .     S
C385   C389    1.419   .     A
C385   C387    1.419   .     A
C386   C954    1.392   .     S
C387   C955    1.392   1_554 S
C388   C395    1.412   .     A
C388   C947    1.402   .     S
C389   C394    1.414   .     A
C389   C946    1.402   1_554 S
C390   H409    1.109   .     S
C390   C391    1.542   .     S
C390   H408    1.109   .     S
C391   H407    1.111   .     S
C391   H405    1.100   .     S
C391   H406    1.112   .     S
C392   H414    1.110   .     S
C392   H415    1.099   .     S
C392   C393    1.529   .     S
C393   H411    1.111   .     S
C393   H413    1.110   .     S
C393   H410    1.104   .     S
C394   H420    1.073   .     S
C394   C396    1.396   .     A
C395   H421    1.082   .     S
C395   C397    1.385   .     A
C396   H401    1.083   .     S
C396   C944    1.392   1_554 S
C397   H412    1.084   .     S
C397   C945    1.392   .     S
C398   C151    1.337   1_465 S
C398   H50     1.088   1_565 S
C400   O431    1.290   .     A
C400   O553    1.299   1_455 S
H402   C27     1.088   1_565 S
H403   N423    1.029   .     S
H404   N424    1.026   .     S
H417   C441    1.081   .     S
H418   C439    1.083   .     S
H419   C502    1.084   1_455 S
N423   Zn434   2.013   .     S
N423   N424    1.280   .     D
N424   Zn433   2.013   .     S
O425   Zn433   1.955   .     S
O425   C435    1.274   .     S
O426   Zn434   1.955   .     S
O426   C508    1.275   1_455 S
O427   Zn434   1.979   .     S
O428   Zn433   1.979   .     S
O429   Zn433   2.008   .     S
O429   C462    1.299   .     S
O430   Zn434   2.008   .     S
O430   C498    1.307   1_455 S
O431   Zn434   2.006   .     S
O432   Zn433   2.006   .     S
C435   O489    1.286   .     A
C435   C460    1.402   .     S
C436   C438    1.467   .     S
C436   O494    1.285   .     A
C436   O554    1.307   .     S
C437   C443    1.409   .     A
C437   C462    1.466   .     S
C437   C441    1.407   .     A
C438   C444    1.432   .     A
C438   C504    1.403   .     S
C439   C448    1.404   .     A
C439   C441    1.403   .     A
C440   C449    1.394   .     A
C440   C504    1.384   .     S
C440   H543    1.084   .     S
C442   H478    1.083   .     S
C443   C454    1.526   .     S
C443   C445    1.383   .     A
C444   C452    1.542   .     S
C444   C447    1.416   .     A
C445   C448    1.407   .     A
C445   C450    1.407   .     A
C446   O490    1.285   .     A
C446   C461    1.403   .     S
C446   O550    1.275   .     S
C447   C451    1.419   .     A
C447   C449    1.419   .     A
C448   C1016   1.392   .     S
C449   C1017   1.392   1_554 S
C450   C457    1.412   .     A
C450   C1009   1.402   .     S
C451   C456    1.414   .     A
C451   C1008   1.402   1_554 S
C452   H471    1.109   .     S
C452   C453    1.542   .     S
C452   H470    1.109   .     S
C453   H469    1.111   .     S
C453   H467    1.100   .     S
C453   H468    1.112   .     S
C454   H476    1.110   .     S
C454   H477    1.099   .     S
C454   C455    1.529   .     S
C455   H473    1.111   .     S
C455   H475    1.110   .     S
C455   H472    1.104   .     S
C456   H482    1.073   .     S
C456   C458    1.396   .     A
C457   H483    1.082   .     S
C457   C459    1.385   .     A
C458   H463    1.083   .     S
C458   C1006   1.392   1_554 S
C459   H474    1.084   .     S
C459   C1007   1.392   .     S
C460   C27     1.337   1_565 S
C460   H112    1.088   1_565 S
C462   O493    1.290   .     A
H464   C89     1.088   1_565 S
H465   N485    1.029   .     S
H466   N486    1.026   .     S
H479   C503    1.081   .     S
H480   C501    1.083   .     S
N485   Zn496   2.013   .     S
N485   N486    1.280   .     D
N486   Zn495   2.013   .     S
O487   Zn495   1.955   .     S
O487   C497    1.274   .     S
O488   Zn496   1.955   .     S
O489   Zn496   1.979   .     S
O490   Zn495   1.979   .     S
O491   Zn495   2.008   .     S
O491   C524    1.299   .     S
O492   Zn496   2.008   .     S
O493   Zn496   2.006   .     S
O494   Zn495   2.006   .     S
C497   O551    1.286   .     A
C497   C522    1.402   .     S
C498   C500    1.467   .     S
C498   O556    1.285   .     A
C498   O430    1.307   1_655 S
C499   C505    1.409   .     A
C499   C524    1.466   .     S
C499   C503    1.407   .     A
C500   C506    1.432   .     A
C500   C380    1.403   1_655 S
C501   C510    1.404   .     A
C501   C503    1.403   .     A
C502   C511    1.394   .     A
C502   C380    1.384   1_655 S
C502   H419    1.084   1_655 S
C504   H540    1.083   .     S
C505   C516    1.526   .     S
C505   C507    1.383   .     A
C506   C514    1.542   .     S
C506   C509    1.416   .     A
C507   C510    1.407   .     A
C507   C512    1.407   .     A
C508   O552    1.285   .     A
C508   C523    1.403   .     S
C508   O426    1.275   1_655 S
C509   C513    1.419   .     A
C509   C511    1.419   .     A
C510   C1078   1.392   .     S
C511   C1079   1.392   1_554 S
C512   C519    1.412   .     A
C512   C1071   1.402   .     S
C513   C518    1.414   .     A
C513   C1070   1.402   1_554 S
C514   H533    1.109   .     S
C514   C515    1.542   .     S
C514   H532    1.109   .     S
C515   H531    1.111   .     S
C515   H529    1.100   .     S
C515   H530    1.112   .     S
C516   H538    1.110   .     S
C516   H539    1.099   .     S
C516   C517    1.529   .     S
C517   H535    1.111   .     S
C517   H537    1.110   .     S
C517   H534    1.104   .     S
C518   H544    1.073   .     S
C518   C520    1.396   .     A
C519   H545    1.082   .     S
C519   C521    1.385   .     A
C520   H525    1.083   .     S
C520   C1068   1.392   1_554 S
C521   H536    1.084   .     S
C521   C1069   1.392   .     S
C522   C89     1.337   1_565 S
C522   H174    1.088   1_565 S
C523   C212    1.337   1_655 S
C524   O555    1.290   .     A
H526   C151    1.088   1_565 S
H527   N547    1.029   .     S
H528   N548    1.026   .     S
H541   C379    1.081   1_655 S
H542   C377    1.083   1_655 S
N547   Zn558   2.013   .     S
N547   N548    1.280   .     D
N548   Zn557   2.013   .     S
O549   Zn557   1.955   .     S
O549   C373    1.274   1_655 S
O550   Zn558   1.955   .     S
O551   Zn558   1.979   .     S
O552   Zn557   1.979   .     S
O553   Zn557   2.008   .     S
O553   C400    1.299   1_655 S
O554   Zn558   2.008   .     S
O555   Zn558   2.006   .     S
O556   Zn557   2.006   .     S
C559   O613    1.286   .     A
C559   C584    1.402   .     S
C559   O735    1.274   1_455 S
C560   C562    1.467   .     S
C560   O618    1.285   .     A
C560   O678    1.307   .     S
C561   C567    1.409   .     A
C561   C586    1.466   .     S
C561   C565    1.407   .     A
C562   C568    1.432   .     A
C562   C628    1.403   .     S
C563   C572    1.404   .     A
C563   C565    1.403   .     A
C563   H728    1.083   1_455 S
C564   C573    1.394   .     A
C564   C628    1.384   .     S
C564   H667    1.084   .     S
C565   H727    1.081   1_455 S
C566   H602    1.083   .     S
C566   C688    1.384   1_455 S
C566   C686    1.403   1_455 S
C567   C578    1.526   .     S
C567   C569    1.383   .     A
C568   C576    1.542   .     S
C568   C571    1.416   .     A
C569   C572    1.407   .     A
C569   C574    1.407   .     A
C570   O614    1.285   .     A
C570   C585    1.403   .     S
C570   O674    1.275   .     S
C571   C575    1.419   .     A
C571   C573    1.419   .     A
C572   C24     1.392   1_556 S
C574   C581    1.412   .     A
C574   C17     1.402   1_556 S
C575   C580    1.414   .     A
C576   H595    1.109   .     S
C576   C577    1.542   .     S
C576   H594    1.109   .     S
C577   H593    1.111   .     S
C577   H591    1.100   .     S
C577   H592    1.112   .     S
C578   H600    1.110   .     S
C578   H601    1.099   .     S
C578   C579    1.529   .     S
C579   H597    1.111   .     S
C579   H599    1.110   .     S
C579   H596    1.104   .     S
C580   H606    1.073   .     S
C580   C582    1.396   .     A
C581   H607    1.082   .     S
C581   C583    1.385   .     A
C582   H587    1.083   .     S
C583   H598    1.084   .     S
C583   C15     1.392   1_556 S
C584   C895    1.337   1_455 S
C584   H794    1.088   .     S
C585   C1018   1.337   1_545 S
C585   H960    1.088   1_545 S
C586   O617    1.290   .     A
C586   O739    1.299   1_455 S
H588   C771    1.088   .     S
H589   N609    1.029   .     S
H590   N610    1.026   .     S
H603   C627    1.081   .     S
H604   C625    1.083   .     S
H605   C688    1.084   1_455 S
H608   C956    1.088   1_545 S
N609   Zn620   2.013   .     S
N609   N610    1.280   .     D
N610   Zn619   2.013   .     S
O611   Zn619   1.955   .     S
O611   C621    1.274   .     S
O612   Zn620   1.955   .     S
O612   C694    1.275   1_455 S
O613   Zn620   1.979   .     S
O614   Zn619   1.979   .     S
O615   Zn619   2.008   .     S
O615   C648    1.299   .     S
O616   Zn620   2.008   .     S
O616   C684    1.307   1_455 S
O617   Zn620   2.006   .     S
O618   Zn619   2.006   .     S
C621   O675    1.286   .     A
C621   C646    1.402   .     S
C622   C624    1.467   .     S
C622   O680    1.285   .     A
C622   O740    1.307   .     S
C623   C629    1.409   .     A
C623   C648    1.466   .     S
C623   C627    1.407   .     A
C624   C630    1.432   .     A
C624   C690    1.403   .     S
C625   C634    1.404   .     A
C625   C627    1.403   .     A
C626   C635    1.394   .     A
C626   C690    1.384   .     S
C626   H729    1.084   .     S
C628   H664    1.083   .     S
C629   C640    1.526   .     S
C629   C631    1.383   .     A
C630   C638    1.542   .     S
C630   C633    1.416   .     A
C631   C634    1.407   .     A
C631   C636    1.407   .     A
C632   O676    1.285   .     A
C632   C647    1.403   .     S
C632   O736    1.275   .     S
C633   C637    1.419   .     A
C633   C635    1.419   .     A
C634   C86     1.392   1_556 S
C636   C643    1.412   .     A
C636   C79     1.402   1_556 S
C637   C642    1.414   .     A
C638   H657    1.109   .     S
C638   C639    1.542   .     S
C638   H656    1.109   .     S
C639   H655    1.111   .     S
C639   H653    1.100   .     S
C639   H654    1.112   .     S
C640   H662    1.110   .     S
C640   H663    1.099   .     S
C640   C641    1.529   .     S
C641   H659    1.111   .     S
C641   H661    1.110   .     S
C641   H658    1.104   .     S
C642   H668    1.073   .     S
C642   C644    1.396   .     A
C643   H669    1.082   .     S
C643   C645    1.385   .     A
C644   H649    1.083   .     S
C645   H660    1.084   .     S
C645   C77     1.392   1_556 S
C646   C771    1.337   .     S
C646   H856    1.088   .     S
C647   C1080   1.337   1_545 S
C647   H1022   1.088   1_545 S
C648   O679    1.290   .     A
H650   C833    1.088   .     S
H651   N671    1.029   .     S
H652   N672    1.026   .     S
H665   C689    1.081   .     S
H666   C687    1.083   .     S
H670   C1018   1.088   1_545 S
N671   Zn682   2.013   .     S
N671   N672    1.280   .     D
N672   Zn681   2.013   .     S
O673   Zn681   1.955   .     S
O673   C683    1.274   .     S
O674   Zn682   1.955   .     S
O675   Zn682   1.979   .     S
O676   Zn681   1.979   .     S
O677   Zn681   2.008   .     S
O677   C710    1.299   .     S
O678   Zn682   2.008   .     S
O679   Zn682   2.006   .     S
O680   Zn681   2.006   .     S
C683   O737    1.286   .     A
C683   C708    1.402   .     S
C684   C686    1.467   .     S
C684   O742    1.285   .     A
C684   O616    1.307   1_655 S
C685   C691    1.409   .     A
C685   C710    1.466   .     S
C685   C689    1.407   .     A
C686   C692    1.432   .     A
C686   C566    1.403   1_655 S
C687   C696    1.404   .     A
C687   C689    1.403   .     A
C688   C697    1.394   .     A
C688   C566    1.384   1_655 S
C688   H605    1.084   1_655 S
C690   H726    1.083   .     S
C691   C702    1.526   .     S
C691   C693    1.383   .     A
C692   C700    1.542   .     S
C692   C695    1.416   .     A
C693   C696    1.407   .     A
C693   C698    1.407   .     A
C694   O738    1.285   .     A
C694   C709    1.403   .     S
C694   O612    1.275   1_655 S
C695   C699    1.419   .     A
C695   C697    1.419   .     A
C696   C148    1.392   1_556 S
C698   C705    1.412   .     A
C698   C141    1.402   1_556 S
C699   C704    1.414   .     A
C700   H719    1.109   .     S
C700   C701    1.542   .     S
C700   H718    1.109   .     S
C701   H717    1.111   .     S
C701   H715    1.100   .     S
C701   H716    1.112   .     S
C702   H724    1.110   .     S
C702   H725    1.099   .     S
C702   C703    1.529   .     S
C703   H721    1.111   .     S
C703   H723    1.110   .     S
C703   H720    1.104   .     S
C704   H730    1.073   .     S
C704   C706    1.396   .     A
C705   H731    1.082   .     S
C705   C707    1.385   .     A
C706   H711    1.083   .     S
C707   H722    1.084   .     S
C707   C139    1.392   1_556 S
C708   C833    1.337   .     S
C708   H918    1.088   .     S
C709   C956    1.337   1_645 S
C709   H1084   1.088   1_545 S
C710   O741    1.290   .     A
H712   C895    1.088   .     S
H713   N733    1.029   .     S
H714   N734    1.026   .     S
H727   C565    1.081   1_655 S
H728   C563    1.083   1_655 S
H732   C1080   1.088   1_545 S
N733   Zn744   2.013   .     S
N733   N734    1.280   .     D
N734   Zn743   2.013   .     S
O735   Zn743   1.955   .     S
O735   C559    1.274   1_655 S
O736   Zn744   1.955   .     S
O737   Zn744   1.979   .     S
O738   Zn743   1.979   .     S
O739   Zn743   2.008   .     S
O739   C586    1.299   1_655 S
O740   Zn744   2.008   .     S
O741   Zn744   2.006   .     S
O742   Zn743   2.006   .     S
C745   O799    1.286   .     A
C745   C770    1.402   .     S
C745   O921    1.274   1_455 S
C746   C748    1.467   .     S
C746   O804    1.285   .     A
C746   O864    1.307   .     S
C747   C753    1.409   .     A
C747   C772    1.466   .     S
C747   C751    1.407   .     A
C748   C754    1.432   .     A
C748   C814    1.403   .     S
C749   C758    1.404   .     A
C749   C751    1.403   .     A
C749   H914    1.083   1_455 S
C750   C759    1.394   .     A
C750   C814    1.384   .     S
C750   H853    1.084   .     S
C751   H913    1.081   1_455 S
C752   H788    1.083   .     S
C752   C874    1.384   1_455 S
C752   C872    1.403   1_455 S
C753   C764    1.526   .     S
C753   C755    1.383   .     A
C754   C762    1.542   .     S
C754   C757    1.416   .     A
C755   C758    1.407   .     A
C755   C760    1.407   .     A
C756   O800    1.285   .     A
C756   C771    1.403   .     S
C756   O860    1.275   .     S
C757   C761    1.419   .     A
C757   C759    1.419   .     A
C758   C210    1.392   1_556 S
C760   C767    1.412   .     A
C760   C203    1.402   1_556 S
C761   C766    1.414   .     A
C762   H781    1.109   .     S
C762   C763    1.542   .     S
C762   H780    1.109   .     S
C763   H779    1.111   .     S
C763   H777    1.100   .     S
C763   H778    1.112   .     S
C764   H786    1.110   .     S
C764   H787    1.099   .     S
C764   C765    1.529   .     S
C765   H783    1.111   .     S
C765   H785    1.110   .     S
C765   H782    1.104   .     S
C766   H792    1.073   .     S
C766   C768    1.396   .     A
C767   H793    1.082   .     S
C767   C769    1.385   .     A
C768   H773    1.083   .     S
C769   H784    1.084   .     S
C769   C201    1.392   1_556 S
C770   C1081   1.337   1_455 S
C770   H980    1.088   .     S
C772   O803    1.290   .     A
C772   O925    1.299   1_455 S
H774   C957    1.088   .     S
H775   N795    1.029   .     S
H776   N796    1.026   .     S
H789   C813    1.081   .     S
H790   C811    1.083   .     S
H791   C874    1.084   1_455 S
N795   Zn806   2.013   .     S
N795   N796    1.280   .     D
N796   Zn805   2.013   .     S
O797   Zn805   1.955   .     S
O797   C807    1.274   .     S
O798   Zn806   1.955   .     S
O798   C880    1.275   1_455 S
O799   Zn806   1.979   .     S
O800   Zn805   1.979   .     S
O801   Zn805   2.008   .     S
O801   C834    1.299   .     S
O802   Zn806   2.008   .     S
O802   C870    1.307   1_455 S
O803   Zn806   2.006   .     S
O804   Zn805   2.006   .     S
C807   O861    1.286   .     A
C807   C832    1.402   .     S
C808   C810    1.467   .     S
C808   O866    1.285   .     A
C808   O926    1.307   .     S
C809   C815    1.409   .     A
C809   C834    1.466   .     S
C809   C813    1.407   .     A
C810   C816    1.432   .     A
C810   C876    1.403   .     S
C811   C820    1.404   .     A
C811   C813    1.403   .     A
C812   C821    1.394   .     A
C812   C876    1.384   .     S
C812   H915    1.084   .     S
C814   H850    1.083   .     S
C815   C826    1.526   .     S
C815   C817    1.383   .     A
C816   C824    1.542   .     S
C816   C819    1.416   .     A
C817   C820    1.407   .     A
C817   C822    1.407   .     A
C818   O862    1.285   .     A
C818   C833    1.403   .     S
C818   O922    1.275   .     S
C819   C823    1.419   .     A
C819   C821    1.419   .     A
C820   C272    1.392   1_556 S
C822   C829    1.412   .     A
C822   C265    1.402   1_556 S
C823   C828    1.414   .     A
C824   H843    1.109   .     S
C824   C825    1.542   .     S
C824   H842    1.109   .     S
C825   H841    1.111   .     S
C825   H839    1.100   .     S
C825   H840    1.112   .     S
C826   H848    1.110   .     S
C826   H849    1.099   .     S
C826   C827    1.529   .     S
C827   H845    1.111   .     S
C827   H847    1.110   .     S
C827   H844    1.104   .     S
C828   H854    1.073   .     S
C828   C830    1.396   .     A
C829   H855    1.082   .     S
C829   C831    1.385   .     A
C830   H835    1.083   .     S
C831   H846    1.084   .     S
C831   C263    1.392   1_556 S
C832   C957    1.337   .     S
C832   H1042   1.088   .     S
C834   O865    1.290   .     A
H836   C1019   1.088   .     S
H837   N857    1.029   .     S
H838   N858    1.026   .     S
H851   C875    1.081   .     S
H852   C873    1.083   .     S
N857   Zn868   2.013   .     S
N857   N858    1.280   .     D
N858   Zn867   2.013   .     S
O859   Zn867   1.955   .     S
O859   C869    1.274   .     S
O860   Zn868   1.955   .     S
O861   Zn868   1.979   .     S
O862   Zn867   1.979   .     S
O863   Zn867   2.008   .     S
O863   C896    1.299   .     S
O864   Zn868   2.008   .     S
O865   Zn868   2.006   .     S
O866   Zn867   2.006   .     S
C869   O923    1.286   .     A
C869   C894    1.402   .     S
C870   C872    1.467   .     S
C870   O928    1.285   .     A
C870   O802    1.307   1_655 S
C871   C877    1.409   .     A
C871   C896    1.466   .     S
C871   C875    1.407   .     A
C872   C878    1.432   .     A
C872   C752    1.403   1_655 S
C873   C882    1.404   .     A
C873   C875    1.403   .     A
C874   C883    1.394   .     A
C874   C752    1.384   1_655 S
C874   H791    1.084   1_655 S
C876   H912    1.083   .     S
C877   C888    1.526   .     S
C877   C879    1.383   .     A
C878   C886    1.542   .     S
C878   C881    1.416   .     A
C879   C882    1.407   .     A
C879   C884    1.407   .     A
C880   O924    1.285   .     A
C880   C895    1.403   .     S
C880   O798    1.275   1_655 S
C881   C885    1.419   .     A
C881   C883    1.419   .     A
C882   C334    1.392   1_556 S
C884   C891    1.412   .     A
C884   C327    1.402   1_556 S
C885   C890    1.414   .     A
C886   H905    1.109   .     S
C886   C887    1.542   .     S
C886   H904    1.109   .     S
C887   H903    1.111   .     S
C887   H901    1.100   .     S
C887   H902    1.112   .     S
C888   H910    1.110   .     S
C888   H911    1.099   .     S
C888   C889    1.529   .     S
C889   H907    1.111   .     S
C889   H909    1.110   .     S
C889   H906    1.104   .     S
C890   H916    1.073   .     S
C890   C892    1.396   .     A
C891   H917    1.082   .     S
C891   C893    1.385   .     A
C892   H897    1.083   .     S
C893   H908    1.084   .     S
C893   C325    1.392   1_556 S
C894   C1019   1.337   .     S
C894   H1104   1.088   .     S
C895   C584    1.337   1_655 S
C896   O927    1.290   .     A
H898   C1081   1.088   .     S
H899   N919    1.029   .     S
H900   N920    1.026   .     S
H913   C751    1.081   1_655 S
H914   C749    1.083   1_655 S
N919   Zn930   2.013   .     S
N919   N920    1.280   .     D
N920   Zn929   2.013   .     S
O921   Zn929   1.955   .     S
O921   C745    1.274   1_655 S
O922   Zn930   1.955   .     S
O923   Zn930   1.979   .     S
O924   Zn929   1.979   .     S
O925   Zn929   2.008   .     S
O925   C772    1.299   1_655 S
O926   Zn930   2.008   .     S
O927   Zn930   2.006   .     S
O928   Zn929   2.006   .     S
C931   O985    1.286   .     A
C931   C956    1.402   .     S
C931   O1107   1.274   1_455 S
C932   C934    1.467   .     S
C932   O990    1.285   .     A
C932   O1050   1.307   .     S
C933   C939    1.409   .     A
C933   C958    1.466   .     S
C933   C937    1.407   .     A
C934   C940    1.432   .     A
C934   C1000   1.403   .     S
C935   C944    1.404   .     A
C935   C937    1.403   .     A
C935   H1100   1.083   1_455 S
C936   C945    1.394   .     A
C936   C1000   1.384   .     S
C936   H1039   1.084   .     S
C937   H1099   1.081   1_455 S
C938   H974    1.083   .     S
C938   C1060   1.384   1_455 S
C938   C1058   1.403   1_455 S
C939   C950    1.526   .     S
C939   C941    1.383   .     A
C940   C948    1.542   .     S
C940   C943    1.416   .     A
C941   C944    1.407   .     A
C941   C946    1.407   .     A
C942   O986    1.285   .     A
C942   C957    1.403   .     S
C942   O1046   1.275   .     S
C943   C947    1.419   .     A
C943   C945    1.419   .     A
C944   C396    1.392   1_556 S
C946   C953    1.412   .     A
C946   C389    1.402   1_556 S
C947   C952    1.414   .     A
C948   H967    1.109   .     S
C948   C949    1.542   .     S
C948   H966    1.109   .     S
C949   H965    1.111   .     S
C949   H963    1.100   .     S
C949   H964    1.112   .     S
C950   H972    1.110   .     S
C950   H973    1.099   .     S
C950   C951    1.529   .     S
C951   H969    1.111   .     S
C951   H971    1.110   .     S
C951   H968    1.104   .     S
C952   H978    1.073   .     S
C952   C954    1.396   .     A
C953   H979    1.082   .     S
C953   C955    1.385   .     A
C954   H959    1.083   .     S
C955   H970    1.084   .     S
C955   C387    1.392   1_556 S
C956   C709    1.337   1_465 S
C956   H608    1.088   1_565 S
C958   O989    1.290   .     A
C958   O1111   1.299   1_455 S
H960   C585    1.088   1_565 S
H961   N981    1.029   .     S
H962   N982    1.026   .     S
H975   C999    1.081   .     S
H976   C997    1.083   .     S
H977   C1060   1.084   1_455 S
N981   Zn992   2.013   .     S
N981   N982    1.280   .     D
N982   Zn991   2.013   .     S
O983   Zn991   1.955   .     S
O983   C993    1.274   .     S
O984   Zn992   1.955   .     S
O984   C1066   1.275   1_455 S
O985   Zn992   1.979   .     S
O986   Zn991   1.979   .     S
O987   Zn991   2.008   .     S
O987   C1020   1.299   .     S
O988   Zn992   2.008   .     S
O988   C1056   1.307   1_455 S
O989   Zn992   2.006   .     S
O990   Zn991   2.006   .     S
C993   O1047   1.286   .     A
C993   C1018   1.402   .     S
C994   C996    1.467   .     S
C994   O1052   1.285   .     A
C994   O1112   1.307   .     S
C995   C1001   1.409   .     A
C995   C1020   1.466   .     S
C995   C999    1.407   .     A
C996   C1002   1.432   .     A
C996   C1062   1.403   .     S
C997   C1006   1.404   .     A
C997   C999    1.403   .     A
C998   C1007   1.394   .     A
C998   C1062   1.384   .     S
C998   H1101   1.084   .     S
C1000  H1036   1.083   .     S
C1001  C1012   1.526   .     S
C1001  C1003   1.383   .     A
C1002  C1010   1.542   .     S
C1002  C1005   1.416   .     A
C1003  C1006   1.407   .     A
C1003  C1008   1.407   .     A
C1004  O1048   1.285   .     A
C1004  C1019   1.403   .     S
C1004  O1108   1.275   .     S
C1005  C1009   1.419   .     A
C1005  C1007   1.419   .     A
C1006  C458    1.392   1_556 S
C1008  C1015   1.412   .     A
C1008  C451    1.402   1_556 S
C1009  C1014   1.414   .     A
C1010  H1029   1.109   .     S
C1010  C1011   1.542   .     S
C1010  H1028   1.109   .     S
C1011  H1027   1.111   .     S
C1011  H1025   1.100   .     S
C1011  H1026   1.112   .     S
C1012  H1034   1.110   .     S
C1012  H1035   1.099   .     S
C1012  C1013   1.529   .     S
C1013  H1031   1.111   .     S
C1013  H1033   1.110   .     S
C1013  H1030   1.104   .     S
C1014  H1040   1.073   .     S
C1014  C1016   1.396   .     A
C1015  H1041   1.082   .     S
C1015  C1017   1.385   .     A
C1016  H1021   1.083   .     S
C1017  H1032   1.084   .     S
C1017  C449    1.392   1_556 S
C1018  C585    1.337   1_565 S
C1018  H670    1.088   1_565 S
C1020  O1051   1.290   .     A
H1022  C647    1.088   1_565 S
H1023  N1043   1.029   .     S
H1024  N1044   1.026   .     S
H1037  C1061   1.081   .     S
H1038  C1059   1.083   .     S
N1043  Zn1054  2.013   .     S
N1043  N1044   1.280   .     D
N1044  Zn1053  2.013   .     S
O1045  Zn1053  1.955   .     S
O1045  C1055   1.274   .     S
O1046  Zn1054  1.955   .     S
O1047  Zn1054  1.979   .     S
O1048  Zn1053  1.979   .     S
O1049  Zn1053  2.008   .     S
O1049  C1082   1.299   .     S
O1050  Zn1054  2.008   .     S
O1051  Zn1054  2.006   .     S
O1052  Zn1053  2.006   .     S
C1055  O1109   1.286   .     A
C1055  C1080   1.402   .     S
C1056  C1058   1.467   .     S
C1056  O1114   1.285   .     A
C1056  O988    1.307   1_655 S
C1057  C1063   1.409   .     A
C1057  C1082   1.466   .     S
C1057  C1061   1.407   .     A
C1058  C1064   1.432   .     A
C1058  C938    1.403   1_655 S
C1059  C1068   1.404   .     A
C1059  C1061   1.403   .     A
C1060  C1069   1.394   .     A
C1060  C938    1.384   1_655 S
C1060  H977    1.084   1_655 S
C1062  H1098   1.083   .     S
C1063  C1074   1.526   .     S
C1063  C1065   1.383   .     A
C1064  C1072   1.542   .     S
C1064  C1067   1.416   .     A
C1065  C1068   1.407   .     A
C1065  C1070   1.407   .     A
C1066  O1110   1.285   .     A
C1066  C1081   1.403   .     S
C1066  O984    1.275   1_655 S
C1067  C1071   1.419   .     A
C1067  C1069   1.419   .     A
C1068  C520    1.392   1_556 S
C1070  C1077   1.412   .     A
C1070  C513    1.402   1_556 S
C1071  C1076   1.414   .     A
C1072  H1091   1.109   .     S
C1072  C1073   1.542   .     S
C1072  H1090   1.109   .     S
C1073  H1089   1.111   .     S
C1073  H1087   1.100   .     S
C1073  H1088   1.112   .     S
C1074  H1096   1.110   .     S
C1074  H1097   1.099   .     S
C1074  C1075   1.529   .     S
C1075  H1093   1.111   .     S
C1075  H1095   1.110   .     S
C1075  H1092   1.104   .     S
C1076  H1102   1.073   .     S
C1076  C1078   1.396   .     A
C1077  H1103   1.082   .     S
C1077  C1079   1.385   .     A
C1078  H1083   1.083   .     S
C1079  H1094   1.084   .     S
C1079  C511    1.392   1_556 S
C1080  C647    1.337   1_565 S
C1080  H732    1.088   1_565 S
C1081  C770    1.337   1_655 S
C1082  O1113   1.290   .     A
H1084  C709    1.088   1_565 S
H1085  N1105   1.029   .     S
H1086  N1106   1.026   .     S
H1099  C937    1.081   1_655 S
H1100  C935    1.083   1_655 S
N1105  Zn1116  2.013   .     S
N1105  N1106   1.280   .     D
N1106  Zn1115  2.013   .     S
O1107  Zn1115  1.955   .     S
O1107  C931    1.274   1_655 S
O1108  Zn1116  1.955   .     S
O1109  Zn1116  1.979   .     S
O1110  Zn1115  1.979   .     S
O1111  Zn1115  2.008   .     S
O1111  C958    1.299   1_655 S
O1112  Zn1116  2.008   .     S
O1113  Zn1116  2.006   .     S
O1114  Zn1115  2.006   .     S
