data_str_m2_o5_o17_pcu_sym.13
_audit_creation_date              2020-01-03
_audit_creation_method            'Materials Studio'
_symmetry_space_group_name_H-M    'P1'
_symmetry_Int_Tables_number       1
_symmetry_cell_setting            triclinic
loop_
_symmetry_equiv_pos_as_xyz
  x,y,z
_cell_length_a                    30.2528
_cell_length_b                    27.4118
_cell_length_c                    23.3719
_cell_angle_alpha                 89.9866
_cell_angle_beta                  90.0688
_cell_angle_gamma                 89.8470
loop_
_atom_site_label
_atom_site_type_symbol
_atom_site_fract_x
_atom_site_fract_y
_atom_site_fract_z
_atom_site_U_iso_or_equiv
_atom_site_adp_type
_atom_site_occupancy
O1     O     0.25000   0.09613   0.21425   0.00000  Uiso   1.00
O2     O     0.25000   0.23720   0.11908   0.00000  Uiso   1.00
O3     O     0.25000   0.23720   0.21425   0.00000  Uiso   1.00
O4     O     0.25000   0.09613   0.11908   0.00000  Uiso   1.00
H5     H     0.46082   0.04300   0.15900   0.00000  Uiso   1.00
H6     H     0.03935   0.28979   0.17043   0.00000  Uiso   1.00
H7     H     0.46066   0.28996   0.17554   0.00000  Uiso   1.00
H8     H     0.03954   0.04272   0.16343   0.00000  Uiso   1.00
C9     C     0.25038   0.07333   0.16670   0.00000  Uiso   1.00
C10    C     0.24969   0.26000   0.16669   0.00000  Uiso   1.00
O11    O     0.18513   0.16667   0.21427   0.00000  Uiso   1.00
O12    O     0.31487   0.16667   0.11907   0.00000  Uiso   1.00
O13    O     0.31487   0.16667   0.21427   0.00000  Uiso   1.00
O14    O     0.18513   0.16667   0.11907   0.00000  Uiso   1.00
C15    C     0.16435   0.16671   0.16661   0.00000  Uiso   1.00
C16    C     0.33565   0.16653   0.16669   0.00000  Uiso   1.00
Cu17   Cu    0.25000   0.16667   0.22303   0.00000  Uiso   1.00
Cu18   Cu    0.25000   0.16667   0.11031   0.00000  Uiso   1.00
N19    N     0.25000   0.16667   0.02561   0.00000  Uiso   1.00
N20    N     0.25000   0.16667   0.30773   0.00000  Uiso   1.00
C21    C     0.40667   0.21080   0.17418   0.00000  Uiso   1.00
C22    C     0.09341   0.12177   0.17048   0.00000  Uiso   1.00
C23    C     0.40695   0.12228   0.15930   0.00000  Uiso   1.00
C24    C     0.09288   0.21086   0.16173   0.00000  Uiso   1.00
C25    C     0.38390   0.16651   0.16684   0.00000  Uiso   1.00
C26    C     0.11610   0.16647   0.16648   0.00000  Uiso   1.00
C27    C     0.45341   0.12186   0.16302   0.00000  Uiso   1.00
C28    C     0.04653   0.21098   0.16648   0.00000  Uiso   1.00
C29    C     0.45324   0.21103   0.17251   0.00000  Uiso   1.00
C30    C     0.04682   0.12154   0.16846   0.00000  Uiso   1.00
C31    C     0.47660   0.16636   0.16837   0.00000  Uiso   1.00
C32    C     0.02339   0.16628   0.16827   0.00000  Uiso   1.00
C33    C     0.47729   0.07786   0.16175   0.00000  Uiso   1.00
C34    C     0.02275   0.25494   0.16967   0.00000  Uiso   1.00
C35    C     0.47705   0.25497   0.17338   0.00000  Uiso   1.00
C36    C     0.02305   0.07767   0.16510   0.00000  Uiso   1.00
C37    C     0.25026   0.02176   0.16681   0.00000  Uiso   1.00
C38    C     0.24981   0.31157   0.16679   0.00000  Uiso   1.00
C39    C     0.38132   0.25682   0.18064   0.00000  Uiso   1.00
O40    O     0.38606   0.28201   0.22338   0.00000  Uiso   1.00
O41    O     0.35205   0.27105   0.13755   0.00000  Uiso   1.00
H42    H     0.33705   0.30312   0.14656   0.00000  Uiso   1.00
C43    C     0.11887   0.07556   0.17409   0.00000  Uiso   1.00
O44    O     0.11321   0.04773   0.21432   0.00000  Uiso   1.00
O45    O     0.14934   0.06422   0.13132   0.00000  Uiso   1.00
H46    H     0.16467   0.03199   0.13854   0.00000  Uiso   1.00
C47    C     0.38249   0.07724   0.14427   0.00000  Uiso   1.00
O48    O     0.35396   0.06149   0.17624   0.00000  Uiso   1.00
O49    O     0.39209   0.05347   0.09282   0.00000  Uiso   1.00
H50    H     0.37226   0.02447   0.08543   0.00000  Uiso   1.00
C51    C     0.11666   0.25627   0.14647   0.00000  Uiso   1.00
O52    O     0.14660   0.27142   0.17670   0.00000  Uiso   1.00
O53    O     0.10457   0.28112   0.09657   0.00000  Uiso   1.00
H54    H     0.12413   0.31010   0.08820   0.00000  Uiso   1.00
O55    O     0.75000   0.09613   0.21425   0.00000  Uiso   1.00
O56    O     0.75000   0.23720   0.11908   0.00000  Uiso   1.00
O57    O     0.75000   0.23720   0.21425   0.00000  Uiso   1.00
O58    O     0.75000   0.09613   0.11908   0.00000  Uiso   1.00
H59    H     0.96082   0.04300   0.15900   0.00000  Uiso   1.00
H60    H     0.53935   0.28979   0.17043   0.00000  Uiso   1.00
H61    H     0.96066   0.28996   0.17554   0.00000  Uiso   1.00
H62    H     0.53954   0.04272   0.16343   0.00000  Uiso   1.00
C63    C     0.75038   0.07333   0.16670   0.00000  Uiso   1.00
C64    C     0.74969   0.26000   0.16669   0.00000  Uiso   1.00
O65    O     0.68513   0.16667   0.21427   0.00000  Uiso   1.00
O66    O     0.81487   0.16667   0.11907   0.00000  Uiso   1.00
O67    O     0.81487   0.16667   0.21427   0.00000  Uiso   1.00
O68    O     0.68513   0.16667   0.11907   0.00000  Uiso   1.00
C69    C     0.66435   0.16671   0.16661   0.00000  Uiso   1.00
C70    C     0.83565   0.16653   0.16669   0.00000  Uiso   1.00
Cu71   Cu    0.75000   0.16667   0.22303   0.00000  Uiso   1.00
Cu72   Cu    0.75000   0.16667   0.11031   0.00000  Uiso   1.00
N73    N     0.75000   0.16667   0.02561   0.00000  Uiso   1.00
N74    N     0.75000   0.16667   0.30773   0.00000  Uiso   1.00
C75    C     0.90667   0.21080   0.17418   0.00000  Uiso   1.00
C76    C     0.59341   0.12177   0.17048   0.00000  Uiso   1.00
C77    C     0.90695   0.12228   0.15930   0.00000  Uiso   1.00
C78    C     0.59288   0.21086   0.16173   0.00000  Uiso   1.00
C79    C     0.88390   0.16651   0.16684   0.00000  Uiso   1.00
C80    C     0.61610   0.16647   0.16648   0.00000  Uiso   1.00
C81    C     0.95341   0.12186   0.16302   0.00000  Uiso   1.00
C82    C     0.54653   0.21098   0.16648   0.00000  Uiso   1.00
C83    C     0.95324   0.21103   0.17251   0.00000  Uiso   1.00
C84    C     0.54682   0.12154   0.16846   0.00000  Uiso   1.00
C85    C     0.97660   0.16636   0.16837   0.00000  Uiso   1.00
C86    C     0.52339   0.16628   0.16827   0.00000  Uiso   1.00
C87    C     0.97729   0.07786   0.16175   0.00000  Uiso   1.00
C88    C     0.52275   0.25494   0.16967   0.00000  Uiso   1.00
C89    C     0.97705   0.25497   0.17338   0.00000  Uiso   1.00
C90    C     0.52305   0.07767   0.16510   0.00000  Uiso   1.00
C91    C     0.75026   0.02176   0.16681   0.00000  Uiso   1.00
C92    C     0.74981   0.31157   0.16679   0.00000  Uiso   1.00
C93    C     0.88132   0.25682   0.18064   0.00000  Uiso   1.00
O94    O     0.88606   0.28201   0.22338   0.00000  Uiso   1.00
O95    O     0.85205   0.27105   0.13755   0.00000  Uiso   1.00
H96    H     0.83705   0.30312   0.14656   0.00000  Uiso   1.00
C97    C     0.61887   0.07556   0.17409   0.00000  Uiso   1.00
O98    O     0.61321   0.04773   0.21432   0.00000  Uiso   1.00
O99    O     0.64934   0.06422   0.13132   0.00000  Uiso   1.00
H100   H     0.66467   0.03199   0.13854   0.00000  Uiso   1.00
C101   C     0.88249   0.07724   0.14427   0.00000  Uiso   1.00
O102   O     0.85396   0.06149   0.17624   0.00000  Uiso   1.00
O103   O     0.89209   0.05347   0.09282   0.00000  Uiso   1.00
H104   H     0.87226   0.02447   0.08543   0.00000  Uiso   1.00
C105   C     0.61666   0.25627   0.14647   0.00000  Uiso   1.00
O106   O     0.64660   0.27142   0.17670   0.00000  Uiso   1.00
O107   O     0.60457   0.28112   0.09657   0.00000  Uiso   1.00
H108   H     0.62413   0.31010   0.08820   0.00000  Uiso   1.00
O109   O     0.25000   0.42946   0.21425   0.00000  Uiso   1.00
O110   O     0.25000   0.57054   0.11908   0.00000  Uiso   1.00
O111   O     0.25000   0.57054   0.21425   0.00000  Uiso   1.00
O112   O     0.25000   0.42946   0.11908   0.00000  Uiso   1.00
H113   H     0.46082   0.37633   0.15900   0.00000  Uiso   1.00
H114   H     0.03935   0.62312   0.17043   0.00000  Uiso   1.00
H115   H     0.46066   0.62330   0.17554   0.00000  Uiso   1.00
H116   H     0.03954   0.37605   0.16343   0.00000  Uiso   1.00
C117   C     0.25038   0.40666   0.16670   0.00000  Uiso   1.00
C118   C     0.24969   0.59334   0.16669   0.00000  Uiso   1.00
O119   O     0.18513   0.50000   0.21427   0.00000  Uiso   1.00
O120   O     0.31487   0.50000   0.11907   0.00000  Uiso   1.00
O121   O     0.31487   0.50000   0.21427   0.00000  Uiso   1.00
O122   O     0.18513   0.50000   0.11907   0.00000  Uiso   1.00
C123   C     0.16435   0.50005   0.16661   0.00000  Uiso   1.00
C124   C     0.33565   0.49987   0.16669   0.00000  Uiso   1.00
Cu125  Cu    0.25000   0.50000   0.22303   0.00000  Uiso   1.00
Cu126  Cu    0.25000   0.50000   0.11031   0.00000  Uiso   1.00
N127   N     0.25000   0.50000   0.02561   0.00000  Uiso   1.00
N128   N     0.25000   0.50000   0.30773   0.00000  Uiso   1.00
C129   C     0.40667   0.54414   0.17418   0.00000  Uiso   1.00
C130   C     0.09341   0.45510   0.17048   0.00000  Uiso   1.00
C131   C     0.40695   0.45561   0.15930   0.00000  Uiso   1.00
C132   C     0.09288   0.54419   0.16173   0.00000  Uiso   1.00
C133   C     0.38390   0.49984   0.16684   0.00000  Uiso   1.00
C134   C     0.11610   0.49980   0.16648   0.00000  Uiso   1.00
C135   C     0.45341   0.45519   0.16302   0.00000  Uiso   1.00
C136   C     0.04653   0.54431   0.16648   0.00000  Uiso   1.00
C137   C     0.45324   0.54436   0.17251   0.00000  Uiso   1.00
C138   C     0.04682   0.45487   0.16846   0.00000  Uiso   1.00
C139   C     0.47660   0.49970   0.16837   0.00000  Uiso   1.00
C140   C     0.02339   0.49961   0.16827   0.00000  Uiso   1.00
C141   C     0.47729   0.41119   0.16175   0.00000  Uiso   1.00
C142   C     0.02275   0.58827   0.16967   0.00000  Uiso   1.00
C143   C     0.47705   0.58830   0.17338   0.00000  Uiso   1.00
C144   C     0.02305   0.41100   0.16510   0.00000  Uiso   1.00
C145   C     0.25026   0.35509   0.16681   0.00000  Uiso   1.00
C146   C     0.24981   0.64491   0.16679   0.00000  Uiso   1.00
C147   C     0.38132   0.59016   0.18064   0.00000  Uiso   1.00
O148   O     0.38606   0.61534   0.22338   0.00000  Uiso   1.00
O149   O     0.35205   0.60438   0.13755   0.00000  Uiso   1.00
H150   H     0.33705   0.63645   0.14656   0.00000  Uiso   1.00
C151   C     0.11887   0.40889   0.17409   0.00000  Uiso   1.00
O152   O     0.11321   0.38107   0.21432   0.00000  Uiso   1.00
O153   O     0.14934   0.39755   0.13132   0.00000  Uiso   1.00
H154   H     0.16467   0.36532   0.13854   0.00000  Uiso   1.00
C155   C     0.38249   0.41057   0.14427   0.00000  Uiso   1.00
O156   O     0.35396   0.39482   0.17624   0.00000  Uiso   1.00
O157   O     0.39209   0.38681   0.09282   0.00000  Uiso   1.00
H158   H     0.37226   0.35781   0.08543   0.00000  Uiso   1.00
C159   C     0.11666   0.58961   0.14647   0.00000  Uiso   1.00
O160   O     0.14660   0.60476   0.17670   0.00000  Uiso   1.00
O161   O     0.10457   0.61445   0.09657   0.00000  Uiso   1.00
H162   H     0.12413   0.64343   0.08820   0.00000  Uiso   1.00
O163   O     0.75000   0.42946   0.21425   0.00000  Uiso   1.00
O164   O     0.75000   0.57054   0.11908   0.00000  Uiso   1.00
O165   O     0.75000   0.57054   0.21425   0.00000  Uiso   1.00
O166   O     0.75000   0.42946   0.11908   0.00000  Uiso   1.00
H167   H     0.96082   0.37633   0.15900   0.00000  Uiso   1.00
H168   H     0.53935   0.62312   0.17043   0.00000  Uiso   1.00
H169   H     0.96066   0.62330   0.17554   0.00000  Uiso   1.00
H170   H     0.53954   0.37605   0.16343   0.00000  Uiso   1.00
C171   C     0.75038   0.40666   0.16670   0.00000  Uiso   1.00
C172   C     0.74969   0.59334   0.16669   0.00000  Uiso   1.00
O173   O     0.68513   0.50000   0.21427   0.00000  Uiso   1.00
O174   O     0.81487   0.50000   0.11907   0.00000  Uiso   1.00
O175   O     0.81487   0.50000   0.21427   0.00000  Uiso   1.00
O176   O     0.68513   0.50000   0.11907   0.00000  Uiso   1.00
C177   C     0.66435   0.50005   0.16661   0.00000  Uiso   1.00
C178   C     0.83565   0.49987   0.16669   0.00000  Uiso   1.00
Cu179  Cu    0.75000   0.50000   0.22303   0.00000  Uiso   1.00
Cu180  Cu    0.75000   0.50000   0.11031   0.00000  Uiso   1.00
N181   N     0.75000   0.50000   0.02561   0.00000  Uiso   1.00
N182   N     0.75000   0.50000   0.30773   0.00000  Uiso   1.00
C183   C     0.90667   0.54414   0.17418   0.00000  Uiso   1.00
C184   C     0.59341   0.45510   0.17048   0.00000  Uiso   1.00
C185   C     0.90695   0.45561   0.15930   0.00000  Uiso   1.00
C186   C     0.59288   0.54419   0.16173   0.00000  Uiso   1.00
C187   C     0.88390   0.49984   0.16684   0.00000  Uiso   1.00
C188   C     0.61610   0.49980   0.16648   0.00000  Uiso   1.00
C189   C     0.95341   0.45519   0.16302   0.00000  Uiso   1.00
C190   C     0.54653   0.54431   0.16648   0.00000  Uiso   1.00
C191   C     0.95324   0.54436   0.17251   0.00000  Uiso   1.00
C192   C     0.54682   0.45487   0.16846   0.00000  Uiso   1.00
C193   C     0.97660   0.49970   0.16837   0.00000  Uiso   1.00
C194   C     0.52339   0.49961   0.16827   0.00000  Uiso   1.00
C195   C     0.97729   0.41119   0.16175   0.00000  Uiso   1.00
C196   C     0.52275   0.58827   0.16967   0.00000  Uiso   1.00
C197   C     0.97705   0.58830   0.17338   0.00000  Uiso   1.00
C198   C     0.52305   0.41100   0.16510   0.00000  Uiso   1.00
C199   C     0.75026   0.35509   0.16681   0.00000  Uiso   1.00
C200   C     0.74981   0.64491   0.16679   0.00000  Uiso   1.00
C201   C     0.88132   0.59016   0.18064   0.00000  Uiso   1.00
O202   O     0.88606   0.61534   0.22338   0.00000  Uiso   1.00
O203   O     0.85205   0.60438   0.13755   0.00000  Uiso   1.00
H204   H     0.83705   0.63645   0.14656   0.00000  Uiso   1.00
C205   C     0.61887   0.40889   0.17409   0.00000  Uiso   1.00
O206   O     0.61321   0.38107   0.21432   0.00000  Uiso   1.00
O207   O     0.64934   0.39755   0.13132   0.00000  Uiso   1.00
H208   H     0.66467   0.36532   0.13854   0.00000  Uiso   1.00
C209   C     0.88249   0.41057   0.14427   0.00000  Uiso   1.00
O210   O     0.85396   0.39482   0.17624   0.00000  Uiso   1.00
O211   O     0.89209   0.38681   0.09282   0.00000  Uiso   1.00
H212   H     0.87226   0.35781   0.08543   0.00000  Uiso   1.00
C213   C     0.61666   0.58961   0.14647   0.00000  Uiso   1.00
O214   O     0.64660   0.60476   0.17670   0.00000  Uiso   1.00
O215   O     0.60457   0.61445   0.09657   0.00000  Uiso   1.00
H216   H     0.62413   0.64343   0.08820   0.00000  Uiso   1.00
O217   O     0.25000   0.76280   0.21425   0.00000  Uiso   1.00
O218   O     0.25000   0.90387   0.11908   0.00000  Uiso   1.00
O219   O     0.25000   0.90387   0.21425   0.00000  Uiso   1.00
O220   O     0.25000   0.76280   0.11908   0.00000  Uiso   1.00
H221   H     0.46082   0.70967   0.15900   0.00000  Uiso   1.00
H222   H     0.03935   0.95645   0.17043   0.00000  Uiso   1.00
H223   H     0.46066   0.95663   0.17554   0.00000  Uiso   1.00
H224   H     0.03954   0.70939   0.16343   0.00000  Uiso   1.00
C225   C     0.25038   0.74000   0.16670   0.00000  Uiso   1.00
C226   C     0.24969   0.92667   0.16669   0.00000  Uiso   1.00
O227   O     0.18513   0.83333   0.21427   0.00000  Uiso   1.00
O228   O     0.31487   0.83333   0.11907   0.00000  Uiso   1.00
O229   O     0.31487   0.83333   0.21427   0.00000  Uiso   1.00
O230   O     0.18513   0.83333   0.11907   0.00000  Uiso   1.00
C231   C     0.16435   0.83338   0.16661   0.00000  Uiso   1.00
C232   C     0.33565   0.83320   0.16669   0.00000  Uiso   1.00
Cu233  Cu    0.25000   0.83333   0.22303   0.00000  Uiso   1.00
Cu234  Cu    0.25000   0.83333   0.11031   0.00000  Uiso   1.00
N235   N     0.25000   0.83333   0.02561   0.00000  Uiso   1.00
N236   N     0.25000   0.83333   0.30773   0.00000  Uiso   1.00
C237   C     0.40667   0.87747   0.17418   0.00000  Uiso   1.00
C238   C     0.09341   0.78844   0.17048   0.00000  Uiso   1.00
C239   C     0.40695   0.78894   0.15930   0.00000  Uiso   1.00
C240   C     0.09288   0.87753   0.16173   0.00000  Uiso   1.00
C241   C     0.38390   0.83317   0.16684   0.00000  Uiso   1.00
C242   C     0.11610   0.83313   0.16648   0.00000  Uiso   1.00
C243   C     0.45341   0.78853   0.16302   0.00000  Uiso   1.00
C244   C     0.04653   0.87764   0.16648   0.00000  Uiso   1.00
C245   C     0.45324   0.87770   0.17251   0.00000  Uiso   1.00
C246   C     0.04682   0.78820   0.16846   0.00000  Uiso   1.00
C247   C     0.47660   0.83303   0.16837   0.00000  Uiso   1.00
C248   C     0.02339   0.83295   0.16827   0.00000  Uiso   1.00
C249   C     0.47729   0.74452   0.16175   0.00000  Uiso   1.00
C250   C     0.02275   0.92161   0.16967   0.00000  Uiso   1.00
C251   C     0.47705   0.92163   0.17338   0.00000  Uiso   1.00
C252   C     0.02305   0.74434   0.16510   0.00000  Uiso   1.00
C253   C     0.25026   0.68842   0.16681   0.00000  Uiso   1.00
C254   C     0.24981   0.97824   0.16679   0.00000  Uiso   1.00
C255   C     0.38132   0.92349   0.18064   0.00000  Uiso   1.00
O256   O     0.38606   0.94868   0.22338   0.00000  Uiso   1.00
O257   O     0.35205   0.93771   0.13755   0.00000  Uiso   1.00
H258   H     0.33705   0.96979   0.14656   0.00000  Uiso   1.00
C259   C     0.11887   0.74223   0.17409   0.00000  Uiso   1.00
O260   O     0.11321   0.71440   0.21432   0.00000  Uiso   1.00
O261   O     0.14934   0.73089   0.13132   0.00000  Uiso   1.00
H262   H     0.16467   0.69866   0.13854   0.00000  Uiso   1.00
C263   C     0.38249   0.74390   0.14427   0.00000  Uiso   1.00
O264   O     0.35396   0.72816   0.17624   0.00000  Uiso   1.00
O265   O     0.39209   0.72014   0.09282   0.00000  Uiso   1.00
H266   H     0.37226   0.69114   0.08543   0.00000  Uiso   1.00
C267   C     0.11666   0.92294   0.14647   0.00000  Uiso   1.00
O268   O     0.14660   0.93809   0.17670   0.00000  Uiso   1.00
O269   O     0.10457   0.94779   0.09657   0.00000  Uiso   1.00
H270   H     0.12413   0.97676   0.08820   0.00000  Uiso   1.00
O271   O     0.75000   0.76280   0.21425   0.00000  Uiso   1.00
O272   O     0.75000   0.90387   0.11908   0.00000  Uiso   1.00
O273   O     0.75000   0.90387   0.21425   0.00000  Uiso   1.00
O274   O     0.75000   0.76280   0.11908   0.00000  Uiso   1.00
H275   H     0.96082   0.70967   0.15900   0.00000  Uiso   1.00
H276   H     0.53935   0.95645   0.17043   0.00000  Uiso   1.00
H277   H     0.96066   0.95663   0.17554   0.00000  Uiso   1.00
H278   H     0.53954   0.70939   0.16343   0.00000  Uiso   1.00
C279   C     0.75038   0.74000   0.16670   0.00000  Uiso   1.00
C280   C     0.74969   0.92667   0.16669   0.00000  Uiso   1.00
O281   O     0.68513   0.83333   0.21427   0.00000  Uiso   1.00
O282   O     0.81487   0.83333   0.11907   0.00000  Uiso   1.00
O283   O     0.81487   0.83333   0.21427   0.00000  Uiso   1.00
O284   O     0.68513   0.83333   0.11907   0.00000  Uiso   1.00
C285   C     0.66435   0.83338   0.16661   0.00000  Uiso   1.00
C286   C     0.83565   0.83320   0.16669   0.00000  Uiso   1.00
Cu287  Cu    0.75000   0.83333   0.22303   0.00000  Uiso   1.00
Cu288  Cu    0.75000   0.83333   0.11031   0.00000  Uiso   1.00
N289   N     0.75000   0.83333   0.02561   0.00000  Uiso   1.00
N290   N     0.75000   0.83333   0.30773   0.00000  Uiso   1.00
C291   C     0.90667   0.87747   0.17418   0.00000  Uiso   1.00
C292   C     0.59341   0.78844   0.17048   0.00000  Uiso   1.00
C293   C     0.90695   0.78894   0.15930   0.00000  Uiso   1.00
C294   C     0.59288   0.87753   0.16173   0.00000  Uiso   1.00
C295   C     0.88390   0.83317   0.16684   0.00000  Uiso   1.00
C296   C     0.61610   0.83313   0.16648   0.00000  Uiso   1.00
C297   C     0.95341   0.78853   0.16302   0.00000  Uiso   1.00
C298   C     0.54653   0.87764   0.16648   0.00000  Uiso   1.00
C299   C     0.95324   0.87770   0.17251   0.00000  Uiso   1.00
C300   C     0.54682   0.78820   0.16846   0.00000  Uiso   1.00
C301   C     0.97660   0.83303   0.16837   0.00000  Uiso   1.00
C302   C     0.52339   0.83295   0.16827   0.00000  Uiso   1.00
C303   C     0.97729   0.74452   0.16175   0.00000  Uiso   1.00
C304   C     0.52275   0.92161   0.16967   0.00000  Uiso   1.00
C305   C     0.97705   0.92163   0.17338   0.00000  Uiso   1.00
C306   C     0.52305   0.74434   0.16510   0.00000  Uiso   1.00
C307   C     0.75026   0.68842   0.16681   0.00000  Uiso   1.00
C308   C     0.74981   0.97824   0.16679   0.00000  Uiso   1.00
C309   C     0.88132   0.92349   0.18064   0.00000  Uiso   1.00
O310   O     0.88606   0.94868   0.22338   0.00000  Uiso   1.00
O311   O     0.85205   0.93771   0.13755   0.00000  Uiso   1.00
H312   H     0.83705   0.96979   0.14656   0.00000  Uiso   1.00
C313   C     0.61887   0.74223   0.17409   0.00000  Uiso   1.00
O314   O     0.61321   0.71440   0.21432   0.00000  Uiso   1.00
O315   O     0.64934   0.73089   0.13132   0.00000  Uiso   1.00
H316   H     0.66467   0.69866   0.13854   0.00000  Uiso   1.00
C317   C     0.88249   0.74390   0.14427   0.00000  Uiso   1.00
O318   O     0.85396   0.72816   0.17624   0.00000  Uiso   1.00
O319   O     0.89209   0.72014   0.09282   0.00000  Uiso   1.00
H320   H     0.87226   0.69114   0.08543   0.00000  Uiso   1.00
C321   C     0.61666   0.92294   0.14647   0.00000  Uiso   1.00
O322   O     0.64660   0.93809   0.17670   0.00000  Uiso   1.00
O323   O     0.60457   0.94779   0.09657   0.00000  Uiso   1.00
H324   H     0.62413   0.97676   0.08820   0.00000  Uiso   1.00
O325   O     0.25000   0.09613   0.54759   0.00000  Uiso   1.00
O326   O     0.25000   0.23720   0.45241   0.00000  Uiso   1.00
O327   O     0.25000   0.23720   0.54759   0.00000  Uiso   1.00
O328   O     0.25000   0.09613   0.45241   0.00000  Uiso   1.00
H329   H     0.46082   0.04300   0.49233   0.00000  Uiso   1.00
H330   H     0.03935   0.28979   0.50377   0.00000  Uiso   1.00
H331   H     0.46066   0.28996   0.50887   0.00000  Uiso   1.00
H332   H     0.03954   0.04272   0.49676   0.00000  Uiso   1.00
C333   C     0.25038   0.07333   0.50003   0.00000  Uiso   1.00
C334   C     0.24969   0.26000   0.50002   0.00000  Uiso   1.00
O335   O     0.18513   0.16667   0.54760   0.00000  Uiso   1.00
O336   O     0.31487   0.16667   0.45240   0.00000  Uiso   1.00
O337   O     0.31487   0.16667   0.54760   0.00000  Uiso   1.00
O338   O     0.18513   0.16667   0.45240   0.00000  Uiso   1.00
C339   C     0.16435   0.16671   0.49994   0.00000  Uiso   1.00
C340   C     0.33565   0.16653   0.50003   0.00000  Uiso   1.00
Cu341  Cu    0.25000   0.16667   0.55636   0.00000  Uiso   1.00
Cu342  Cu    0.25000   0.16667   0.44364   0.00000  Uiso   1.00
N343   N     0.25000   0.16667   0.35894   0.00000  Uiso   1.00
N344   N     0.25000   0.16667   0.64106   0.00000  Uiso   1.00
C345   C     0.40667   0.21080   0.50751   0.00000  Uiso   1.00
C346   C     0.09341   0.12177   0.50381   0.00000  Uiso   1.00
C347   C     0.40695   0.12228   0.49263   0.00000  Uiso   1.00
C348   C     0.09288   0.21086   0.49507   0.00000  Uiso   1.00
C349   C     0.38390   0.16651   0.50017   0.00000  Uiso   1.00
C350   C     0.11610   0.16647   0.49982   0.00000  Uiso   1.00
C351   C     0.45341   0.12186   0.49635   0.00000  Uiso   1.00
C352   C     0.04653   0.21098   0.49981   0.00000  Uiso   1.00
C353   C     0.45324   0.21103   0.50584   0.00000  Uiso   1.00
C354   C     0.04682   0.12154   0.50180   0.00000  Uiso   1.00
C355   C     0.47660   0.16636   0.50170   0.00000  Uiso   1.00
C356   C     0.02339   0.16628   0.50161   0.00000  Uiso   1.00
C357   C     0.47729   0.07786   0.49508   0.00000  Uiso   1.00
C358   C     0.02275   0.25494   0.50300   0.00000  Uiso   1.00
C359   C     0.47705   0.25497   0.50671   0.00000  Uiso   1.00
C360   C     0.02305   0.07767   0.49843   0.00000  Uiso   1.00
C361   C     0.25026   0.02176   0.50014   0.00000  Uiso   1.00
C362   C     0.24981   0.31157   0.50012   0.00000  Uiso   1.00
C363   C     0.38132   0.25682   0.51397   0.00000  Uiso   1.00
O364   O     0.38606   0.28201   0.55671   0.00000  Uiso   1.00
O365   O     0.35205   0.27105   0.47088   0.00000  Uiso   1.00
H366   H     0.33705   0.30312   0.47989   0.00000  Uiso   1.00
C367   C     0.11887   0.07556   0.50743   0.00000  Uiso   1.00
O368   O     0.11321   0.04773   0.54765   0.00000  Uiso   1.00
O369   O     0.14934   0.06422   0.46465   0.00000  Uiso   1.00
H370   H     0.16467   0.03199   0.47188   0.00000  Uiso   1.00
C371   C     0.38249   0.07724   0.47760   0.00000  Uiso   1.00
O372   O     0.35396   0.06149   0.50958   0.00000  Uiso   1.00
O373   O     0.39209   0.05347   0.42615   0.00000  Uiso   1.00
H374   H     0.37226   0.02447   0.41877   0.00000  Uiso   1.00
C375   C     0.11666   0.25627   0.47980   0.00000  Uiso   1.00
O376   O     0.14660   0.27142   0.51003   0.00000  Uiso   1.00
O377   O     0.10457   0.28112   0.42991   0.00000  Uiso   1.00
H378   H     0.12413   0.31010   0.42153   0.00000  Uiso   1.00
O379   O     0.75000   0.09613   0.54759   0.00000  Uiso   1.00
O380   O     0.75000   0.23720   0.45241   0.00000  Uiso   1.00
O381   O     0.75000   0.23720   0.54759   0.00000  Uiso   1.00
O382   O     0.75000   0.09613   0.45241   0.00000  Uiso   1.00
H383   H     0.96082   0.04300   0.49233   0.00000  Uiso   1.00
H384   H     0.53935   0.28979   0.50377   0.00000  Uiso   1.00
H385   H     0.96066   0.28996   0.50887   0.00000  Uiso   1.00
H386   H     0.53954   0.04272   0.49676   0.00000  Uiso   1.00
C387   C     0.75038   0.07333   0.50003   0.00000  Uiso   1.00
C388   C     0.74969   0.26000   0.50002   0.00000  Uiso   1.00
O389   O     0.68513   0.16667   0.54760   0.00000  Uiso   1.00
O390   O     0.81487   0.16667   0.45240   0.00000  Uiso   1.00
O391   O     0.81487   0.16667   0.54760   0.00000  Uiso   1.00
O392   O     0.68513   0.16667   0.45240   0.00000  Uiso   1.00
C393   C     0.66435   0.16671   0.49994   0.00000  Uiso   1.00
C394   C     0.83565   0.16653   0.50003   0.00000  Uiso   1.00
Cu395  Cu    0.75000   0.16667   0.55636   0.00000  Uiso   1.00
Cu396  Cu    0.75000   0.16667   0.44364   0.00000  Uiso   1.00
N397   N     0.75000   0.16667   0.35894   0.00000  Uiso   1.00
N398   N     0.75000   0.16667   0.64106   0.00000  Uiso   1.00
C399   C     0.90667   0.21080   0.50751   0.00000  Uiso   1.00
C400   C     0.59341   0.12177   0.50381   0.00000  Uiso   1.00
C401   C     0.90695   0.12228   0.49263   0.00000  Uiso   1.00
C402   C     0.59288   0.21086   0.49507   0.00000  Uiso   1.00
C403   C     0.88390   0.16651   0.50017   0.00000  Uiso   1.00
C404   C     0.61610   0.16647   0.49982   0.00000  Uiso   1.00
C405   C     0.95341   0.12186   0.49635   0.00000  Uiso   1.00
C406   C     0.54653   0.21098   0.49981   0.00000  Uiso   1.00
C407   C     0.95324   0.21103   0.50584   0.00000  Uiso   1.00
C408   C     0.54682   0.12154   0.50180   0.00000  Uiso   1.00
C409   C     0.97660   0.16636   0.50170   0.00000  Uiso   1.00
C410   C     0.52339   0.16628   0.50161   0.00000  Uiso   1.00
C411   C     0.97729   0.07786   0.49508   0.00000  Uiso   1.00
C412   C     0.52275   0.25494   0.50300   0.00000  Uiso   1.00
C413   C     0.97705   0.25497   0.50671   0.00000  Uiso   1.00
C414   C     0.52305   0.07767   0.49843   0.00000  Uiso   1.00
C415   C     0.75026   0.02176   0.50014   0.00000  Uiso   1.00
C416   C     0.74981   0.31157   0.50012   0.00000  Uiso   1.00
C417   C     0.88132   0.25682   0.51397   0.00000  Uiso   1.00
O418   O     0.88606   0.28201   0.55671   0.00000  Uiso   1.00
O419   O     0.85205   0.27105   0.47088   0.00000  Uiso   1.00
H420   H     0.83705   0.30312   0.47989   0.00000  Uiso   1.00
C421   C     0.61887   0.07556   0.50743   0.00000  Uiso   1.00
O422   O     0.61321   0.04773   0.54765   0.00000  Uiso   1.00
O423   O     0.64934   0.06422   0.46465   0.00000  Uiso   1.00
H424   H     0.66467   0.03199   0.47188   0.00000  Uiso   1.00
C425   C     0.88249   0.07724   0.47760   0.00000  Uiso   1.00
O426   O     0.85396   0.06149   0.50958   0.00000  Uiso   1.00
O427   O     0.89209   0.05347   0.42615   0.00000  Uiso   1.00
H428   H     0.87226   0.02447   0.41877   0.00000  Uiso   1.00
C429   C     0.61666   0.25627   0.47980   0.00000  Uiso   1.00
O430   O     0.64660   0.27142   0.51003   0.00000  Uiso   1.00
O431   O     0.60457   0.28112   0.42991   0.00000  Uiso   1.00
H432   H     0.62413   0.31010   0.42153   0.00000  Uiso   1.00
O433   O     0.25000   0.42946   0.54759   0.00000  Uiso   1.00
O434   O     0.25000   0.57054   0.45241   0.00000  Uiso   1.00
O435   O     0.25000   0.57054   0.54759   0.00000  Uiso   1.00
O436   O     0.25000   0.42946   0.45241   0.00000  Uiso   1.00
H437   H     0.46082   0.37633   0.49233   0.00000  Uiso   1.00
H438   H     0.03935   0.62312   0.50377   0.00000  Uiso   1.00
H439   H     0.46066   0.62330   0.50887   0.00000  Uiso   1.00
H440   H     0.03954   0.37605   0.49676   0.00000  Uiso   1.00
C441   C     0.25038   0.40666   0.50003   0.00000  Uiso   1.00
C442   C     0.24969   0.59334   0.50002   0.00000  Uiso   1.00
O443   O     0.18513   0.50000   0.54760   0.00000  Uiso   1.00
O444   O     0.31487   0.50000   0.45240   0.00000  Uiso   1.00
O445   O     0.31487   0.50000   0.54760   0.00000  Uiso   1.00
O446   O     0.18513   0.50000   0.45240   0.00000  Uiso   1.00
C447   C     0.16435   0.50005   0.49994   0.00000  Uiso   1.00
C448   C     0.33565   0.49987   0.50003   0.00000  Uiso   1.00
Cu449  Cu    0.25000   0.50000   0.55636   0.00000  Uiso   1.00
Cu450  Cu    0.25000   0.50000   0.44364   0.00000  Uiso   1.00
N451   N     0.25000   0.50000   0.35894   0.00000  Uiso   1.00
N452   N     0.25000   0.50000   0.64106   0.00000  Uiso   1.00
C453   C     0.40667   0.54414   0.50751   0.00000  Uiso   1.00
C454   C     0.09341   0.45510   0.50381   0.00000  Uiso   1.00
C455   C     0.40695   0.45561   0.49263   0.00000  Uiso   1.00
C456   C     0.09288   0.54419   0.49507   0.00000  Uiso   1.00
C457   C     0.38390   0.49984   0.50017   0.00000  Uiso   1.00
C458   C     0.11610   0.49980   0.49982   0.00000  Uiso   1.00
C459   C     0.45341   0.45519   0.49635   0.00000  Uiso   1.00
C460   C     0.04653   0.54431   0.49981   0.00000  Uiso   1.00
C461   C     0.45324   0.54436   0.50584   0.00000  Uiso   1.00
C462   C     0.04682   0.45487   0.50180   0.00000  Uiso   1.00
C463   C     0.47660   0.49970   0.50170   0.00000  Uiso   1.00
C464   C     0.02339   0.49961   0.50161   0.00000  Uiso   1.00
C465   C     0.47729   0.41119   0.49508   0.00000  Uiso   1.00
C466   C     0.02275   0.58827   0.50300   0.00000  Uiso   1.00
C467   C     0.47705   0.58830   0.50671   0.00000  Uiso   1.00
C468   C     0.02305   0.41100   0.49843   0.00000  Uiso   1.00
C469   C     0.25026   0.35509   0.50014   0.00000  Uiso   1.00
C470   C     0.24981   0.64491   0.50012   0.00000  Uiso   1.00
C471   C     0.38132   0.59016   0.51397   0.00000  Uiso   1.00
O472   O     0.38606   0.61534   0.55671   0.00000  Uiso   1.00
O473   O     0.35205   0.60438   0.47088   0.00000  Uiso   1.00
H474   H     0.33705   0.63645   0.47989   0.00000  Uiso   1.00
C475   C     0.11887   0.40889   0.50743   0.00000  Uiso   1.00
O476   O     0.11321   0.38107   0.54765   0.00000  Uiso   1.00
O477   O     0.14934   0.39755   0.46465   0.00000  Uiso   1.00
H478   H     0.16467   0.36532   0.47188   0.00000  Uiso   1.00
C479   C     0.38249   0.41057   0.47760   0.00000  Uiso   1.00
O480   O     0.35396   0.39482   0.50958   0.00000  Uiso   1.00
O481   O     0.39209   0.38681   0.42615   0.00000  Uiso   1.00
H482   H     0.37226   0.35781   0.41877   0.00000  Uiso   1.00
C483   C     0.11666   0.58961   0.47980   0.00000  Uiso   1.00
O484   O     0.14660   0.60476   0.51003   0.00000  Uiso   1.00
O485   O     0.10457   0.61445   0.42991   0.00000  Uiso   1.00
H486   H     0.12413   0.64343   0.42153   0.00000  Uiso   1.00
O487   O     0.75000   0.42946   0.54759   0.00000  Uiso   1.00
O488   O     0.75000   0.57054   0.45241   0.00000  Uiso   1.00
O489   O     0.75000   0.57054   0.54759   0.00000  Uiso   1.00
O490   O     0.75000   0.42946   0.45241   0.00000  Uiso   1.00
H491   H     0.96082   0.37633   0.49233   0.00000  Uiso   1.00
H492   H     0.53935   0.62312   0.50377   0.00000  Uiso   1.00
H493   H     0.96066   0.62330   0.50887   0.00000  Uiso   1.00
H494   H     0.53954   0.37605   0.49676   0.00000  Uiso   1.00
C495   C     0.75038   0.40666   0.50003   0.00000  Uiso   1.00
C496   C     0.74969   0.59334   0.50002   0.00000  Uiso   1.00
O497   O     0.68513   0.50000   0.54760   0.00000  Uiso   1.00
O498   O     0.81487   0.50000   0.45240   0.00000  Uiso   1.00
O499   O     0.81487   0.50000   0.54760   0.00000  Uiso   1.00
O500   O     0.68513   0.50000   0.45240   0.00000  Uiso   1.00
C501   C     0.66435   0.50005   0.49994   0.00000  Uiso   1.00
C502   C     0.83565   0.49987   0.50003   0.00000  Uiso   1.00
Cu503  Cu    0.75000   0.50000   0.55636   0.00000  Uiso   1.00
Cu504  Cu    0.75000   0.50000   0.44364   0.00000  Uiso   1.00
N505   N     0.75000   0.50000   0.35894   0.00000  Uiso   1.00
N506   N     0.75000   0.50000   0.64106   0.00000  Uiso   1.00
C507   C     0.90667   0.54414   0.50751   0.00000  Uiso   1.00
C508   C     0.59341   0.45510   0.50381   0.00000  Uiso   1.00
C509   C     0.90695   0.45561   0.49263   0.00000  Uiso   1.00
C510   C     0.59288   0.54419   0.49507   0.00000  Uiso   1.00
C511   C     0.88390   0.49984   0.50017   0.00000  Uiso   1.00
C512   C     0.61610   0.49980   0.49982   0.00000  Uiso   1.00
C513   C     0.95341   0.45519   0.49635   0.00000  Uiso   1.00
C514   C     0.54653   0.54431   0.49981   0.00000  Uiso   1.00
C515   C     0.95324   0.54436   0.50584   0.00000  Uiso   1.00
C516   C     0.54682   0.45487   0.50180   0.00000  Uiso   1.00
C517   C     0.97660   0.49970   0.50170   0.00000  Uiso   1.00
C518   C     0.52339   0.49961   0.50161   0.00000  Uiso   1.00
C519   C     0.97729   0.41119   0.49508   0.00000  Uiso   1.00
C520   C     0.52275   0.58827   0.50300   0.00000  Uiso   1.00
C521   C     0.97705   0.58830   0.50671   0.00000  Uiso   1.00
C522   C     0.52305   0.41100   0.49843   0.00000  Uiso   1.00
C523   C     0.75026   0.35509   0.50014   0.00000  Uiso   1.00
C524   C     0.74981   0.64491   0.50012   0.00000  Uiso   1.00
C525   C     0.88132   0.59016   0.51397   0.00000  Uiso   1.00
O526   O     0.88606   0.61534   0.55671   0.00000  Uiso   1.00
O527   O     0.85205   0.60438   0.47088   0.00000  Uiso   1.00
H528   H     0.83705   0.63645   0.47989   0.00000  Uiso   1.00
C529   C     0.61887   0.40889   0.50743   0.00000  Uiso   1.00
O530   O     0.61321   0.38107   0.54765   0.00000  Uiso   1.00
O531   O     0.64934   0.39755   0.46465   0.00000  Uiso   1.00
H532   H     0.66467   0.36532   0.47188   0.00000  Uiso   1.00
C533   C     0.88249   0.41057   0.47760   0.00000  Uiso   1.00
O534   O     0.85396   0.39482   0.50958   0.00000  Uiso   1.00
O535   O     0.89209   0.38681   0.42615   0.00000  Uiso   1.00
H536   H     0.87226   0.35781   0.41877   0.00000  Uiso   1.00
C537   C     0.61666   0.58961   0.47980   0.00000  Uiso   1.00
O538   O     0.64660   0.60476   0.51003   0.00000  Uiso   1.00
O539   O     0.60457   0.61445   0.42991   0.00000  Uiso   1.00
H540   H     0.62413   0.64343   0.42153   0.00000  Uiso   1.00
O541   O     0.25000   0.76280   0.54759   0.00000  Uiso   1.00
O542   O     0.25000   0.90387   0.45241   0.00000  Uiso   1.00
O543   O     0.25000   0.90387   0.54759   0.00000  Uiso   1.00
O544   O     0.25000   0.76280   0.45241   0.00000  Uiso   1.00
H545   H     0.46082   0.70967   0.49233   0.00000  Uiso   1.00
H546   H     0.03935   0.95645   0.50377   0.00000  Uiso   1.00
H547   H     0.46066   0.95663   0.50887   0.00000  Uiso   1.00
H548   H     0.03954   0.70939   0.49676   0.00000  Uiso   1.00
C549   C     0.25038   0.74000   0.50003   0.00000  Uiso   1.00
C550   C     0.24969   0.92667   0.50002   0.00000  Uiso   1.00
O551   O     0.18513   0.83333   0.54760   0.00000  Uiso   1.00
O552   O     0.31487   0.83333   0.45240   0.00000  Uiso   1.00
O553   O     0.31487   0.83333   0.54760   0.00000  Uiso   1.00
O554   O     0.18513   0.83333   0.45240   0.00000  Uiso   1.00
C555   C     0.16435   0.83338   0.49994   0.00000  Uiso   1.00
C556   C     0.33565   0.83320   0.50003   0.00000  Uiso   1.00
Cu557  Cu    0.25000   0.83333   0.55636   0.00000  Uiso   1.00
Cu558  Cu    0.25000   0.83333   0.44364   0.00000  Uiso   1.00
N559   N     0.25000   0.83333   0.35894   0.00000  Uiso   1.00
N560   N     0.25000   0.83333   0.64106   0.00000  Uiso   1.00
C561   C     0.40667   0.87747   0.50751   0.00000  Uiso   1.00
C562   C     0.09341   0.78844   0.50381   0.00000  Uiso   1.00
C563   C     0.40695   0.78894   0.49263   0.00000  Uiso   1.00
C564   C     0.09288   0.87753   0.49507   0.00000  Uiso   1.00
C565   C     0.38390   0.83317   0.50017   0.00000  Uiso   1.00
C566   C     0.11610   0.83313   0.49982   0.00000  Uiso   1.00
C567   C     0.45341   0.78853   0.49635   0.00000  Uiso   1.00
C568   C     0.04653   0.87764   0.49981   0.00000  Uiso   1.00
C569   C     0.45324   0.87770   0.50584   0.00000  Uiso   1.00
C570   C     0.04682   0.78820   0.50180   0.00000  Uiso   1.00
C571   C     0.47660   0.83303   0.50170   0.00000  Uiso   1.00
C572   C     0.02339   0.83295   0.50161   0.00000  Uiso   1.00
C573   C     0.47729   0.74452   0.49508   0.00000  Uiso   1.00
C574   C     0.02275   0.92161   0.50300   0.00000  Uiso   1.00
C575   C     0.47705   0.92163   0.50671   0.00000  Uiso   1.00
C576   C     0.02305   0.74434   0.49843   0.00000  Uiso   1.00
C577   C     0.25026   0.68842   0.50014   0.00000  Uiso   1.00
C578   C     0.24981   0.97824   0.50012   0.00000  Uiso   1.00
C579   C     0.38132   0.92349   0.51397   0.00000  Uiso   1.00
O580   O     0.38606   0.94868   0.55671   0.00000  Uiso   1.00
O581   O     0.35205   0.93771   0.47088   0.00000  Uiso   1.00
H582   H     0.33705   0.96979   0.47989   0.00000  Uiso   1.00
C583   C     0.11887   0.74223   0.50743   0.00000  Uiso   1.00
O584   O     0.11321   0.71440   0.54765   0.00000  Uiso   1.00
O585   O     0.14934   0.73089   0.46465   0.00000  Uiso   1.00
H586   H     0.16467   0.69866   0.47188   0.00000  Uiso   1.00
C587   C     0.38249   0.74390   0.47760   0.00000  Uiso   1.00
O588   O     0.35396   0.72816   0.50958   0.00000  Uiso   1.00
O589   O     0.39209   0.72014   0.42615   0.00000  Uiso   1.00
H590   H     0.37226   0.69114   0.41877   0.00000  Uiso   1.00
C591   C     0.11666   0.92294   0.47980   0.00000  Uiso   1.00
O592   O     0.14660   0.93809   0.51003   0.00000  Uiso   1.00
O593   O     0.10457   0.94779   0.42991   0.00000  Uiso   1.00
H594   H     0.12413   0.97676   0.42153   0.00000  Uiso   1.00
O595   O     0.75000   0.76280   0.54759   0.00000  Uiso   1.00
O596   O     0.75000   0.90387   0.45241   0.00000  Uiso   1.00
O597   O     0.75000   0.90387   0.54759   0.00000  Uiso   1.00
O598   O     0.75000   0.76280   0.45241   0.00000  Uiso   1.00
H599   H     0.96082   0.70967   0.49233   0.00000  Uiso   1.00
H600   H     0.53935   0.95645   0.50377   0.00000  Uiso   1.00
H601   H     0.96066   0.95663   0.50887   0.00000  Uiso   1.00
H602   H     0.53954   0.70939   0.49676   0.00000  Uiso   1.00
C603   C     0.75038   0.74000   0.50003   0.00000  Uiso   1.00
C604   C     0.74969   0.92667   0.50002   0.00000  Uiso   1.00
O605   O     0.68513   0.83333   0.54760   0.00000  Uiso   1.00
O606   O     0.81487   0.83333   0.45240   0.00000  Uiso   1.00
O607   O     0.81487   0.83333   0.54760   0.00000  Uiso   1.00
O608   O     0.68513   0.83333   0.45240   0.00000  Uiso   1.00
C609   C     0.66435   0.83338   0.49994   0.00000  Uiso   1.00
C610   C     0.83565   0.83320   0.50003   0.00000  Uiso   1.00
Cu611  Cu    0.75000   0.83333   0.55636   0.00000  Uiso   1.00
Cu612  Cu    0.75000   0.83333   0.44364   0.00000  Uiso   1.00
N613   N     0.75000   0.83333   0.35894   0.00000  Uiso   1.00
N614   N     0.75000   0.83333   0.64106   0.00000  Uiso   1.00
C615   C     0.90667   0.87747   0.50751   0.00000  Uiso   1.00
C616   C     0.59341   0.78844   0.50381   0.00000  Uiso   1.00
C617   C     0.90695   0.78894   0.49263   0.00000  Uiso   1.00
C618   C     0.59288   0.87753   0.49507   0.00000  Uiso   1.00
C619   C     0.88390   0.83317   0.50017   0.00000  Uiso   1.00
C620   C     0.61610   0.83313   0.49982   0.00000  Uiso   1.00
C621   C     0.95341   0.78853   0.49635   0.00000  Uiso   1.00
C622   C     0.54653   0.87764   0.49981   0.00000  Uiso   1.00
C623   C     0.95324   0.87770   0.50584   0.00000  Uiso   1.00
C624   C     0.54682   0.78820   0.50180   0.00000  Uiso   1.00
C625   C     0.97660   0.83303   0.50170   0.00000  Uiso   1.00
C626   C     0.52339   0.83295   0.50161   0.00000  Uiso   1.00
C627   C     0.97729   0.74452   0.49508   0.00000  Uiso   1.00
C628   C     0.52275   0.92161   0.50300   0.00000  Uiso   1.00
C629   C     0.97705   0.92163   0.50671   0.00000  Uiso   1.00
C630   C     0.52305   0.74434   0.49843   0.00000  Uiso   1.00
C631   C     0.75026   0.68842   0.50014   0.00000  Uiso   1.00
C632   C     0.74981   0.97824   0.50012   0.00000  Uiso   1.00
C633   C     0.88132   0.92349   0.51397   0.00000  Uiso   1.00
O634   O     0.88606   0.94868   0.55671   0.00000  Uiso   1.00
O635   O     0.85205   0.93771   0.47088   0.00000  Uiso   1.00
H636   H     0.83705   0.96979   0.47989   0.00000  Uiso   1.00
C637   C     0.61887   0.74223   0.50743   0.00000  Uiso   1.00
O638   O     0.61321   0.71440   0.54765   0.00000  Uiso   1.00
O639   O     0.64934   0.73089   0.46465   0.00000  Uiso   1.00
H640   H     0.66467   0.69866   0.47188   0.00000  Uiso   1.00
C641   C     0.88249   0.74390   0.47760   0.00000  Uiso   1.00
O642   O     0.85396   0.72816   0.50958   0.00000  Uiso   1.00
O643   O     0.89209   0.72014   0.42615   0.00000  Uiso   1.00
H644   H     0.87226   0.69114   0.41877   0.00000  Uiso   1.00
C645   C     0.61666   0.92294   0.47980   0.00000  Uiso   1.00
O646   O     0.64660   0.93809   0.51003   0.00000  Uiso   1.00
O647   O     0.60457   0.94779   0.42991   0.00000  Uiso   1.00
H648   H     0.62413   0.97676   0.42153   0.00000  Uiso   1.00
O649   O     0.25000   0.09613   0.88092   0.00000  Uiso   1.00
O650   O     0.25000   0.23720   0.78575   0.00000  Uiso   1.00
O651   O     0.25000   0.23720   0.88092   0.00000  Uiso   1.00
O652   O     0.25000   0.09613   0.78575   0.00000  Uiso   1.00
H653   H     0.46082   0.04300   0.82566   0.00000  Uiso   1.00
H654   H     0.03935   0.28979   0.83710   0.00000  Uiso   1.00
H655   H     0.46066   0.28996   0.84221   0.00000  Uiso   1.00
H656   H     0.03954   0.04272   0.83010   0.00000  Uiso   1.00
C657   C     0.25038   0.07333   0.83337   0.00000  Uiso   1.00
C658   C     0.24969   0.26000   0.83335   0.00000  Uiso   1.00
O659   O     0.18513   0.16667   0.88093   0.00000  Uiso   1.00
O660   O     0.31487   0.16667   0.78573   0.00000  Uiso   1.00
O661   O     0.31487   0.16667   0.88093   0.00000  Uiso   1.00
O662   O     0.18513   0.16667   0.78573   0.00000  Uiso   1.00
C663   C     0.16435   0.16671   0.83327   0.00000  Uiso   1.00
C664   C     0.33565   0.16653   0.83336   0.00000  Uiso   1.00
Cu665  Cu    0.25000   0.16667   0.88969   0.00000  Uiso   1.00
Cu666  Cu    0.25000   0.16667   0.77697   0.00000  Uiso   1.00
N667   N     0.25000   0.16667   0.69227   0.00000  Uiso   1.00
N668   N     0.25000   0.16667   0.97439   0.00000  Uiso   1.00
C669   C     0.40667   0.21080   0.84085   0.00000  Uiso   1.00
C670   C     0.09341   0.12177   0.83714   0.00000  Uiso   1.00
C671   C     0.40695   0.12228   0.82597   0.00000  Uiso   1.00
C672   C     0.09288   0.21086   0.82840   0.00000  Uiso   1.00
C673   C     0.38390   0.16651   0.83351   0.00000  Uiso   1.00
C674   C     0.11610   0.16647   0.83315   0.00000  Uiso   1.00
C675   C     0.45341   0.12186   0.82968   0.00000  Uiso   1.00
C676   C     0.04653   0.21098   0.83314   0.00000  Uiso   1.00
C677   C     0.45324   0.21103   0.83917   0.00000  Uiso   1.00
C678   C     0.04682   0.12154   0.83513   0.00000  Uiso   1.00
C679   C     0.47660   0.16636   0.83504   0.00000  Uiso   1.00
C680   C     0.02339   0.16628   0.83494   0.00000  Uiso   1.00
C681   C     0.47729   0.07786   0.82841   0.00000  Uiso   1.00
C682   C     0.02275   0.25494   0.83633   0.00000  Uiso   1.00
C683   C     0.47705   0.25497   0.84005   0.00000  Uiso   1.00
C684   C     0.02305   0.07767   0.83176   0.00000  Uiso   1.00
C685   C     0.25026   0.02176   0.83348   0.00000  Uiso   1.00
C686   C     0.24981   0.31157   0.83345   0.00000  Uiso   1.00
C687   C     0.38132   0.25682   0.84730   0.00000  Uiso   1.00
O688   O     0.38606   0.28201   0.89005   0.00000  Uiso   1.00
O689   O     0.35205   0.27105   0.80422   0.00000  Uiso   1.00
H690   H     0.33705   0.30312   0.81322   0.00000  Uiso   1.00
C691   C     0.11887   0.07556   0.84076   0.00000  Uiso   1.00
O692   O     0.11321   0.04773   0.88099   0.00000  Uiso   1.00
O693   O     0.14934   0.06422   0.79799   0.00000  Uiso   1.00
H694   H     0.16467   0.03199   0.80521   0.00000  Uiso   1.00
C695   C     0.38249   0.07724   0.81093   0.00000  Uiso   1.00
O696   O     0.35396   0.06149   0.84291   0.00000  Uiso   1.00
O697   O     0.39209   0.05347   0.75949   0.00000  Uiso   1.00
H698   H     0.37226   0.02447   0.75210   0.00000  Uiso   1.00
C699   C     0.11666   0.25627   0.81314   0.00000  Uiso   1.00
O700   O     0.14660   0.27142   0.84336   0.00000  Uiso   1.00
O701   O     0.10457   0.28112   0.76324   0.00000  Uiso   1.00
H702   H     0.12413   0.31010   0.75487   0.00000  Uiso   1.00
O703   O     0.75000   0.09613   0.88092   0.00000  Uiso   1.00
O704   O     0.75000   0.23720   0.78575   0.00000  Uiso   1.00
O705   O     0.75000   0.23720   0.88092   0.00000  Uiso   1.00
O706   O     0.75000   0.09613   0.78575   0.00000  Uiso   1.00
H707   H     0.96082   0.04300   0.82566   0.00000  Uiso   1.00
H708   H     0.53935   0.28979   0.83710   0.00000  Uiso   1.00
H709   H     0.96066   0.28996   0.84221   0.00000  Uiso   1.00
H710   H     0.53954   0.04272   0.83010   0.00000  Uiso   1.00
C711   C     0.75038   0.07333   0.83337   0.00000  Uiso   1.00
C712   C     0.74969   0.26000   0.83335   0.00000  Uiso   1.00
O713   O     0.68513   0.16667   0.88093   0.00000  Uiso   1.00
O714   O     0.81487   0.16667   0.78573   0.00000  Uiso   1.00
O715   O     0.81487   0.16667   0.88093   0.00000  Uiso   1.00
O716   O     0.68513   0.16667   0.78573   0.00000  Uiso   1.00
C717   C     0.66435   0.16671   0.83327   0.00000  Uiso   1.00
C718   C     0.83565   0.16653   0.83336   0.00000  Uiso   1.00
Cu719  Cu    0.75000   0.16667   0.88969   0.00000  Uiso   1.00
Cu720  Cu    0.75000   0.16667   0.77697   0.00000  Uiso   1.00
N721   N     0.75000   0.16667   0.69227   0.00000  Uiso   1.00
N722   N     0.75000   0.16667   0.97439   0.00000  Uiso   1.00
C723   C     0.90667   0.21080   0.84085   0.00000  Uiso   1.00
C724   C     0.59341   0.12177   0.83714   0.00000  Uiso   1.00
C725   C     0.90695   0.12228   0.82597   0.00000  Uiso   1.00
C726   C     0.59288   0.21086   0.82840   0.00000  Uiso   1.00
C727   C     0.88390   0.16651   0.83351   0.00000  Uiso   1.00
C728   C     0.61610   0.16647   0.83315   0.00000  Uiso   1.00
C729   C     0.95341   0.12186   0.82968   0.00000  Uiso   1.00
C730   C     0.54653   0.21098   0.83314   0.00000  Uiso   1.00
C731   C     0.95324   0.21103   0.83917   0.00000  Uiso   1.00
C732   C     0.54682   0.12154   0.83513   0.00000  Uiso   1.00
C733   C     0.97660   0.16636   0.83504   0.00000  Uiso   1.00
C734   C     0.52339   0.16628   0.83494   0.00000  Uiso   1.00
C735   C     0.97729   0.07786   0.82841   0.00000  Uiso   1.00
C736   C     0.52275   0.25494   0.83633   0.00000  Uiso   1.00
C737   C     0.97705   0.25497   0.84005   0.00000  Uiso   1.00
C738   C     0.52305   0.07767   0.83176   0.00000  Uiso   1.00
C739   C     0.75026   0.02176   0.83348   0.00000  Uiso   1.00
C740   C     0.74981   0.31157   0.83345   0.00000  Uiso   1.00
C741   C     0.88132   0.25682   0.84730   0.00000  Uiso   1.00
O742   O     0.88606   0.28201   0.89005   0.00000  Uiso   1.00
O743   O     0.85205   0.27105   0.80422   0.00000  Uiso   1.00
H744   H     0.83705   0.30312   0.81322   0.00000  Uiso   1.00
C745   C     0.61887   0.07556   0.84076   0.00000  Uiso   1.00
O746   O     0.61321   0.04773   0.88099   0.00000  Uiso   1.00
O747   O     0.64934   0.06422   0.79799   0.00000  Uiso   1.00
H748   H     0.66467   0.03199   0.80521   0.00000  Uiso   1.00
C749   C     0.88249   0.07724   0.81093   0.00000  Uiso   1.00
O750   O     0.85396   0.06149   0.84291   0.00000  Uiso   1.00
O751   O     0.89209   0.05347   0.75949   0.00000  Uiso   1.00
H752   H     0.87226   0.02447   0.75210   0.00000  Uiso   1.00
C753   C     0.61666   0.25627   0.81314   0.00000  Uiso   1.00
O754   O     0.64660   0.27142   0.84336   0.00000  Uiso   1.00
O755   O     0.60457   0.28112   0.76324   0.00000  Uiso   1.00
H756   H     0.62413   0.31010   0.75487   0.00000  Uiso   1.00
O757   O     0.25000   0.42946   0.88092   0.00000  Uiso   1.00
O758   O     0.25000   0.57054   0.78575   0.00000  Uiso   1.00
O759   O     0.25000   0.57054   0.88092   0.00000  Uiso   1.00
O760   O     0.25000   0.42946   0.78575   0.00000  Uiso   1.00
H761   H     0.46082   0.37633   0.82566   0.00000  Uiso   1.00
H762   H     0.03935   0.62312   0.83710   0.00000  Uiso   1.00
H763   H     0.46066   0.62330   0.84221   0.00000  Uiso   1.00
H764   H     0.03954   0.37605   0.83010   0.00000  Uiso   1.00
C765   C     0.25038   0.40666   0.83337   0.00000  Uiso   1.00
C766   C     0.24969   0.59334   0.83335   0.00000  Uiso   1.00
O767   O     0.18513   0.50000   0.88093   0.00000  Uiso   1.00
O768   O     0.31487   0.50000   0.78573   0.00000  Uiso   1.00
O769   O     0.31487   0.50000   0.88093   0.00000  Uiso   1.00
O770   O     0.18513   0.50000   0.78573   0.00000  Uiso   1.00
C771   C     0.16435   0.50005   0.83327   0.00000  Uiso   1.00
C772   C     0.33565   0.49987   0.83336   0.00000  Uiso   1.00
Cu773  Cu    0.25000   0.50000   0.88969   0.00000  Uiso   1.00
Cu774  Cu    0.25000   0.50000   0.77697   0.00000  Uiso   1.00
N775   N     0.25000   0.50000   0.69227   0.00000  Uiso   1.00
N776   N     0.25000   0.50000   0.97439   0.00000  Uiso   1.00
C777   C     0.40667   0.54414   0.84085   0.00000  Uiso   1.00
C778   C     0.09341   0.45510   0.83714   0.00000  Uiso   1.00
C779   C     0.40695   0.45561   0.82597   0.00000  Uiso   1.00
C780   C     0.09288   0.54419   0.82840   0.00000  Uiso   1.00
C781   C     0.38390   0.49984   0.83351   0.00000  Uiso   1.00
C782   C     0.11610   0.49980   0.83315   0.00000  Uiso   1.00
C783   C     0.45341   0.45519   0.82968   0.00000  Uiso   1.00
C784   C     0.04653   0.54431   0.83314   0.00000  Uiso   1.00
C785   C     0.45324   0.54436   0.83917   0.00000  Uiso   1.00
C786   C     0.04682   0.45487   0.83513   0.00000  Uiso   1.00
C787   C     0.47660   0.49970   0.83504   0.00000  Uiso   1.00
C788   C     0.02339   0.49961   0.83494   0.00000  Uiso   1.00
C789   C     0.47729   0.41119   0.82841   0.00000  Uiso   1.00
C790   C     0.02275   0.58827   0.83633   0.00000  Uiso   1.00
C791   C     0.47705   0.58830   0.84005   0.00000  Uiso   1.00
C792   C     0.02305   0.41100   0.83176   0.00000  Uiso   1.00
C793   C     0.25026   0.35509   0.83348   0.00000  Uiso   1.00
C794   C     0.24981   0.64491   0.83345   0.00000  Uiso   1.00
C795   C     0.38132   0.59016   0.84730   0.00000  Uiso   1.00
O796   O     0.38606   0.61534   0.89005   0.00000  Uiso   1.00
O797   O     0.35205   0.60438   0.80422   0.00000  Uiso   1.00
H798   H     0.33705   0.63645   0.81322   0.00000  Uiso   1.00
C799   C     0.11887   0.40889   0.84076   0.00000  Uiso   1.00
O800   O     0.11321   0.38107   0.88099   0.00000  Uiso   1.00
O801   O     0.14934   0.39755   0.79799   0.00000  Uiso   1.00
H802   H     0.16467   0.36532   0.80521   0.00000  Uiso   1.00
C803   C     0.38249   0.41057   0.81093   0.00000  Uiso   1.00
O804   O     0.35396   0.39482   0.84291   0.00000  Uiso   1.00
O805   O     0.39209   0.38681   0.75949   0.00000  Uiso   1.00
H806   H     0.37226   0.35781   0.75210   0.00000  Uiso   1.00
C807   C     0.11666   0.58961   0.81314   0.00000  Uiso   1.00
O808   O     0.14660   0.60476   0.84336   0.00000  Uiso   1.00
O809   O     0.10457   0.61445   0.76324   0.00000  Uiso   1.00
H810   H     0.12413   0.64343   0.75487   0.00000  Uiso   1.00
O811   O     0.75000   0.42946   0.88092   0.00000  Uiso   1.00
O812   O     0.75000   0.57054   0.78575   0.00000  Uiso   1.00
O813   O     0.75000   0.57054   0.88092   0.00000  Uiso   1.00
O814   O     0.75000   0.42946   0.78575   0.00000  Uiso   1.00
H815   H     0.96082   0.37633   0.82566   0.00000  Uiso   1.00
H816   H     0.53935   0.62312   0.83710   0.00000  Uiso   1.00
H817   H     0.96066   0.62330   0.84221   0.00000  Uiso   1.00
H818   H     0.53954   0.37605   0.83010   0.00000  Uiso   1.00
C819   C     0.75038   0.40666   0.83337   0.00000  Uiso   1.00
C820   C     0.74969   0.59334   0.83335   0.00000  Uiso   1.00
O821   O     0.68513   0.50000   0.88093   0.00000  Uiso   1.00
O822   O     0.81487   0.50000   0.78573   0.00000  Uiso   1.00
O823   O     0.81487   0.50000   0.88093   0.00000  Uiso   1.00
O824   O     0.68513   0.50000   0.78573   0.00000  Uiso   1.00
C825   C     0.66435   0.50005   0.83327   0.00000  Uiso   1.00
C826   C     0.83565   0.49987   0.83336   0.00000  Uiso   1.00
Cu827  Cu    0.75000   0.50000   0.88969   0.00000  Uiso   1.00
Cu828  Cu    0.75000   0.50000   0.77697   0.00000  Uiso   1.00
N829   N     0.75000   0.50000   0.69227   0.00000  Uiso   1.00
N830   N     0.75000   0.50000   0.97439   0.00000  Uiso   1.00
C831   C     0.90667   0.54414   0.84085   0.00000  Uiso   1.00
C832   C     0.59341   0.45510   0.83714   0.00000  Uiso   1.00
C833   C     0.90695   0.45561   0.82597   0.00000  Uiso   1.00
C834   C     0.59288   0.54419   0.82840   0.00000  Uiso   1.00
C835   C     0.88390   0.49984   0.83351   0.00000  Uiso   1.00
C836   C     0.61610   0.49980   0.83315   0.00000  Uiso   1.00
C837   C     0.95341   0.45519   0.82968   0.00000  Uiso   1.00
C838   C     0.54653   0.54431   0.83314   0.00000  Uiso   1.00
C839   C     0.95324   0.54436   0.83917   0.00000  Uiso   1.00
C840   C     0.54682   0.45487   0.83513   0.00000  Uiso   1.00
C841   C     0.97660   0.49970   0.83504   0.00000  Uiso   1.00
C842   C     0.52339   0.49961   0.83494   0.00000  Uiso   1.00
C843   C     0.97729   0.41119   0.82841   0.00000  Uiso   1.00
C844   C     0.52275   0.58827   0.83633   0.00000  Uiso   1.00
C845   C     0.97705   0.58830   0.84005   0.00000  Uiso   1.00
C846   C     0.52305   0.41100   0.83176   0.00000  Uiso   1.00
C847   C     0.75026   0.35509   0.83348   0.00000  Uiso   1.00
C848   C     0.74981   0.64491   0.83345   0.00000  Uiso   1.00
C849   C     0.88132   0.59016   0.84730   0.00000  Uiso   1.00
O850   O     0.88606   0.61534   0.89005   0.00000  Uiso   1.00
O851   O     0.85205   0.60438   0.80422   0.00000  Uiso   1.00
H852   H     0.83705   0.63645   0.81322   0.00000  Uiso   1.00
C853   C     0.61887   0.40889   0.84076   0.00000  Uiso   1.00
O854   O     0.61321   0.38107   0.88099   0.00000  Uiso   1.00
O855   O     0.64934   0.39755   0.79799   0.00000  Uiso   1.00
H856   H     0.66467   0.36532   0.80521   0.00000  Uiso   1.00
C857   C     0.88249   0.41057   0.81093   0.00000  Uiso   1.00
O858   O     0.85396   0.39482   0.84291   0.00000  Uiso   1.00
O859   O     0.89209   0.38681   0.75949   0.00000  Uiso   1.00
H860   H     0.87226   0.35781   0.75210   0.00000  Uiso   1.00
C861   C     0.61666   0.58961   0.81314   0.00000  Uiso   1.00
O862   O     0.64660   0.60476   0.84336   0.00000  Uiso   1.00
O863   O     0.60457   0.61445   0.76324   0.00000  Uiso   1.00
H864   H     0.62413   0.64343   0.75487   0.00000  Uiso   1.00
O865   O     0.25000   0.76280   0.88092   0.00000  Uiso   1.00
O866   O     0.25000   0.90387   0.78575   0.00000  Uiso   1.00
O867   O     0.25000   0.90387   0.88092   0.00000  Uiso   1.00
O868   O     0.25000   0.76280   0.78575   0.00000  Uiso   1.00
H869   H     0.46082   0.70967   0.82566   0.00000  Uiso   1.00
H870   H     0.03935   0.95645   0.83710   0.00000  Uiso   1.00
H871   H     0.46066   0.95663   0.84221   0.00000  Uiso   1.00
H872   H     0.03954   0.70939   0.83010   0.00000  Uiso   1.00
C873   C     0.25038   0.74000   0.83337   0.00000  Uiso   1.00
C874   C     0.24969   0.92667   0.83335   0.00000  Uiso   1.00
O875   O     0.18513   0.83333   0.88093   0.00000  Uiso   1.00
O876   O     0.31487   0.83333   0.78573   0.00000  Uiso   1.00
O877   O     0.31487   0.83333   0.88093   0.00000  Uiso   1.00
O878   O     0.18513   0.83333   0.78573   0.00000  Uiso   1.00
C879   C     0.16435   0.83338   0.83327   0.00000  Uiso   1.00
C880   C     0.33565   0.83320   0.83336   0.00000  Uiso   1.00
Cu881  Cu    0.25000   0.83333   0.88969   0.00000  Uiso   1.00
Cu882  Cu    0.25000   0.83333   0.77697   0.00000  Uiso   1.00
N883   N     0.25000   0.83333   0.69227   0.00000  Uiso   1.00
N884   N     0.25000   0.83333   0.97439   0.00000  Uiso   1.00
C885   C     0.40667   0.87747   0.84085   0.00000  Uiso   1.00
C886   C     0.09341   0.78844   0.83714   0.00000  Uiso   1.00
C887   C     0.40695   0.78894   0.82597   0.00000  Uiso   1.00
C888   C     0.09288   0.87753   0.82840   0.00000  Uiso   1.00
C889   C     0.38390   0.83317   0.83351   0.00000  Uiso   1.00
C890   C     0.11610   0.83313   0.83315   0.00000  Uiso   1.00
C891   C     0.45341   0.78853   0.82968   0.00000  Uiso   1.00
C892   C     0.04653   0.87764   0.83314   0.00000  Uiso   1.00
C893   C     0.45324   0.87770   0.83917   0.00000  Uiso   1.00
C894   C     0.04682   0.78820   0.83513   0.00000  Uiso   1.00
C895   C     0.47660   0.83303   0.83504   0.00000  Uiso   1.00
C896   C     0.02339   0.83295   0.83494   0.00000  Uiso   1.00
C897   C     0.47729   0.74452   0.82841   0.00000  Uiso   1.00
C898   C     0.02275   0.92161   0.83633   0.00000  Uiso   1.00
C899   C     0.47705   0.92163   0.84005   0.00000  Uiso   1.00
C900   C     0.02305   0.74434   0.83176   0.00000  Uiso   1.00
C901   C     0.25026   0.68842   0.83348   0.00000  Uiso   1.00
C902   C     0.24981   0.97824   0.83345   0.00000  Uiso   1.00
C903   C     0.38132   0.92349   0.84730   0.00000  Uiso   1.00
O904   O     0.38606   0.94868   0.89005   0.00000  Uiso   1.00
O905   O     0.35205   0.93771   0.80422   0.00000  Uiso   1.00
H906   H     0.33705   0.96979   0.81322   0.00000  Uiso   1.00
C907   C     0.11887   0.74223   0.84076   0.00000  Uiso   1.00
O908   O     0.11321   0.71440   0.88099   0.00000  Uiso   1.00
O909   O     0.14934   0.73089   0.79799   0.00000  Uiso   1.00
H910   H     0.16467   0.69866   0.80521   0.00000  Uiso   1.00
C911   C     0.38249   0.74390   0.81093   0.00000  Uiso   1.00
O912   O     0.35396   0.72816   0.84291   0.00000  Uiso   1.00
O913   O     0.39209   0.72014   0.75949   0.00000  Uiso   1.00
H914   H     0.37226   0.69114   0.75210   0.00000  Uiso   1.00
C915   C     0.11666   0.92294   0.81314   0.00000  Uiso   1.00
O916   O     0.14660   0.93809   0.84336   0.00000  Uiso   1.00
O917   O     0.10457   0.94779   0.76324   0.00000  Uiso   1.00
H918   H     0.12413   0.97676   0.75487   0.00000  Uiso   1.00
O919   O     0.75000   0.76280   0.88092   0.00000  Uiso   1.00
O920   O     0.75000   0.90387   0.78575   0.00000  Uiso   1.00
O921   O     0.75000   0.90387   0.88092   0.00000  Uiso   1.00
O922   O     0.75000   0.76280   0.78575   0.00000  Uiso   1.00
H923   H     0.96082   0.70967   0.82566   0.00000  Uiso   1.00
H924   H     0.53935   0.95645   0.83710   0.00000  Uiso   1.00
H925   H     0.96066   0.95663   0.84221   0.00000  Uiso   1.00
H926   H     0.53954   0.70939   0.83010   0.00000  Uiso   1.00
C927   C     0.75038   0.74000   0.83337   0.00000  Uiso   1.00
C928   C     0.74969   0.92667   0.83335   0.00000  Uiso   1.00
O929   O     0.68513   0.83333   0.88093   0.00000  Uiso   1.00
O930   O     0.81487   0.83333   0.78573   0.00000  Uiso   1.00
O931   O     0.81487   0.83333   0.88093   0.00000  Uiso   1.00
O932   O     0.68513   0.83333   0.78573   0.00000  Uiso   1.00
C933   C     0.66435   0.83338   0.83327   0.00000  Uiso   1.00
C934   C     0.83565   0.83320   0.83336   0.00000  Uiso   1.00
Cu935  Cu    0.75000   0.83333   0.88969   0.00000  Uiso   1.00
Cu936  Cu    0.75000   0.83333   0.77697   0.00000  Uiso   1.00
N937   N     0.75000   0.83333   0.69227   0.00000  Uiso   1.00
N938   N     0.75000   0.83333   0.97439   0.00000  Uiso   1.00
C939   C     0.90667   0.87747   0.84085   0.00000  Uiso   1.00
C940   C     0.59341   0.78844   0.83714   0.00000  Uiso   1.00
C941   C     0.90695   0.78894   0.82597   0.00000  Uiso   1.00
C942   C     0.59288   0.87753   0.82840   0.00000  Uiso   1.00
C943   C     0.88390   0.83317   0.83351   0.00000  Uiso   1.00
C944   C     0.61610   0.83313   0.83315   0.00000  Uiso   1.00
C945   C     0.95341   0.78853   0.82968   0.00000  Uiso   1.00
C946   C     0.54653   0.87764   0.83314   0.00000  Uiso   1.00
C947   C     0.95324   0.87770   0.83917   0.00000  Uiso   1.00
C948   C     0.54682   0.78820   0.83513   0.00000  Uiso   1.00
C949   C     0.97660   0.83303   0.83504   0.00000  Uiso   1.00
C950   C     0.52339   0.83295   0.83494   0.00000  Uiso   1.00
C951   C     0.97729   0.74452   0.82841   0.00000  Uiso   1.00
C952   C     0.52275   0.92161   0.83633   0.00000  Uiso   1.00
C953   C     0.97705   0.92163   0.84005   0.00000  Uiso   1.00
C954   C     0.52305   0.74434   0.83176   0.00000  Uiso   1.00
C955   C     0.75026   0.68842   0.83348   0.00000  Uiso   1.00
C956   C     0.74981   0.97824   0.83345   0.00000  Uiso   1.00
C957   C     0.88132   0.92349   0.84730   0.00000  Uiso   1.00
O958   O     0.88606   0.94868   0.89005   0.00000  Uiso   1.00
O959   O     0.85205   0.93771   0.80422   0.00000  Uiso   1.00
H960   H     0.83705   0.96979   0.81322   0.00000  Uiso   1.00
C961   C     0.61887   0.74223   0.84076   0.00000  Uiso   1.00
O962   O     0.61321   0.71440   0.88099   0.00000  Uiso   1.00
O963   O     0.64934   0.73089   0.79799   0.00000  Uiso   1.00
H964   H     0.66467   0.69866   0.80521   0.00000  Uiso   1.00
C965   C     0.88249   0.74390   0.81093   0.00000  Uiso   1.00
O966   O     0.85396   0.72816   0.84291   0.00000  Uiso   1.00
O967   O     0.89209   0.72014   0.75949   0.00000  Uiso   1.00
H968   H     0.87226   0.69114   0.75210   0.00000  Uiso   1.00
C969   C     0.61666   0.92294   0.81314   0.00000  Uiso   1.00
O970   O     0.64660   0.93809   0.84336   0.00000  Uiso   1.00
O971   O     0.60457   0.94779   0.76324   0.00000  Uiso   1.00
H972   H     0.62413   0.97676   0.75487   0.00000  Uiso   1.00
loop_
_geom_bond_atom_site_label_1
_geom_bond_atom_site_label_2
_geom_bond_distance
_geom_bond_site_symmetry_2
_ccdc_geom_bond_type
O1     Cu17    1.944   .     S
O1     C9      1.275   .     A
O2     Cu18    1.944   .     S
O2     C10     1.276   .     A
O3     C10     1.275   .     A
O3     Cu17    1.944   .     S
O4     Cu18    1.944   .     S
O4     C9      1.276   .     A
H5     C33     1.081   .     S
H6     C34     1.081   .     S
H7     C35     1.080   .     S
H8     C36     1.080   .     S
C9     C37     1.414   .     S
C10    C38     1.414   .     S
O11    C15     1.278   .     A
O11    Cu17    1.973   .     S
O12    C16     1.278   .     A
O12    Cu18    1.973   .     S
O13    Cu17    1.973   .     S
O13    C16     1.278   .     A
O14    Cu18    1.973   .     S
O14    C15     1.277   .     A
C15    C26     1.460   .     S
C16    C25     1.460   .     S
Cu17   N20     1.980   .     S
Cu17   Cu18    2.634   .     S
Cu18   N19     1.980   .     S
N19    N668    1.197   1_554 S
N20    N343    1.197   .     S
C21    C39     1.482   .     S
C21    C25     1.408   .     A
C21    C29     1.409   .     A
C22    C43     1.483   .     S
C22    C26     1.409   .     A
C22    C30     1.410   .     A
C23    C27     1.408   .     A
C23    C25     1.408   .     A
C23    C47     1.483   .     S
C24    C51     1.483   .     S
C24    C26     1.408   .     A
C24    C28     1.407   .     A
C27    C33     1.405   .     A
C27    C31     1.414   .     A
C28    C34     1.404   .     A
C28    C32     1.413   .     A
C29    C31     1.416   .     A
C29    C35     1.405   .     A
C30    C32     1.415   .     A
C30    C36     1.405   .     A
C31    C86     1.415   .     S
C32    C85     1.415   1_455 S
C33    C90     1.386   .     S
C34    C89     1.385   1_455 S
C35    C88     1.385   .     S
C36    C87     1.386   1_455 S
C37    C254    1.193   1_545 S
C38    C145    1.193   .     S
C39    O40     1.223   .     D
C39    O41     1.395   .     S
O41    H42     1.011   .     S
C43    O44     1.223   .     D
C43    O45     1.395   .     S
O45    H46     1.011   .     S
C47    O49     1.398   .     S
C47    O48     1.222   .     D
O49    H50     1.012   .     S
C51    O52     1.222   .     D
C51    O53     1.398   .     S
O53    H54     1.011   .     S
O55    Cu71    1.944   .     S
O55    C63     1.275   .     A
O56    Cu72    1.944   .     S
O56    C64     1.276   .     A
O57    C64     1.275   .     A
O57    Cu71    1.944   .     S
O58    Cu72    1.944   .     S
O58    C63     1.276   .     A
H59    C87     1.081   .     S
H60    C88     1.081   .     S
H61    C89     1.080   .     S
H62    C90     1.080   .     S
C63    C91     1.414   .     S
C64    C92     1.414   .     S
O65    C69     1.278   .     A
O65    Cu71    1.973   .     S
O66    C70     1.278   .     A
O66    Cu72    1.973   .     S
O67    Cu71    1.973   .     S
O67    C70     1.278   .     A
O68    Cu72    1.973   .     S
O68    C69     1.277   .     A
C69    C80     1.460   .     S
C70    C79     1.460   .     S
Cu71   N74     1.980   .     S
Cu71   Cu72    2.634   .     S
Cu72   N73     1.980   .     S
N73    N722    1.197   1_554 S
N74    N397    1.197   .     S
C75    C93     1.482   .     S
C75    C79     1.408   .     A
C75    C83     1.409   .     A
C76    C97     1.483   .     S
C76    C80     1.409   .     A
C76    C84     1.410   .     A
C77    C81     1.408   .     A
C77    C79     1.408   .     A
C77    C101    1.483   .     S
C78    C105    1.483   .     S
C78    C80     1.408   .     A
C78    C82     1.407   .     A
C81    C87     1.405   .     A
C81    C85     1.414   .     A
C82    C88     1.404   .     A
C82    C86     1.413   .     A
C83    C85     1.416   .     A
C83    C89     1.405   .     A
C84    C86     1.415   .     A
C84    C90     1.405   .     A
C85    C32     1.415   1_655 S
C87    C36     1.386   1_655 S
C89    C34     1.385   1_655 S
C91    C308    1.193   1_545 S
C92    C199    1.193   .     S
C93    O94     1.223   .     D
C93    O95     1.395   .     S
O95    H96     1.011   .     S
C97    O98     1.223   .     D
C97    O99     1.395   .     S
O99    H100    1.011   .     S
C101   O103    1.398   .     S
C101   O102    1.222   .     D
O103   H104    1.012   .     S
C105   O106    1.222   .     D
C105   O107    1.398   .     S
O107   H108    1.011   .     S
O109   Cu125   1.944   .     S
O109   C117    1.275   .     A
O110   Cu126   1.944   .     S
O110   C118    1.276   .     A
O111   C118    1.275   .     A
O111   Cu125   1.944   .     S
O112   Cu126   1.944   .     S
O112   C117    1.276   .     A
H113   C141    1.081   .     S
H114   C142    1.081   .     S
H115   C143    1.080   .     S
H116   C144    1.080   .     S
C117   C145    1.414   .     S
C118   C146    1.414   .     S
O119   C123    1.278   .     A
O119   Cu125   1.973   .     S
O120   C124    1.278   .     A
O120   Cu126   1.973   .     S
O121   Cu125   1.973   .     S
O121   C124    1.278   .     A
O122   Cu126   1.973   .     S
O122   C123    1.277   .     A
C123   C134    1.460   .     S
C124   C133    1.460   .     S
Cu125  N128    1.980   .     S
Cu125  Cu126   2.634   .     S
Cu126  N127    1.980   .     S
N127   N776    1.197   1_554 S
N128   N451    1.197   .     S
C129   C147    1.482   .     S
C129   C133    1.408   .     A
C129   C137    1.409   .     A
C130   C151    1.483   .     S
C130   C134    1.409   .     A
C130   C138    1.410   .     A
C131   C135    1.408   .     A
C131   C133    1.408   .     A
C131   C155    1.483   .     S
C132   C159    1.483   .     S
C132   C134    1.408   .     A
C132   C136    1.407   .     A
C135   C141    1.405   .     A
C135   C139    1.414   .     A
C136   C142    1.404   .     A
C136   C140    1.413   .     A
C137   C139    1.416   .     A
C137   C143    1.405   .     A
C138   C140    1.415   .     A
C138   C144    1.405   .     A
C139   C194    1.415   .     S
C140   C193    1.415   1_455 S
C141   C198    1.386   .     S
C142   C197    1.385   1_455 S
C143   C196    1.385   .     S
C144   C195    1.386   1_455 S
C146   C253    1.193   .     S
C147   O148    1.223   .     D
C147   O149    1.395   .     S
O149   H150    1.011   .     S
C151   O152    1.223   .     D
C151   O153    1.395   .     S
O153   H154    1.011   .     S
C155   O157    1.398   .     S
C155   O156    1.222   .     D
O157   H158    1.012   .     S
C159   O160    1.222   .     D
C159   O161    1.398   .     S
O161   H162    1.011   .     S
O163   Cu179   1.944   .     S
O163   C171    1.275   .     A
O164   Cu180   1.944   .     S
O164   C172    1.276   .     A
O165   C172    1.275   .     A
O165   Cu179   1.944   .     S
O166   Cu180   1.944   .     S
O166   C171    1.276   .     A
H167   C195    1.081   .     S
H168   C196    1.081   .     S
H169   C197    1.080   .     S
H170   C198    1.080   .     S
C171   C199    1.414   .     S
C172   C200    1.414   .     S
O173   C177    1.278   .     A
O173   Cu179   1.973   .     S
O174   C178    1.278   .     A
O174   Cu180   1.973   .     S
O175   Cu179   1.973   .     S
O175   C178    1.278   .     A
O176   Cu180   1.973   .     S
O176   C177    1.277   .     A
C177   C188    1.460   .     S
C178   C187    1.460   .     S
Cu179  N182    1.980   .     S
Cu179  Cu180   2.634   .     S
Cu180  N181    1.980   .     S
N181   N830    1.197   1_554 S
N182   N505    1.197   .     S
C183   C201    1.482   .     S
C183   C187    1.408   .     A
C183   C191    1.409   .     A
C184   C205    1.483   .     S
C184   C188    1.409   .     A
C184   C192    1.410   .     A
C185   C189    1.408   .     A
C185   C187    1.408   .     A
C185   C209    1.483   .     S
C186   C213    1.483   .     S
C186   C188    1.408   .     A
C186   C190    1.407   .     A
C189   C195    1.405   .     A
C189   C193    1.414   .     A
C190   C196    1.404   .     A
C190   C194    1.413   .     A
C191   C193    1.416   .     A
C191   C197    1.405   .     A
C192   C194    1.415   .     A
C192   C198    1.405   .     A
C193   C140    1.415   1_655 S
C195   C144    1.386   1_655 S
C197   C142    1.385   1_655 S
C200   C307    1.193   .     S
C201   O202    1.223   .     D
C201   O203    1.395   .     S
O203   H204    1.011   .     S
C205   O206    1.223   .     D
C205   O207    1.395   .     S
O207   H208    1.011   .     S
C209   O211    1.398   .     S
C209   O210    1.222   .     D
O211   H212    1.012   .     S
C213   O214    1.222   .     D
C213   O215    1.398   .     S
O215   H216    1.011   .     S
O217   Cu233   1.944   .     S
O217   C225    1.275   .     A
O218   Cu234   1.944   .     S
O218   C226    1.276   .     A
O219   C226    1.275   .     A
O219   Cu233   1.944   .     S
O220   Cu234   1.944   .     S
O220   C225    1.276   .     A
H221   C249    1.081   .     S
H222   C250    1.081   .     S
H223   C251    1.080   .     S
H224   C252    1.080   .     S
C225   C253    1.414   .     S
C226   C254    1.414   .     S
O227   C231    1.278   .     A
O227   Cu233   1.973   .     S
O228   C232    1.278   .     A
O228   Cu234   1.973   .     S
O229   Cu233   1.973   .     S
O229   C232    1.278   .     A
O230   Cu234   1.973   .     S
O230   C231    1.277   .     A
C231   C242    1.460   .     S
C232   C241    1.460   .     S
Cu233  N236    1.980   .     S
Cu233  Cu234   2.634   .     S
Cu234  N235    1.980   .     S
N235   N884    1.197   1_554 S
N236   N559    1.197   .     S
C237   C255    1.482   .     S
C237   C241    1.408   .     A
C237   C245    1.409   .     A
C238   C259    1.483   .     S
C238   C242    1.409   .     A
C238   C246    1.410   .     A
C239   C243    1.408   .     A
C239   C241    1.408   .     A
C239   C263    1.483   .     S
C240   C267    1.483   .     S
C240   C242    1.408   .     A
C240   C244    1.407   .     A
C243   C249    1.405   .     A
C243   C247    1.414   .     A
C244   C250    1.404   .     A
C244   C248    1.413   .     A
C245   C247    1.416   .     A
C245   C251    1.405   .     A
C246   C248    1.415   .     A
C246   C252    1.405   .     A
C247   C302    1.415   .     S
C248   C301    1.415   1_455 S
C249   C306    1.386   .     S
C250   C305    1.385   1_455 S
C251   C304    1.385   .     S
C252   C303    1.386   1_455 S
C254   C37     1.193   1_565 S
C255   O256    1.223   .     D
C255   O257    1.395   .     S
O257   H258    1.011   .     S
C259   O260    1.223   .     D
C259   O261    1.395   .     S
O261   H262    1.011   .     S
C263   O265    1.398   .     S
C263   O264    1.222   .     D
O265   H266    1.012   .     S
C267   O268    1.222   .     D
C267   O269    1.398   .     S
O269   H270    1.011   .     S
O271   Cu287   1.944   .     S
O271   C279    1.275   .     A
O272   Cu288   1.944   .     S
O272   C280    1.276   .     A
O273   C280    1.275   .     A
O273   Cu287   1.944   .     S
O274   Cu288   1.944   .     S
O274   C279    1.276   .     A
H275   C303    1.081   .     S
H276   C304    1.081   .     S
H277   C305    1.080   .     S
H278   C306    1.080   .     S
C279   C307    1.414   .     S
C280   C308    1.414   .     S
O281   C285    1.278   .     A
O281   Cu287   1.973   .     S
O282   C286    1.278   .     A
O282   Cu288   1.973   .     S
O283   Cu287   1.973   .     S
O283   C286    1.278   .     A
O284   Cu288   1.973   .     S
O284   C285    1.277   .     A
C285   C296    1.460   .     S
C286   C295    1.460   .     S
Cu287  N290    1.980   .     S
Cu287  Cu288   2.634   .     S
Cu288  N289    1.980   .     S
N289   N938    1.197   1_554 S
N290   N613    1.197   .     S
C291   C309    1.482   .     S
C291   C295    1.408   .     A
C291   C299    1.409   .     A
C292   C313    1.483   .     S
C292   C296    1.409   .     A
C292   C300    1.410   .     A
C293   C297    1.408   .     A
C293   C295    1.408   .     A
C293   C317    1.483   .     S
C294   C321    1.483   .     S
C294   C296    1.408   .     A
C294   C298    1.407   .     A
C297   C303    1.405   .     A
C297   C301    1.414   .     A
C298   C304    1.404   .     A
C298   C302    1.413   .     A
C299   C301    1.416   .     A
C299   C305    1.405   .     A
C300   C302    1.415   .     A
C300   C306    1.405   .     A
C301   C248    1.415   1_655 S
C303   C252    1.386   1_655 S
C305   C250    1.385   1_655 S
C308   C91     1.193   1_565 S
C309   O310    1.223   .     D
C309   O311    1.395   .     S
O311   H312    1.011   .     S
C313   O314    1.223   .     D
C313   O315    1.395   .     S
O315   H316    1.011   .     S
C317   O319    1.398   .     S
C317   O318    1.222   .     D
O319   H320    1.012   .     S
C321   O322    1.222   .     D
C321   O323    1.398   .     S
O323   H324    1.011   .     S
O325   Cu341   1.944   .     S
O325   C333    1.275   .     A
O326   Cu342   1.944   .     S
O326   C334    1.276   .     A
O327   C334    1.275   .     A
O327   Cu341   1.944   .     S
O328   Cu342   1.944   .     S
O328   C333    1.276   .     A
H329   C357    1.081   .     S
H330   C358    1.081   .     S
H331   C359    1.080   .     S
H332   C360    1.080   .     S
C333   C361    1.414   .     S
C334   C362    1.414   .     S
O335   C339    1.278   .     A
O335   Cu341   1.973   .     S
O336   C340    1.278   .     A
O336   Cu342   1.973   .     S
O337   Cu341   1.973   .     S
O337   C340    1.278   .     A
O338   Cu342   1.973   .     S
O338   C339    1.277   .     A
C339   C350    1.460   .     S
C340   C349    1.460   .     S
Cu341  N344    1.980   .     S
Cu341  Cu342   2.634   .     S
Cu342  N343    1.980   .     S
N344   N667    1.197   .     S
C345   C363    1.482   .     S
C345   C349    1.408   .     A
C345   C353    1.409   .     A
C346   C367    1.483   .     S
C346   C350    1.409   .     A
C346   C354    1.410   .     A
C347   C351    1.408   .     A
C347   C349    1.408   .     A
C347   C371    1.483   .     S
C348   C375    1.483   .     S
C348   C350    1.408   .     A
C348   C352    1.407   .     A
C351   C357    1.405   .     A
C351   C355    1.414   .     A
C352   C358    1.404   .     A
C352   C356    1.413   .     A
C353   C355    1.416   .     A
C353   C359    1.405   .     A
C354   C356    1.415   .     A
C354   C360    1.405   .     A
C355   C410    1.415   .     S
C356   C409    1.415   1_455 S
C357   C414    1.386   .     S
C358   C413    1.385   1_455 S
C359   C412    1.385   .     S
C360   C411    1.386   1_455 S
C361   C578    1.193   1_545 S
C362   C469    1.193   .     S
C363   O364    1.223   .     D
C363   O365    1.395   .     S
O365   H366    1.011   .     S
C367   O368    1.223   .     D
C367   O369    1.395   .     S
O369   H370    1.011   .     S
C371   O373    1.398   .     S
C371   O372    1.222   .     D
O373   H374    1.012   .     S
C375   O376    1.222   .     D
C375   O377    1.398   .     S
O377   H378    1.011   .     S
O379   Cu395   1.944   .     S
O379   C387    1.275   .     A
O380   Cu396   1.944   .     S
O380   C388    1.276   .     A
O381   C388    1.275   .     A
O381   Cu395   1.944   .     S
O382   Cu396   1.944   .     S
O382   C387    1.276   .     A
H383   C411    1.081   .     S
H384   C412    1.081   .     S
H385   C413    1.080   .     S
H386   C414    1.080   .     S
C387   C415    1.414   .     S
C388   C416    1.414   .     S
O389   C393    1.278   .     A
O389   Cu395   1.973   .     S
O390   C394    1.278   .     A
O390   Cu396   1.973   .     S
O391   Cu395   1.973   .     S
O391   C394    1.278   .     A
O392   Cu396   1.973   .     S
O392   C393    1.277   .     A
C393   C404    1.460   .     S
C394   C403    1.460   .     S
Cu395  N398    1.980   .     S
Cu395  Cu396   2.634   .     S
Cu396  N397    1.980   .     S
N398   N721    1.197   .     S
C399   C417    1.482   .     S
C399   C403    1.408   .     A
C399   C407    1.409   .     A
C400   C421    1.483   .     S
C400   C404    1.409   .     A
C400   C408    1.410   .     A
C401   C405    1.408   .     A
C401   C403    1.408   .     A
C401   C425    1.483   .     S
C402   C429    1.483   .     S
C402   C404    1.408   .     A
C402   C406    1.407   .     A
C405   C411    1.405   .     A
C405   C409    1.414   .     A
C406   C412    1.404   .     A
C406   C410    1.413   .     A
C407   C409    1.416   .     A
C407   C413    1.405   .     A
C408   C410    1.415   .     A
C408   C414    1.405   .     A
C409   C356    1.415   1_655 S
C411   C360    1.386   1_655 S
C413   C358    1.385   1_655 S
C415   C632    1.193   1_545 S
C416   C523    1.193   .     S
C417   O418    1.223   .     D
C417   O419    1.395   .     S
O419   H420    1.011   .     S
C421   O422    1.223   .     D
C421   O423    1.395   .     S
O423   H424    1.011   .     S
C425   O427    1.398   .     S
C425   O426    1.222   .     D
O427   H428    1.012   .     S
C429   O430    1.222   .     D
C429   O431    1.398   .     S
O431   H432    1.011   .     S
O433   Cu449   1.944   .     S
O433   C441    1.275   .     A
O434   Cu450   1.944   .     S
O434   C442    1.276   .     A
O435   C442    1.275   .     A
O435   Cu449   1.944   .     S
O436   Cu450   1.944   .     S
O436   C441    1.276   .     A
H437   C465    1.081   .     S
H438   C466    1.081   .     S
H439   C467    1.080   .     S
H440   C468    1.080   .     S
C441   C469    1.414   .     S
C442   C470    1.414   .     S
O443   C447    1.278   .     A
O443   Cu449   1.973   .     S
O444   C448    1.278   .     A
O444   Cu450   1.973   .     S
O445   Cu449   1.973   .     S
O445   C448    1.278   .     A
O446   Cu450   1.973   .     S
O446   C447    1.277   .     A
C447   C458    1.460   .     S
C448   C457    1.460   .     S
Cu449  N452    1.980   .     S
Cu449  Cu450   2.634   .     S
Cu450  N451    1.980   .     S
N452   N775    1.197   .     S
C453   C471    1.482   .     S
C453   C457    1.408   .     A
C453   C461    1.409   .     A
C454   C475    1.483   .     S
C454   C458    1.409   .     A
C454   C462    1.410   .     A
C455   C459    1.408   .     A
C455   C457    1.408   .     A
C455   C479    1.483   .     S
C456   C483    1.483   .     S
C456   C458    1.408   .     A
C456   C460    1.407   .     A
C459   C465    1.405   .     A
C459   C463    1.414   .     A
C460   C466    1.404   .     A
C460   C464    1.413   .     A
C461   C463    1.416   .     A
C461   C467    1.405   .     A
C462   C464    1.415   .     A
C462   C468    1.405   .     A
C463   C518    1.415   .     S
C464   C517    1.415   1_455 S
C465   C522    1.386   .     S
C466   C521    1.385   1_455 S
C467   C520    1.385   .     S
C468   C519    1.386   1_455 S
C470   C577    1.193   .     S
C471   O472    1.223   .     D
C471   O473    1.395   .     S
O473   H474    1.011   .     S
C475   O476    1.223   .     D
C475   O477    1.395   .     S
O477   H478    1.011   .     S
C479   O481    1.398   .     S
C479   O480    1.222   .     D
O481   H482    1.012   .     S
C483   O484    1.222   .     D
C483   O485    1.398   .     S
O485   H486    1.011   .     S
O487   Cu503   1.944   .     S
O487   C495    1.275   .     A
O488   Cu504   1.944   .     S
O488   C496    1.276   .     A
O489   C496    1.275   .     A
O489   Cu503   1.944   .     S
O490   Cu504   1.944   .     S
O490   C495    1.276   .     A
H491   C519    1.081   .     S
H492   C520    1.081   .     S
H493   C521    1.080   .     S
H494   C522    1.080   .     S
C495   C523    1.414   .     S
C496   C524    1.414   .     S
O497   C501    1.278   .     A
O497   Cu503   1.973   .     S
O498   C502    1.278   .     A
O498   Cu504   1.973   .     S
O499   Cu503   1.973   .     S
O499   C502    1.278   .     A
O500   Cu504   1.973   .     S
O500   C501    1.277   .     A
C501   C512    1.460   .     S
C502   C511    1.460   .     S
Cu503  N506    1.980   .     S
Cu503  Cu504   2.634   .     S
Cu504  N505    1.980   .     S
N506   N829    1.197   .     S
C507   C525    1.482   .     S
C507   C511    1.408   .     A
C507   C515    1.409   .     A
C508   C529    1.483   .     S
C508   C512    1.409   .     A
C508   C516    1.410   .     A
C509   C513    1.408   .     A
C509   C511    1.408   .     A
C509   C533    1.483   .     S
C510   C537    1.483   .     S
C510   C512    1.408   .     A
C510   C514    1.407   .     A
C513   C519    1.405   .     A
C513   C517    1.414   .     A
C514   C520    1.404   .     A
C514   C518    1.413   .     A
C515   C517    1.416   .     A
C515   C521    1.405   .     A
C516   C518    1.415   .     A
C516   C522    1.405   .     A
C517   C464    1.415   1_655 S
C519   C468    1.386   1_655 S
C521   C466    1.385   1_655 S
C524   C631    1.193   .     S
C525   O526    1.223   .     D
C525   O527    1.395   .     S
O527   H528    1.011   .     S
C529   O530    1.223   .     D
C529   O531    1.395   .     S
O531   H532    1.011   .     S
C533   O535    1.398   .     S
C533   O534    1.222   .     D
O535   H536    1.012   .     S
C537   O538    1.222   .     D
C537   O539    1.398   .     S
O539   H540    1.011   .     S
O541   Cu557   1.944   .     S
O541   C549    1.275   .     A
O542   Cu558   1.944   .     S
O542   C550    1.276   .     A
O543   C550    1.275   .     A
O543   Cu557   1.944   .     S
O544   Cu558   1.944   .     S
O544   C549    1.276   .     A
H545   C573    1.081   .     S
H546   C574    1.081   .     S
H547   C575    1.080   .     S
H548   C576    1.080   .     S
C549   C577    1.414   .     S
C550   C578    1.414   .     S
O551   C555    1.278   .     A
O551   Cu557   1.973   .     S
O552   C556    1.278   .     A
O552   Cu558   1.973   .     S
O553   Cu557   1.973   .     S
O553   C556    1.278   .     A
O554   Cu558   1.973   .     S
O554   C555    1.277   .     A
C555   C566    1.460   .     S
C556   C565    1.460   .     S
Cu557  N560    1.980   .     S
Cu557  Cu558   2.634   .     S
Cu558  N559    1.980   .     S
N560   N883    1.197   .     S
C561   C579    1.482   .     S
C561   C565    1.408   .     A
C561   C569    1.409   .     A
C562   C583    1.483   .     S
C562   C566    1.409   .     A
C562   C570    1.410   .     A
C563   C567    1.408   .     A
C563   C565    1.408   .     A
C563   C587    1.483   .     S
C564   C591    1.483   .     S
C564   C566    1.408   .     A
C564   C568    1.407   .     A
C567   C573    1.405   .     A
C567   C571    1.414   .     A
C568   C574    1.404   .     A
C568   C572    1.413   .     A
C569   C571    1.416   .     A
C569   C575    1.405   .     A
C570   C572    1.415   .     A
C570   C576    1.405   .     A
C571   C626    1.415   .     S
C572   C625    1.415   1_455 S
C573   C630    1.386   .     S
C574   C629    1.385   1_455 S
C575   C628    1.385   .     S
C576   C627    1.386   1_455 S
C578   C361    1.193   1_565 S
C579   O580    1.223   .     D
C579   O581    1.395   .     S
O581   H582    1.011   .     S
C583   O584    1.223   .     D
C583   O585    1.395   .     S
O585   H586    1.011   .     S
C587   O589    1.398   .     S
C587   O588    1.222   .     D
O589   H590    1.012   .     S
C591   O592    1.222   .     D
C591   O593    1.398   .     S
O593   H594    1.011   .     S
O595   Cu611   1.944   .     S
O595   C603    1.275   .     A
O596   Cu612   1.944   .     S
O596   C604    1.276   .     A
O597   C604    1.275   .     A
O597   Cu611   1.944   .     S
O598   Cu612   1.944   .     S
O598   C603    1.276   .     A
H599   C627    1.081   .     S
H600   C628    1.081   .     S
H601   C629    1.080   .     S
H602   C630    1.080   .     S
C603   C631    1.414   .     S
C604   C632    1.414   .     S
O605   C609    1.278   .     A
O605   Cu611   1.973   .     S
O606   C610    1.278   .     A
O606   Cu612   1.973   .     S
O607   Cu611   1.973   .     S
O607   C610    1.278   .     A
O608   Cu612   1.973   .     S
O608   C609    1.277   .     A
C609   C620    1.460   .     S
C610   C619    1.460   .     S
Cu611  N614    1.980   .     S
Cu611  Cu612   2.634   .     S
Cu612  N613    1.980   .     S
N614   N937    1.197   .     S
C615   C633    1.482   .     S
C615   C619    1.408   .     A
C615   C623    1.409   .     A
C616   C637    1.483   .     S
C616   C620    1.409   .     A
C616   C624    1.410   .     A
C617   C621    1.408   .     A
C617   C619    1.408   .     A
C617   C641    1.483   .     S
C618   C645    1.483   .     S
C618   C620    1.408   .     A
C618   C622    1.407   .     A
C621   C627    1.405   .     A
C621   C625    1.414   .     A
C622   C628    1.404   .     A
C622   C626    1.413   .     A
C623   C625    1.416   .     A
C623   C629    1.405   .     A
C624   C626    1.415   .     A
C624   C630    1.405   .     A
C625   C572    1.415   1_655 S
C627   C576    1.386   1_655 S
C629   C574    1.385   1_655 S
C632   C415    1.193   1_565 S
C633   O634    1.223   .     D
C633   O635    1.395   .     S
O635   H636    1.011   .     S
C637   O638    1.223   .     D
C637   O639    1.395   .     S
O639   H640    1.011   .     S
C641   O643    1.398   .     S
C641   O642    1.222   .     D
O643   H644    1.012   .     S
C645   O646    1.222   .     D
C645   O647    1.398   .     S
O647   H648    1.011   .     S
O649   Cu665   1.944   .     S
O649   C657    1.275   .     A
O650   Cu666   1.944   .     S
O650   C658    1.276   .     A
O651   C658    1.275   .     A
O651   Cu665   1.944   .     S
O652   Cu666   1.944   .     S
O652   C657    1.276   .     A
H653   C681    1.081   .     S
H654   C682    1.081   .     S
H655   C683    1.080   .     S
H656   C684    1.080   .     S
C657   C685    1.414   .     S
C658   C686    1.414   .     S
O659   C663    1.278   .     A
O659   Cu665   1.973   .     S
O660   C664    1.278   .     A
O660   Cu666   1.973   .     S
O661   Cu665   1.973   .     S
O661   C664    1.278   .     A
O662   Cu666   1.973   .     S
O662   C663    1.277   .     A
C663   C674    1.460   .     S
C664   C673    1.460   .     S
Cu665  N668    1.980   .     S
Cu665  Cu666   2.634   .     S
Cu666  N667    1.980   .     S
N668   N19     1.197   1_556 S
C669   C687    1.482   .     S
C669   C673    1.408   .     A
C669   C677    1.409   .     A
C670   C691    1.483   .     S
C670   C674    1.409   .     A
C670   C678    1.410   .     A
C671   C675    1.408   .     A
C671   C673    1.408   .     A
C671   C695    1.483   .     S
C672   C699    1.483   .     S
C672   C674    1.408   .     A
C672   C676    1.407   .     A
C675   C681    1.405   .     A
C675   C679    1.414   .     A
C676   C682    1.404   .     A
C676   C680    1.413   .     A
C677   C679    1.416   .     A
C677   C683    1.405   .     A
C678   C680    1.415   .     A
C678   C684    1.405   .     A
C679   C734    1.415   .     S
C680   C733    1.415   1_455 S
C681   C738    1.386   .     S
C682   C737    1.385   1_455 S
C683   C736    1.385   .     S
C684   C735    1.386   1_455 S
C685   C902    1.193   1_545 S
C686   C793    1.193   .     S
C687   O688    1.223   .     D
C687   O689    1.395   .     S
O689   H690    1.011   .     S
C691   O692    1.223   .     D
C691   O693    1.395   .     S
O693   H694    1.011   .     S
C695   O697    1.398   .     S
C695   O696    1.222   .     D
O697   H698    1.012   .     S
C699   O700    1.222   .     D
C699   O701    1.398   .     S
O701   H702    1.011   .     S
O703   Cu719   1.944   .     S
O703   C711    1.275   .     A
O704   Cu720   1.944   .     S
O704   C712    1.276   .     A
O705   C712    1.275   .     A
O705   Cu719   1.944   .     S
O706   Cu720   1.944   .     S
O706   C711    1.276   .     A
H707   C735    1.081   .     S
H708   C736    1.081   .     S
H709   C737    1.080   .     S
H710   C738    1.080   .     S
C711   C739    1.414   .     S
C712   C740    1.414   .     S
O713   C717    1.278   .     A
O713   Cu719   1.973   .     S
O714   C718    1.278   .     A
O714   Cu720   1.973   .     S
O715   Cu719   1.973   .     S
O715   C718    1.278   .     A
O716   Cu720   1.973   .     S
O716   C717    1.277   .     A
C717   C728    1.460   .     S
C718   C727    1.460   .     S
Cu719  N722    1.980   .     S
Cu719  Cu720   2.634   .     S
Cu720  N721    1.980   .     S
N722   N73     1.197   1_556 S
C723   C741    1.482   .     S
C723   C727    1.408   .     A
C723   C731    1.409   .     A
C724   C745    1.483   .     S
C724   C728    1.409   .     A
C724   C732    1.410   .     A
C725   C729    1.408   .     A
C725   C727    1.408   .     A
C725   C749    1.483   .     S
C726   C753    1.483   .     S
C726   C728    1.408   .     A
C726   C730    1.407   .     A
C729   C735    1.405   .     A
C729   C733    1.414   .     A
C730   C736    1.404   .     A
C730   C734    1.413   .     A
C731   C733    1.416   .     A
C731   C737    1.405   .     A
C732   C734    1.415   .     A
C732   C738    1.405   .     A
C733   C680    1.415   1_655 S
C735   C684    1.386   1_655 S
C737   C682    1.385   1_655 S
C739   C956    1.193   1_545 S
C740   C847    1.193   .     S
C741   O742    1.223   .     D
C741   O743    1.395   .     S
O743   H744    1.011   .     S
C745   O746    1.223   .     D
C745   O747    1.395   .     S
O747   H748    1.011   .     S
C749   O751    1.398   .     S
C749   O750    1.222   .     D
O751   H752    1.012   .     S
C753   O754    1.222   .     D
C753   O755    1.398   .     S
O755   H756    1.011   .     S
O757   Cu773   1.944   .     S
O757   C765    1.275   .     A
O758   Cu774   1.944   .     S
O758   C766    1.276   .     A
O759   C766    1.275   .     A
O759   Cu773   1.944   .     S
O760   Cu774   1.944   .     S
O760   C765    1.276   .     A
H761   C789    1.081   .     S
H762   C790    1.081   .     S
H763   C791    1.080   .     S
H764   C792    1.080   .     S
C765   C793    1.414   .     S
C766   C794    1.414   .     S
O767   C771    1.278   .     A
O767   Cu773   1.973   .     S
O768   C772    1.278   .     A
O768   Cu774   1.973   .     S
O769   Cu773   1.973   .     S
O769   C772    1.278   .     A
O770   Cu774   1.973   .     S
O770   C771    1.277   .     A
C771   C782    1.460   .     S
C772   C781    1.460   .     S
Cu773  N776    1.980   .     S
Cu773  Cu774   2.634   .     S
Cu774  N775    1.980   .     S
N776   N127    1.197   1_556 S
C777   C795    1.482   .     S
C777   C781    1.408   .     A
C777   C785    1.409   .     A
C778   C799    1.483   .     S
C778   C782    1.409   .     A
C778   C786    1.410   .     A
C779   C783    1.408   .     A
C779   C781    1.408   .     A
C779   C803    1.483   .     S
C780   C807    1.483   .     S
C780   C782    1.408   .     A
C780   C784    1.407   .     A
C783   C789    1.405   .     A
C783   C787    1.414   .     A
C784   C790    1.404   .     A
C784   C788    1.413   .     A
C785   C787    1.416   .     A
C785   C791    1.405   .     A
C786   C788    1.415   .     A
C786   C792    1.405   .     A
C787   C842    1.415   .     S
C788   C841    1.415   1_455 S
C789   C846    1.386   .     S
C790   C845    1.385   1_455 S
C791   C844    1.385   .     S
C792   C843    1.386   1_455 S
C794   C901    1.193   .     S
C795   O796    1.223   .     D
C795   O797    1.395   .     S
O797   H798    1.011   .     S
C799   O800    1.223   .     D
C799   O801    1.395   .     S
O801   H802    1.011   .     S
C803   O805    1.398   .     S
C803   O804    1.222   .     D
O805   H806    1.012   .     S
C807   O808    1.222   .     D
C807   O809    1.398   .     S
O809   H810    1.011   .     S
O811   Cu827   1.944   .     S
O811   C819    1.275   .     A
O812   Cu828   1.944   .     S
O812   C820    1.276   .     A
O813   C820    1.275   .     A
O813   Cu827   1.944   .     S
O814   Cu828   1.944   .     S
O814   C819    1.276   .     A
H815   C843    1.081   .     S
H816   C844    1.081   .     S
H817   C845    1.080   .     S
H818   C846    1.080   .     S
C819   C847    1.414   .     S
C820   C848    1.414   .     S
O821   C825    1.278   .     A
O821   Cu827   1.973   .     S
O822   C826    1.278   .     A
O822   Cu828   1.973   .     S
O823   Cu827   1.973   .     S
O823   C826    1.278   .     A
O824   Cu828   1.973   .     S
O824   C825    1.277   .     A
C825   C836    1.460   .     S
C826   C835    1.460   .     S
Cu827  N830    1.980   .     S
Cu827  Cu828   2.634   .     S
Cu828  N829    1.980   .     S
N830   N181    1.197   1_556 S
C831   C849    1.482   .     S
C831   C835    1.408   .     A
C831   C839    1.409   .     A
C832   C853    1.483   .     S
C832   C836    1.409   .     A
C832   C840    1.410   .     A
C833   C837    1.408   .     A
C833   C835    1.408   .     A
C833   C857    1.483   .     S
C834   C861    1.483   .     S
C834   C836    1.408   .     A
C834   C838    1.407   .     A
C837   C843    1.405   .     A
C837   C841    1.414   .     A
C838   C844    1.404   .     A
C838   C842    1.413   .     A
C839   C841    1.416   .     A
C839   C845    1.405   .     A
C840   C842    1.415   .     A
C840   C846    1.405   .     A
C841   C788    1.415   1_655 S
C843   C792    1.386   1_655 S
C845   C790    1.385   1_655 S
C848   C955    1.193   .     S
C849   O850    1.223   .     D
C849   O851    1.395   .     S
O851   H852    1.011   .     S
C853   O854    1.223   .     D
C853   O855    1.395   .     S
O855   H856    1.011   .     S
C857   O859    1.398   .     S
C857   O858    1.222   .     D
O859   H860    1.012   .     S
C861   O862    1.222   .     D
C861   O863    1.398   .     S
O863   H864    1.011   .     S
O865   Cu881   1.944   .     S
O865   C873    1.275   .     A
O866   Cu882   1.944   .     S
O866   C874    1.276   .     A
O867   C874    1.275   .     A
O867   Cu881   1.944   .     S
O868   Cu882   1.944   .     S
O868   C873    1.276   .     A
H869   C897    1.081   .     S
H870   C898    1.081   .     S
H871   C899    1.080   .     S
H872   C900    1.080   .     S
C873   C901    1.414   .     S
C874   C902    1.414   .     S
O875   C879    1.278   .     A
O875   Cu881   1.973   .     S
O876   C880    1.278   .     A
O876   Cu882   1.973   .     S
O877   Cu881   1.973   .     S
O877   C880    1.278   .     A
O878   Cu882   1.973   .     S
O878   C879    1.277   .     A
C879   C890    1.460   .     S
C880   C889    1.460   .     S
Cu881  N884    1.980   .     S
Cu881  Cu882   2.634   .     S
Cu882  N883    1.980   .     S
N884   N235    1.197   1_556 S
C885   C903    1.482   .     S
C885   C889    1.408   .     A
C885   C893    1.409   .     A
C886   C907    1.483   .     S
C886   C890    1.409   .     A
C886   C894    1.410   .     A
C887   C891    1.408   .     A
C887   C889    1.408   .     A
C887   C911    1.483   .     S
C888   C915    1.483   .     S
C888   C890    1.408   .     A
C888   C892    1.407   .     A
C891   C897    1.405   .     A
C891   C895    1.414   .     A
C892   C898    1.404   .     A
C892   C896    1.413   .     A
C893   C895    1.416   .     A
C893   C899    1.405   .     A
C894   C896    1.415   .     A
C894   C900    1.405   .     A
C895   C950    1.415   .     S
C896   C949    1.415   1_455 S
C897   C954    1.386   .     S
C898   C953    1.385   1_455 S
C899   C952    1.385   .     S
C900   C951    1.386   1_455 S
C902   C685    1.193   1_565 S
C903   O904    1.223   .     D
C903   O905    1.395   .     S
O905   H906    1.011   .     S
C907   O908    1.223   .     D
C907   O909    1.395   .     S
O909   H910    1.011   .     S
C911   O913    1.398   .     S
C911   O912    1.222   .     D
O913   H914    1.012   .     S
C915   O916    1.222   .     D
C915   O917    1.398   .     S
O917   H918    1.011   .     S
O919   Cu935   1.944   .     S
O919   C927    1.275   .     A
O920   Cu936   1.944   .     S
O920   C928    1.276   .     A
O921   C928    1.275   .     A
O921   Cu935   1.944   .     S
O922   Cu936   1.944   .     S
O922   C927    1.276   .     A
H923   C951    1.081   .     S
H924   C952    1.081   .     S
H925   C953    1.080   .     S
H926   C954    1.080   .     S
C927   C955    1.414   .     S
C928   C956    1.414   .     S
O929   C933    1.278   .     A
O929   Cu935   1.973   .     S
O930   C934    1.278   .     A
O930   Cu936   1.973   .     S
O931   Cu935   1.973   .     S
O931   C934    1.278   .     A
O932   Cu936   1.973   .     S
O932   C933    1.277   .     A
C933   C944    1.460   .     S
C934   C943    1.460   .     S
Cu935  N938    1.980   .     S
Cu935  Cu936   2.634   .     S
Cu936  N937    1.980   .     S
N938   N289    1.197   1_556 S
C939   C957    1.482   .     S
C939   C943    1.408   .     A
C939   C947    1.409   .     A
C940   C961    1.483   .     S
C940   C944    1.409   .     A
C940   C948    1.410   .     A
C941   C945    1.408   .     A
C941   C943    1.408   .     A
C941   C965    1.483   .     S
C942   C969    1.483   .     S
C942   C944    1.408   .     A
C942   C946    1.407   .     A
C945   C951    1.405   .     A
C945   C949    1.414   .     A
C946   C952    1.404   .     A
C946   C950    1.413   .     A
C947   C949    1.416   .     A
C947   C953    1.405   .     A
C948   C950    1.415   .     A
C948   C954    1.405   .     A
C949   C896    1.415   1_655 S
C951   C900    1.386   1_655 S
C953   C898    1.385   1_655 S
C956   C739    1.193   1_565 S
C957   O958    1.223   .     D
C957   O959    1.395   .     S
O959   H960    1.011   .     S
C961   O962    1.223   .     D
C961   O963    1.395   .     S
O963   H964    1.011   .     S
C965   O967    1.398   .     S
C965   O966    1.222   .     D
O967   H968    1.012   .     S
C969   O970    1.222   .     D
C969   O971    1.398   .     S
O971   H972    1.011   .     S
