data_str_m2_o1_o2_pcu_sym.94
_audit_creation_date              2020-01-03
_audit_creation_method            'Materials Studio'
_symmetry_space_group_name_H-M    'P1'
_symmetry_Int_Tables_number       1
_symmetry_cell_setting            triclinic
loop_
_symmetry_equiv_pos_as_xyz
  x,y,z
_cell_length_a                    32.6693
_cell_length_b                    29.2347
_cell_length_c                    30.3647
_cell_angle_alpha                 91.3349
_cell_angle_beta                  100.1122
_cell_angle_gamma                 88.2801
loop_
_atom_site_label
_atom_site_type_symbol
_atom_site_fract_x
_atom_site_fract_y
_atom_site_fract_z
_atom_site_U_iso_or_equiv
_atom_site_adp_type
_atom_site_occupancy
C1     C     0.08809   0.16735   0.25404   0.00000  Uiso   1.00
C2     C     0.30994   0.20686   0.23885   0.00000  Uiso   1.00
C3     C     0.31380   0.12447   0.24692   0.00000  Uiso   1.00
C4     C     0.01955   0.20956   0.25443   0.00000  Uiso   1.00
C5     C     0.16685   0.20789   0.04658   0.00000  Uiso   1.00
C6     C     0.20586   0.16445   0.45912   0.00000  Uiso   1.00
C7     C     0.12970   0.16817   0.44560   0.00000  Uiso   1.00
C8     C     0.17396   0.12434   0.04653   0.00000  Uiso   1.00
C9     C     0.16625   0.20810   0.09282   0.00000  Uiso   1.00
C10    C     0.20533   0.16510   0.41256   0.00000  Uiso   1.00
C11    C     0.12930   0.17243   0.39990   0.00000  Uiso   1.00
C12    C     0.24528   0.16607   0.24625   0.00000  Uiso   1.00
C13    C     0.17664   0.12477   0.09346   0.00000  Uiso   1.00
C14    C     0.16976   0.16623   0.11630   0.00000  Uiso   1.00
C15    C     0.16707   0.16868   0.38304   0.00000  Uiso   1.00
C16    C     0.16984   0.16569   0.02372   0.00000  Uiso   1.00
C17    C     0.16816   0.16422   0.47514   0.00000  Uiso   1.00
C18    C     0.28994   0.16540   0.24222   0.00000  Uiso   1.00
C19    C     0.04367   0.16831   0.25933   0.00000  Uiso   1.00
C20    C     0.16793   0.16633   0.16506   0.00000  Uiso   1.00
C21    C     0.16696   0.16720   0.33475   0.00000  Uiso   1.00
C22    C     0.13962   0.02510   0.21731   0.00000  Uiso   1.00
C23    C     0.19135   0.30895   0.28472   0.00000  Uiso   1.00
C24    C     0.19298   0.02522   0.28299   0.00000  Uiso   1.00
C25    C     0.13955   0.30820   0.21754   0.00000  Uiso   1.00
C26    C     0.02348   0.12643   0.26146   0.00000  Uiso   1.00
Cu27   Cu    0.16667   0.21355   0.25000   0.00000  Uiso   1.00
Cu28   Cu    0.16667   0.11978   0.25000   0.00000  Uiso   1.00
H29    H     0.07929   0.11758   0.14069   0.00000  Uiso   1.00
H30    H     0.26285   0.14513   0.41524   0.00000  Uiso   1.00
H31    H     0.09521   0.18888   0.34306   0.00000  Uiso   1.00
H32    H     0.20387   0.06455   0.10095   0.00000  Uiso   1.00
H33    H     0.08670   0.02183   0.28445   0.00000  Uiso   1.00
H34    H     0.26541   0.20374   0.14694   0.00000  Uiso   1.00
H35    H     0.28189   0.10987   0.15262   0.00000  Uiso   1.00
H36    H     0.32138   0.31104   0.29134   0.00000  Uiso   1.00
H37    H     0.26692   0.23954   0.32443   0.00000  Uiso   1.00
H38    H     0.27242   0.11024   0.33558   0.00000  Uiso   1.00
H39    H     0.06516   0.21764   0.15609   0.00000  Uiso   1.00
H40    H     0.16868   0.24553   0.49397   0.00000  Uiso   1.00
H41    H     0.26341   0.18202   0.47699   0.00000  Uiso   1.00
H42    H     0.09543   0.16202   0.49197   0.00000  Uiso   1.00
H43    H     0.16311   0.05952   0.03750   0.00000  Uiso   1.00
H44    H     0.16355   0.27555   0.09652   0.00000  Uiso   1.00
N45    N     0.16667   0.28402   0.25000   0.00000  Uiso   1.00
N46    N     0.16667   0.04931   0.25000   0.00000  Uiso   1.00
O47    O     0.10655   0.20625   0.24999   0.00000  Uiso   1.00
O48    O     0.06161   0.03636   0.16599   0.00000  Uiso   1.00
O49    O     0.09461   0.11099   0.17113   0.00000  Uiso   1.00
O50    O     0.24597   0.30441   0.37141   0.00000  Uiso   1.00
O51    O     0.17887   0.27391   0.36215   0.00000  Uiso   1.00
O52    O     0.23892   0.23110   0.32930   0.00000  Uiso   1.00
O53    O     0.21395   0.04970   0.36968   0.00000  Uiso   1.00
O54    O     0.27091   0.02882   0.32867   0.00000  Uiso   1.00
O55    O     0.24195   0.10885   0.32531   0.00000  Uiso   1.00
O56    O     0.05905   0.29271   0.19984   0.00000  Uiso   1.00
O57    O     0.09219   0.29703   0.13394   0.00000  Uiso   1.00
O58    O     0.22679   0.12709   0.25000   0.00000  Uiso   1.00
O59    O     0.09394   0.22281   0.17182   0.00000  Uiso   1.00
O60    O     0.16358   0.24945   0.02497   0.00000  Uiso   1.00
O61    O     0.24244   0.16549   0.48992   0.00000  Uiso   1.00
O62    O     0.09174   0.16976   0.45997   0.00000  Uiso   1.00
O63    O     0.17481   0.08406   0.02188   0.00000  Uiso   1.00
O64    O     0.16352   0.24902   0.11613   0.00000  Uiso   1.00
O65    O     0.24159   0.16336   0.39519   0.00000  Uiso   1.00
O66    O     0.09113   0.18038   0.37316   0.00000  Uiso   1.00
O67    O     0.18772   0.08568   0.11776   0.00000  Uiso   1.00
O68    O     0.08342   0.09822   0.32920   0.00000  Uiso   1.00
O69    O     0.22679   0.20625   0.25000   0.00000  Uiso   1.00
O70    O     0.01730   0.05961   0.31880   0.00000  Uiso   1.00
O71    O     0.06728   0.04075   0.26309   0.00000  Uiso   1.00
O72    O     0.26130   0.28351   0.22906   0.00000  Uiso   1.00
O73    O     0.31358   0.27523   0.18084   0.00000  Uiso   1.00
O74    O     0.24892   0.22543   0.16281   0.00000  Uiso   1.00
O75    O     0.32795   0.04508   0.20337   0.00000  Uiso   1.00
O76    O     0.26865   0.04784   0.24160   0.00000  Uiso   1.00
O77    O     0.26334   0.09297   0.16866   0.00000  Uiso   1.00
O78    O     0.02264   0.24650   0.33559   0.00000  Uiso   1.00
O79    O     0.08022   0.26578   0.29926   0.00000  Uiso   1.00
O80    O     0.10655   0.12709   0.24999   0.00000  Uiso   1.00
O81    O     0.00899   0.30502   0.27190   0.00000  Uiso   1.00
O82    O     0.16666   0.20626   0.18573   0.00000  Uiso   1.00
O83    O     0.16667   0.12707   0.31427   0.00000  Uiso   1.00
O84    O     0.16667   0.20626   0.31427   0.00000  Uiso   1.00
O85    O     0.16666   0.12707   0.18573   0.00000  Uiso   1.00
O86    O     0.12127   0.04322   0.12944   0.00000  Uiso   1.00
S87    S     0.10457   0.05448   0.17152   0.00000  Uiso   1.00
S88    S     0.21427   0.28085   0.33755   0.00000  Uiso   1.00
S89    S     0.22975   0.05390   0.32635   0.00000  Uiso   1.00
S90    S     0.09699   0.27945   0.18063   0.00000  Uiso   1.00
S91    S     0.04828   0.08085   0.29490   0.00000  Uiso   1.00
S92    S     0.28376   0.24993   0.20301   0.00000  Uiso   1.00
S93    S     0.29386   0.07538   0.21582   0.00000  Uiso   1.00
S94    S     0.03450   0.25693   0.29129   0.00000  Uiso   1.00
C95    C     0.42142   0.16735   0.25404   0.00000  Uiso   1.00
C96    C     0.64327   0.20686   0.23885   0.00000  Uiso   1.00
C97    C     0.64713   0.12447   0.24692   0.00000  Uiso   1.00
C98    C     0.35288   0.20956   0.25443   0.00000  Uiso   1.00
C99    C     0.50018   0.20789   0.04658   0.00000  Uiso   1.00
C100   C     0.53919   0.16445   0.45912   0.00000  Uiso   1.00
C101   C     0.46304   0.16817   0.44560   0.00000  Uiso   1.00
C102   C     0.50729   0.12434   0.04653   0.00000  Uiso   1.00
C103   C     0.49958   0.20810   0.09282   0.00000  Uiso   1.00
C104   C     0.53866   0.16510   0.41256   0.00000  Uiso   1.00
C105   C     0.46264   0.17243   0.39990   0.00000  Uiso   1.00
C106   C     0.57862   0.16607   0.24625   0.00000  Uiso   1.00
C107   C     0.50998   0.12477   0.09346   0.00000  Uiso   1.00
C108   C     0.50310   0.16623   0.11630   0.00000  Uiso   1.00
C109   C     0.50040   0.16868   0.38304   0.00000  Uiso   1.00
C110   C     0.50317   0.16569   0.02372   0.00000  Uiso   1.00
C111   C     0.50149   0.16422   0.47514   0.00000  Uiso   1.00
C112   C     0.62327   0.16540   0.24222   0.00000  Uiso   1.00
C113   C     0.37701   0.16831   0.25933   0.00000  Uiso   1.00
C114   C     0.50126   0.16633   0.16506   0.00000  Uiso   1.00
C115   C     0.50030   0.16720   0.33475   0.00000  Uiso   1.00
C116   C     0.47296   0.02510   0.21731   0.00000  Uiso   1.00
C117   C     0.52468   0.30895   0.28472   0.00000  Uiso   1.00
C118   C     0.52631   0.02522   0.28299   0.00000  Uiso   1.00
C119   C     0.47289   0.30820   0.21754   0.00000  Uiso   1.00
C120   C     0.35681   0.12643   0.26146   0.00000  Uiso   1.00
Cu121  Cu    0.50000   0.21355   0.25000   0.00000  Uiso   1.00
Cu122  Cu    0.50000   0.11978   0.25000   0.00000  Uiso   1.00
H123   H     0.41262   0.11758   0.14069   0.00000  Uiso   1.00
H124   H     0.59619   0.14513   0.41524   0.00000  Uiso   1.00
H125   H     0.42854   0.18888   0.34306   0.00000  Uiso   1.00
H126   H     0.53720   0.06455   0.10095   0.00000  Uiso   1.00
H127   H     0.42003   0.02183   0.28445   0.00000  Uiso   1.00
H128   H     0.59874   0.20374   0.14694   0.00000  Uiso   1.00
H129   H     0.61522   0.10987   0.15262   0.00000  Uiso   1.00
H130   H     0.65471   0.31104   0.29134   0.00000  Uiso   1.00
H131   H     0.60025   0.23954   0.32443   0.00000  Uiso   1.00
H132   H     0.60576   0.11024   0.33558   0.00000  Uiso   1.00
H133   H     0.39850   0.21764   0.15609   0.00000  Uiso   1.00
H134   H     0.50201   0.24553   0.49397   0.00000  Uiso   1.00
H135   H     0.59675   0.18202   0.47699   0.00000  Uiso   1.00
H136   H     0.42877   0.16202   0.49197   0.00000  Uiso   1.00
H137   H     0.49645   0.05952   0.03750   0.00000  Uiso   1.00
H138   H     0.49688   0.27555   0.09652   0.00000  Uiso   1.00
N139   N     0.50000   0.28402   0.25000   0.00000  Uiso   1.00
N140   N     0.50000   0.04931   0.25000   0.00000  Uiso   1.00
O141   O     0.43988   0.20625   0.24999   0.00000  Uiso   1.00
O142   O     0.39494   0.03636   0.16599   0.00000  Uiso   1.00
O143   O     0.42795   0.11099   0.17113   0.00000  Uiso   1.00
O144   O     0.57930   0.30441   0.37141   0.00000  Uiso   1.00
O145   O     0.51220   0.27391   0.36215   0.00000  Uiso   1.00
O146   O     0.57225   0.23110   0.32930   0.00000  Uiso   1.00
O147   O     0.54728   0.04970   0.36968   0.00000  Uiso   1.00
O148   O     0.60424   0.02882   0.32867   0.00000  Uiso   1.00
O149   O     0.57529   0.10885   0.32531   0.00000  Uiso   1.00
O150   O     0.39238   0.29271   0.19984   0.00000  Uiso   1.00
O151   O     0.42552   0.29703   0.13394   0.00000  Uiso   1.00
O152   O     0.56012   0.12709   0.25000   0.00000  Uiso   1.00
O153   O     0.42727   0.22281   0.17182   0.00000  Uiso   1.00
O154   O     0.49692   0.24945   0.02497   0.00000  Uiso   1.00
O155   O     0.57577   0.16549   0.48992   0.00000  Uiso   1.00
O156   O     0.42507   0.16976   0.45997   0.00000  Uiso   1.00
O157   O     0.50815   0.08406   0.02188   0.00000  Uiso   1.00
O158   O     0.49685   0.24902   0.11613   0.00000  Uiso   1.00
O159   O     0.57493   0.16336   0.39519   0.00000  Uiso   1.00
O160   O     0.42447   0.18038   0.37316   0.00000  Uiso   1.00
O161   O     0.52105   0.08568   0.11776   0.00000  Uiso   1.00
O162   O     0.41675   0.09822   0.32920   0.00000  Uiso   1.00
O163   O     0.56012   0.20625   0.25000   0.00000  Uiso   1.00
O164   O     0.35064   0.05961   0.31880   0.00000  Uiso   1.00
O165   O     0.40061   0.04075   0.26309   0.00000  Uiso   1.00
O166   O     0.59463   0.28351   0.22906   0.00000  Uiso   1.00
O167   O     0.64692   0.27523   0.18084   0.00000  Uiso   1.00
O168   O     0.58225   0.22543   0.16281   0.00000  Uiso   1.00
O169   O     0.66129   0.04508   0.20337   0.00000  Uiso   1.00
O170   O     0.60199   0.04784   0.24160   0.00000  Uiso   1.00
O171   O     0.59668   0.09297   0.16866   0.00000  Uiso   1.00
O172   O     0.35598   0.24650   0.33559   0.00000  Uiso   1.00
O173   O     0.41355   0.26578   0.29926   0.00000  Uiso   1.00
O174   O     0.43988   0.12709   0.24999   0.00000  Uiso   1.00
O175   O     0.34233   0.30502   0.27190   0.00000  Uiso   1.00
O176   O     0.50000   0.20626   0.18573   0.00000  Uiso   1.00
O177   O     0.50000   0.12707   0.31427   0.00000  Uiso   1.00
O178   O     0.50000   0.20626   0.31427   0.00000  Uiso   1.00
O179   O     0.50000   0.12707   0.18573   0.00000  Uiso   1.00
O180   O     0.45460   0.04322   0.12944   0.00000  Uiso   1.00
S181   S     0.43790   0.05448   0.17152   0.00000  Uiso   1.00
S182   S     0.54761   0.28085   0.33755   0.00000  Uiso   1.00
S183   S     0.56308   0.05390   0.32635   0.00000  Uiso   1.00
S184   S     0.43032   0.27945   0.18063   0.00000  Uiso   1.00
S185   S     0.38162   0.08085   0.29490   0.00000  Uiso   1.00
S186   S     0.61710   0.24993   0.20301   0.00000  Uiso   1.00
S187   S     0.62719   0.07538   0.21582   0.00000  Uiso   1.00
S188   S     0.36784   0.25693   0.29129   0.00000  Uiso   1.00
C189   C     0.75476   0.16735   0.25404   0.00000  Uiso   1.00
C190   C     0.97661   0.20686   0.23885   0.00000  Uiso   1.00
C191   C     0.98047   0.12447   0.24692   0.00000  Uiso   1.00
C192   C     0.68622   0.20956   0.25443   0.00000  Uiso   1.00
C193   C     0.83351   0.20789   0.04658   0.00000  Uiso   1.00
C194   C     0.87253   0.16445   0.45912   0.00000  Uiso   1.00
C195   C     0.79637   0.16817   0.44560   0.00000  Uiso   1.00
C196   C     0.84062   0.12434   0.04653   0.00000  Uiso   1.00
C197   C     0.83291   0.20810   0.09282   0.00000  Uiso   1.00
C198   C     0.87200   0.16510   0.41256   0.00000  Uiso   1.00
C199   C     0.79597   0.17243   0.39990   0.00000  Uiso   1.00
C200   C     0.91195   0.16607   0.24625   0.00000  Uiso   1.00
C201   C     0.84331   0.12477   0.09346   0.00000  Uiso   1.00
C202   C     0.83643   0.16623   0.11630   0.00000  Uiso   1.00
C203   C     0.83374   0.16868   0.38304   0.00000  Uiso   1.00
C204   C     0.83650   0.16569   0.02372   0.00000  Uiso   1.00
C205   C     0.83483   0.16422   0.47514   0.00000  Uiso   1.00
C206   C     0.95660   0.16540   0.24222   0.00000  Uiso   1.00
C207   C     0.71034   0.16831   0.25933   0.00000  Uiso   1.00
C208   C     0.83460   0.16633   0.16506   0.00000  Uiso   1.00
C209   C     0.83363   0.16720   0.33475   0.00000  Uiso   1.00
C210   C     0.80629   0.02510   0.21731   0.00000  Uiso   1.00
C211   C     0.85801   0.30895   0.28472   0.00000  Uiso   1.00
C212   C     0.85965   0.02522   0.28299   0.00000  Uiso   1.00
C213   C     0.80622   0.30820   0.21754   0.00000  Uiso   1.00
C214   C     0.69014   0.12643   0.26146   0.00000  Uiso   1.00
Cu215  Cu    0.83333   0.21355   0.25000   0.00000  Uiso   1.00
Cu216  Cu    0.83333   0.11978   0.25000   0.00000  Uiso   1.00
H217   H     0.74595   0.11758   0.14069   0.00000  Uiso   1.00
H218   H     0.92952   0.14513   0.41524   0.00000  Uiso   1.00
H219   H     0.76188   0.18888   0.34306   0.00000  Uiso   1.00
H220   H     0.87053   0.06455   0.10095   0.00000  Uiso   1.00
H221   H     0.75337   0.02183   0.28445   0.00000  Uiso   1.00
H222   H     0.93208   0.20374   0.14694   0.00000  Uiso   1.00
H223   H     0.94856   0.10987   0.15262   0.00000  Uiso   1.00
H224   H     0.98804   0.31104   0.29134   0.00000  Uiso   1.00
H225   H     0.93359   0.23954   0.32443   0.00000  Uiso   1.00
H226   H     0.93909   0.11024   0.33558   0.00000  Uiso   1.00
H227   H     0.73183   0.21764   0.15609   0.00000  Uiso   1.00
H228   H     0.83535   0.24553   0.49397   0.00000  Uiso   1.00
H229   H     0.93008   0.18202   0.47699   0.00000  Uiso   1.00
H230   H     0.76210   0.16202   0.49197   0.00000  Uiso   1.00
H231   H     0.82978   0.05952   0.03750   0.00000  Uiso   1.00
H232   H     0.83022   0.27555   0.09652   0.00000  Uiso   1.00
N233   N     0.83333   0.28402   0.25000   0.00000  Uiso   1.00
N234   N     0.83333   0.04931   0.25000   0.00000  Uiso   1.00
O235   O     0.77321   0.20625   0.24999   0.00000  Uiso   1.00
O236   O     0.72828   0.03636   0.16599   0.00000  Uiso   1.00
O237   O     0.76128   0.11099   0.17113   0.00000  Uiso   1.00
O238   O     0.91263   0.30441   0.37141   0.00000  Uiso   1.00
O239   O     0.84554   0.27391   0.36215   0.00000  Uiso   1.00
O240   O     0.90558   0.23110   0.32930   0.00000  Uiso   1.00
O241   O     0.88062   0.04970   0.36968   0.00000  Uiso   1.00
O242   O     0.93758   0.02882   0.32867   0.00000  Uiso   1.00
O243   O     0.90862   0.10885   0.32531   0.00000  Uiso   1.00
O244   O     0.72571   0.29271   0.19984   0.00000  Uiso   1.00
O245   O     0.75885   0.29703   0.13394   0.00000  Uiso   1.00
O246   O     0.89345   0.12709   0.25000   0.00000  Uiso   1.00
O247   O     0.76060   0.22281   0.17182   0.00000  Uiso   1.00
O248   O     0.83025   0.24945   0.02497   0.00000  Uiso   1.00
O249   O     0.90911   0.16549   0.48992   0.00000  Uiso   1.00
O250   O     0.75841   0.16976   0.45997   0.00000  Uiso   1.00
O251   O     0.84148   0.08406   0.02188   0.00000  Uiso   1.00
O252   O     0.83019   0.24902   0.11613   0.00000  Uiso   1.00
O253   O     0.90826   0.16336   0.39519   0.00000  Uiso   1.00
O254   O     0.75780   0.18038   0.37316   0.00000  Uiso   1.00
O255   O     0.85438   0.08568   0.11776   0.00000  Uiso   1.00
O256   O     0.75008   0.09822   0.32920   0.00000  Uiso   1.00
O257   O     0.89345   0.20625   0.25000   0.00000  Uiso   1.00
O258   O     0.68397   0.05961   0.31880   0.00000  Uiso   1.00
O259   O     0.73395   0.04075   0.26309   0.00000  Uiso   1.00
O260   O     0.92796   0.28351   0.22906   0.00000  Uiso   1.00
O261   O     0.98025   0.27523   0.18084   0.00000  Uiso   1.00
O262   O     0.91558   0.22543   0.16281   0.00000  Uiso   1.00
O263   O     0.99462   0.04508   0.20337   0.00000  Uiso   1.00
O264   O     0.93532   0.04784   0.24160   0.00000  Uiso   1.00
O265   O     0.93001   0.09297   0.16866   0.00000  Uiso   1.00
O266   O     0.68931   0.24650   0.33559   0.00000  Uiso   1.00
O267   O     0.74689   0.26578   0.29926   0.00000  Uiso   1.00
O268   O     0.77321   0.12709   0.24999   0.00000  Uiso   1.00
O269   O     0.67566   0.30502   0.27190   0.00000  Uiso   1.00
O270   O     0.83333   0.20626   0.18573   0.00000  Uiso   1.00
O271   O     0.83334   0.12707   0.31427   0.00000  Uiso   1.00
O272   O     0.83334   0.20626   0.31427   0.00000  Uiso   1.00
O273   O     0.83333   0.12707   0.18573   0.00000  Uiso   1.00
O274   O     0.78793   0.04322   0.12944   0.00000  Uiso   1.00
S275   S     0.77123   0.05448   0.17152   0.00000  Uiso   1.00
S276   S     0.88094   0.28085   0.33755   0.00000  Uiso   1.00
S277   S     0.89641   0.05390   0.32635   0.00000  Uiso   1.00
S278   S     0.76366   0.27945   0.18063   0.00000  Uiso   1.00
S279   S     0.71495   0.08085   0.29490   0.00000  Uiso   1.00
S280   S     0.95043   0.24993   0.20301   0.00000  Uiso   1.00
S281   S     0.96053   0.07538   0.21582   0.00000  Uiso   1.00
S282   S     0.70117   0.25693   0.29129   0.00000  Uiso   1.00
C283   C     0.08809   0.50069   0.25404   0.00000  Uiso   1.00
C284   C     0.30994   0.54019   0.23885   0.00000  Uiso   1.00
C285   C     0.31380   0.45780   0.24692   0.00000  Uiso   1.00
C286   C     0.01955   0.54290   0.25443   0.00000  Uiso   1.00
C287   C     0.16685   0.54123   0.04658   0.00000  Uiso   1.00
C288   C     0.20586   0.49778   0.45912   0.00000  Uiso   1.00
C289   C     0.12970   0.50150   0.44560   0.00000  Uiso   1.00
C290   C     0.17396   0.45767   0.04653   0.00000  Uiso   1.00
C291   C     0.16625   0.54144   0.09282   0.00000  Uiso   1.00
C292   C     0.20533   0.49843   0.41256   0.00000  Uiso   1.00
C293   C     0.12930   0.50576   0.39990   0.00000  Uiso   1.00
C294   C     0.24528   0.49940   0.24625   0.00000  Uiso   1.00
C295   C     0.17664   0.45811   0.09346   0.00000  Uiso   1.00
C296   C     0.16976   0.49956   0.11630   0.00000  Uiso   1.00
C297   C     0.16707   0.50202   0.38304   0.00000  Uiso   1.00
C298   C     0.16984   0.49902   0.02372   0.00000  Uiso   1.00
C299   C     0.16816   0.49755   0.47514   0.00000  Uiso   1.00
C300   C     0.28994   0.49873   0.24222   0.00000  Uiso   1.00
C301   C     0.04367   0.50164   0.25933   0.00000  Uiso   1.00
C302   C     0.16793   0.49967   0.16506   0.00000  Uiso   1.00
C303   C     0.16696   0.50054   0.33475   0.00000  Uiso   1.00
C304   C     0.13962   0.35844   0.21731   0.00000  Uiso   1.00
C305   C     0.19135   0.64228   0.28472   0.00000  Uiso   1.00
C306   C     0.19298   0.35855   0.28299   0.00000  Uiso   1.00
C307   C     0.13955   0.64153   0.21754   0.00000  Uiso   1.00
C308   C     0.02348   0.45976   0.26146   0.00000  Uiso   1.00
Cu309  Cu    0.16667   0.54689   0.25000   0.00000  Uiso   1.00
Cu310  Cu    0.16667   0.45311   0.25000   0.00000  Uiso   1.00
H311   H     0.07929   0.45091   0.14069   0.00000  Uiso   1.00
H312   H     0.26285   0.47847   0.41524   0.00000  Uiso   1.00
H313   H     0.09521   0.52221   0.34306   0.00000  Uiso   1.00
H314   H     0.20387   0.39788   0.10095   0.00000  Uiso   1.00
H315   H     0.08670   0.35517   0.28445   0.00000  Uiso   1.00
H316   H     0.26541   0.53707   0.14694   0.00000  Uiso   1.00
H317   H     0.28189   0.44321   0.15262   0.00000  Uiso   1.00
H318   H     0.32138   0.64437   0.29134   0.00000  Uiso   1.00
H319   H     0.26692   0.57287   0.32443   0.00000  Uiso   1.00
H320   H     0.27242   0.44358   0.33558   0.00000  Uiso   1.00
H321   H     0.06516   0.55097   0.15609   0.00000  Uiso   1.00
H322   H     0.16868   0.57887   0.49397   0.00000  Uiso   1.00
H323   H     0.26341   0.51536   0.47699   0.00000  Uiso   1.00
H324   H     0.09543   0.49536   0.49197   0.00000  Uiso   1.00
H325   H     0.16311   0.39285   0.03750   0.00000  Uiso   1.00
H326   H     0.16355   0.60889   0.09652   0.00000  Uiso   1.00
N327   N     0.16667   0.61736   0.25000   0.00000  Uiso   1.00
N328   N     0.16667   0.38264   0.25000   0.00000  Uiso   1.00
O329   O     0.10655   0.53958   0.24999   0.00000  Uiso   1.00
O330   O     0.06161   0.36969   0.16599   0.00000  Uiso   1.00
O331   O     0.09461   0.44433   0.17113   0.00000  Uiso   1.00
O332   O     0.24597   0.63775   0.37141   0.00000  Uiso   1.00
O333   O     0.17887   0.60725   0.36215   0.00000  Uiso   1.00
O334   O     0.23892   0.56443   0.32930   0.00000  Uiso   1.00
O335   O     0.21395   0.38303   0.36968   0.00000  Uiso   1.00
O336   O     0.27091   0.36215   0.32867   0.00000  Uiso   1.00
O337   O     0.24195   0.44218   0.32531   0.00000  Uiso   1.00
O338   O     0.05905   0.62604   0.19984   0.00000  Uiso   1.00
O339   O     0.09219   0.63036   0.13394   0.00000  Uiso   1.00
O340   O     0.22679   0.46042   0.25000   0.00000  Uiso   1.00
O341   O     0.09394   0.55614   0.17182   0.00000  Uiso   1.00
O342   O     0.16358   0.58279   0.02497   0.00000  Uiso   1.00
O343   O     0.24244   0.49882   0.48992   0.00000  Uiso   1.00
O344   O     0.09174   0.50309   0.45997   0.00000  Uiso   1.00
O345   O     0.17481   0.41739   0.02188   0.00000  Uiso   1.00
O346   O     0.16352   0.58235   0.11613   0.00000  Uiso   1.00
O347   O     0.24159   0.49669   0.39519   0.00000  Uiso   1.00
O348   O     0.09113   0.51371   0.37316   0.00000  Uiso   1.00
O349   O     0.18772   0.41901   0.11776   0.00000  Uiso   1.00
O350   O     0.08342   0.43156   0.32920   0.00000  Uiso   1.00
O351   O     0.22679   0.53958   0.25000   0.00000  Uiso   1.00
O352   O     0.01730   0.39294   0.31880   0.00000  Uiso   1.00
O353   O     0.06728   0.37409   0.26309   0.00000  Uiso   1.00
O354   O     0.26130   0.61685   0.22906   0.00000  Uiso   1.00
O355   O     0.31358   0.60857   0.18084   0.00000  Uiso   1.00
O356   O     0.24892   0.55877   0.16281   0.00000  Uiso   1.00
O357   O     0.32795   0.37841   0.20337   0.00000  Uiso   1.00
O358   O     0.26865   0.38117   0.24160   0.00000  Uiso   1.00
O359   O     0.26334   0.42631   0.16866   0.00000  Uiso   1.00
O360   O     0.02264   0.57983   0.33559   0.00000  Uiso   1.00
O361   O     0.08022   0.59911   0.29926   0.00000  Uiso   1.00
O362   O     0.10655   0.46042   0.24999   0.00000  Uiso   1.00
O363   O     0.00899   0.63835   0.27190   0.00000  Uiso   1.00
O364   O     0.16666   0.53959   0.18573   0.00000  Uiso   1.00
O365   O     0.16667   0.46041   0.31427   0.00000  Uiso   1.00
O366   O     0.16667   0.53959   0.31427   0.00000  Uiso   1.00
O367   O     0.16666   0.46041   0.18573   0.00000  Uiso   1.00
O368   O     0.12127   0.37655   0.12944   0.00000  Uiso   1.00
S369   S     0.10457   0.38781   0.17152   0.00000  Uiso   1.00
S370   S     0.21427   0.61418   0.33755   0.00000  Uiso   1.00
S371   S     0.22975   0.38723   0.32635   0.00000  Uiso   1.00
S372   S     0.09699   0.61278   0.18063   0.00000  Uiso   1.00
S373   S     0.04828   0.41418   0.29490   0.00000  Uiso   1.00
S374   S     0.28376   0.58326   0.20301   0.00000  Uiso   1.00
S375   S     0.29386   0.40871   0.21582   0.00000  Uiso   1.00
S376   S     0.03450   0.59026   0.29129   0.00000  Uiso   1.00
C377   C     0.42142   0.50069   0.25404   0.00000  Uiso   1.00
C378   C     0.64327   0.54019   0.23885   0.00000  Uiso   1.00
C379   C     0.64713   0.45780   0.24692   0.00000  Uiso   1.00
C380   C     0.35288   0.54290   0.25443   0.00000  Uiso   1.00
C381   C     0.50018   0.54123   0.04658   0.00000  Uiso   1.00
C382   C     0.53919   0.49778   0.45912   0.00000  Uiso   1.00
C383   C     0.46304   0.50150   0.44560   0.00000  Uiso   1.00
C384   C     0.50729   0.45767   0.04653   0.00000  Uiso   1.00
C385   C     0.49958   0.54144   0.09282   0.00000  Uiso   1.00
C386   C     0.53866   0.49843   0.41256   0.00000  Uiso   1.00
C387   C     0.46264   0.50576   0.39990   0.00000  Uiso   1.00
C388   C     0.57862   0.49940   0.24625   0.00000  Uiso   1.00
C389   C     0.50998   0.45811   0.09346   0.00000  Uiso   1.00
C390   C     0.50310   0.49956   0.11630   0.00000  Uiso   1.00
C391   C     0.50040   0.50202   0.38304   0.00000  Uiso   1.00
C392   C     0.50317   0.49902   0.02372   0.00000  Uiso   1.00
C393   C     0.50149   0.49755   0.47514   0.00000  Uiso   1.00
C394   C     0.62327   0.49873   0.24222   0.00000  Uiso   1.00
C395   C     0.37701   0.50164   0.25933   0.00000  Uiso   1.00
C396   C     0.50126   0.49967   0.16506   0.00000  Uiso   1.00
C397   C     0.50030   0.50054   0.33475   0.00000  Uiso   1.00
C398   C     0.47296   0.35844   0.21731   0.00000  Uiso   1.00
C399   C     0.52468   0.64228   0.28472   0.00000  Uiso   1.00
C400   C     0.52631   0.35855   0.28299   0.00000  Uiso   1.00
C401   C     0.47289   0.64153   0.21754   0.00000  Uiso   1.00
C402   C     0.35681   0.45976   0.26146   0.00000  Uiso   1.00
Cu403  Cu    0.50000   0.54689   0.25000   0.00000  Uiso   1.00
Cu404  Cu    0.50000   0.45311   0.25000   0.00000  Uiso   1.00
H405   H     0.41262   0.45091   0.14069   0.00000  Uiso   1.00
H406   H     0.59619   0.47847   0.41524   0.00000  Uiso   1.00
H407   H     0.42854   0.52221   0.34306   0.00000  Uiso   1.00
H408   H     0.53720   0.39788   0.10095   0.00000  Uiso   1.00
H409   H     0.42003   0.35517   0.28445   0.00000  Uiso   1.00
H410   H     0.59874   0.53707   0.14694   0.00000  Uiso   1.00
H411   H     0.61522   0.44321   0.15262   0.00000  Uiso   1.00
H412   H     0.65471   0.64437   0.29134   0.00000  Uiso   1.00
H413   H     0.60025   0.57287   0.32443   0.00000  Uiso   1.00
H414   H     0.60576   0.44358   0.33558   0.00000  Uiso   1.00
H415   H     0.39850   0.55097   0.15609   0.00000  Uiso   1.00
H416   H     0.50201   0.57887   0.49397   0.00000  Uiso   1.00
H417   H     0.59675   0.51536   0.47699   0.00000  Uiso   1.00
H418   H     0.42877   0.49536   0.49197   0.00000  Uiso   1.00
H419   H     0.49645   0.39285   0.03750   0.00000  Uiso   1.00
H420   H     0.49688   0.60889   0.09652   0.00000  Uiso   1.00
N421   N     0.50000   0.61736   0.25000   0.00000  Uiso   1.00
N422   N     0.50000   0.38264   0.25000   0.00000  Uiso   1.00
O423   O     0.43988   0.53958   0.24999   0.00000  Uiso   1.00
O424   O     0.39494   0.36969   0.16599   0.00000  Uiso   1.00
O425   O     0.42795   0.44433   0.17113   0.00000  Uiso   1.00
O426   O     0.57930   0.63775   0.37141   0.00000  Uiso   1.00
O427   O     0.51220   0.60725   0.36215   0.00000  Uiso   1.00
O428   O     0.57225   0.56443   0.32930   0.00000  Uiso   1.00
O429   O     0.54728   0.38303   0.36968   0.00000  Uiso   1.00
O430   O     0.60424   0.36215   0.32867   0.00000  Uiso   1.00
O431   O     0.57529   0.44218   0.32531   0.00000  Uiso   1.00
O432   O     0.39238   0.62604   0.19984   0.00000  Uiso   1.00
O433   O     0.42552   0.63036   0.13394   0.00000  Uiso   1.00
O434   O     0.56012   0.46042   0.25000   0.00000  Uiso   1.00
O435   O     0.42727   0.55614   0.17182   0.00000  Uiso   1.00
O436   O     0.49692   0.58279   0.02497   0.00000  Uiso   1.00
O437   O     0.57577   0.49882   0.48992   0.00000  Uiso   1.00
O438   O     0.42507   0.50309   0.45997   0.00000  Uiso   1.00
O439   O     0.50815   0.41739   0.02188   0.00000  Uiso   1.00
O440   O     0.49685   0.58235   0.11613   0.00000  Uiso   1.00
O441   O     0.57493   0.49669   0.39519   0.00000  Uiso   1.00
O442   O     0.42447   0.51371   0.37316   0.00000  Uiso   1.00
O443   O     0.52105   0.41901   0.11776   0.00000  Uiso   1.00
O444   O     0.41675   0.43156   0.32920   0.00000  Uiso   1.00
O445   O     0.56012   0.53958   0.25000   0.00000  Uiso   1.00
O446   O     0.35064   0.39294   0.31880   0.00000  Uiso   1.00
O447   O     0.40061   0.37409   0.26309   0.00000  Uiso   1.00
O448   O     0.59463   0.61685   0.22906   0.00000  Uiso   1.00
O449   O     0.64692   0.60857   0.18084   0.00000  Uiso   1.00
O450   O     0.58225   0.55877   0.16281   0.00000  Uiso   1.00
O451   O     0.66129   0.37841   0.20337   0.00000  Uiso   1.00
O452   O     0.60199   0.38117   0.24160   0.00000  Uiso   1.00
O453   O     0.59668   0.42631   0.16866   0.00000  Uiso   1.00
O454   O     0.35598   0.57983   0.33559   0.00000  Uiso   1.00
O455   O     0.41355   0.59911   0.29926   0.00000  Uiso   1.00
O456   O     0.43988   0.46042   0.24999   0.00000  Uiso   1.00
O457   O     0.34233   0.63835   0.27190   0.00000  Uiso   1.00
O458   O     0.50000   0.53959   0.18573   0.00000  Uiso   1.00
O459   O     0.50000   0.46041   0.31427   0.00000  Uiso   1.00
O460   O     0.50000   0.53959   0.31427   0.00000  Uiso   1.00
O461   O     0.50000   0.46041   0.18573   0.00000  Uiso   1.00
O462   O     0.45460   0.37655   0.12944   0.00000  Uiso   1.00
S463   S     0.43790   0.38781   0.17152   0.00000  Uiso   1.00
S464   S     0.54761   0.61418   0.33755   0.00000  Uiso   1.00
S465   S     0.56308   0.38723   0.32635   0.00000  Uiso   1.00
S466   S     0.43032   0.61278   0.18063   0.00000  Uiso   1.00
S467   S     0.38162   0.41418   0.29490   0.00000  Uiso   1.00
S468   S     0.61710   0.58326   0.20301   0.00000  Uiso   1.00
S469   S     0.62719   0.40871   0.21582   0.00000  Uiso   1.00
S470   S     0.36784   0.59026   0.29129   0.00000  Uiso   1.00
C471   C     0.75476   0.50069   0.25404   0.00000  Uiso   1.00
C472   C     0.97661   0.54019   0.23885   0.00000  Uiso   1.00
C473   C     0.98047   0.45780   0.24692   0.00000  Uiso   1.00
C474   C     0.68622   0.54290   0.25443   0.00000  Uiso   1.00
C475   C     0.83351   0.54123   0.04658   0.00000  Uiso   1.00
C476   C     0.87253   0.49778   0.45912   0.00000  Uiso   1.00
C477   C     0.79637   0.50150   0.44560   0.00000  Uiso   1.00
C478   C     0.84062   0.45767   0.04653   0.00000  Uiso   1.00
C479   C     0.83291   0.54144   0.09282   0.00000  Uiso   1.00
C480   C     0.87200   0.49843   0.41256   0.00000  Uiso   1.00
C481   C     0.79597   0.50576   0.39990   0.00000  Uiso   1.00
C482   C     0.91195   0.49940   0.24625   0.00000  Uiso   1.00
C483   C     0.84331   0.45811   0.09346   0.00000  Uiso   1.00
C484   C     0.83643   0.49956   0.11630   0.00000  Uiso   1.00
C485   C     0.83374   0.50202   0.38304   0.00000  Uiso   1.00
C486   C     0.83650   0.49902   0.02372   0.00000  Uiso   1.00
C487   C     0.83483   0.49755   0.47514   0.00000  Uiso   1.00
C488   C     0.95660   0.49873   0.24222   0.00000  Uiso   1.00
C489   C     0.71034   0.50164   0.25933   0.00000  Uiso   1.00
C490   C     0.83460   0.49967   0.16506   0.00000  Uiso   1.00
C491   C     0.83363   0.50054   0.33475   0.00000  Uiso   1.00
C492   C     0.80629   0.35844   0.21731   0.00000  Uiso   1.00
C493   C     0.85801   0.64228   0.28472   0.00000  Uiso   1.00
C494   C     0.85965   0.35855   0.28299   0.00000  Uiso   1.00
C495   C     0.80622   0.64153   0.21754   0.00000  Uiso   1.00
C496   C     0.69014   0.45976   0.26146   0.00000  Uiso   1.00
Cu497  Cu    0.83333   0.54689   0.25000   0.00000  Uiso   1.00
Cu498  Cu    0.83333   0.45311   0.25000   0.00000  Uiso   1.00
H499   H     0.74595   0.45091   0.14069   0.00000  Uiso   1.00
H500   H     0.92952   0.47847   0.41524   0.00000  Uiso   1.00
H501   H     0.76188   0.52221   0.34306   0.00000  Uiso   1.00
H502   H     0.87053   0.39788   0.10095   0.00000  Uiso   1.00
H503   H     0.75337   0.35517   0.28445   0.00000  Uiso   1.00
H504   H     0.93208   0.53707   0.14694   0.00000  Uiso   1.00
H505   H     0.94856   0.44321   0.15262   0.00000  Uiso   1.00
H506   H     0.98804   0.64437   0.29134   0.00000  Uiso   1.00
H507   H     0.93359   0.57287   0.32443   0.00000  Uiso   1.00
H508   H     0.93909   0.44358   0.33558   0.00000  Uiso   1.00
H509   H     0.73183   0.55097   0.15609   0.00000  Uiso   1.00
H510   H     0.83535   0.57887   0.49397   0.00000  Uiso   1.00
H511   H     0.93008   0.51536   0.47699   0.00000  Uiso   1.00
H512   H     0.76210   0.49536   0.49197   0.00000  Uiso   1.00
H513   H     0.82978   0.39285   0.03750   0.00000  Uiso   1.00
H514   H     0.83022   0.60889   0.09652   0.00000  Uiso   1.00
N515   N     0.83333   0.61736   0.25000   0.00000  Uiso   1.00
N516   N     0.83333   0.38264   0.25000   0.00000  Uiso   1.00
O517   O     0.77321   0.53958   0.24999   0.00000  Uiso   1.00
O518   O     0.72828   0.36969   0.16599   0.00000  Uiso   1.00
O519   O     0.76128   0.44433   0.17113   0.00000  Uiso   1.00
O520   O     0.91263   0.63775   0.37141   0.00000  Uiso   1.00
O521   O     0.84554   0.60725   0.36215   0.00000  Uiso   1.00
O522   O     0.90558   0.56443   0.32930   0.00000  Uiso   1.00
O523   O     0.88062   0.38303   0.36968   0.00000  Uiso   1.00
O524   O     0.93758   0.36215   0.32867   0.00000  Uiso   1.00
O525   O     0.90862   0.44218   0.32531   0.00000  Uiso   1.00
O526   O     0.72571   0.62604   0.19984   0.00000  Uiso   1.00
O527   O     0.75885   0.63036   0.13394   0.00000  Uiso   1.00
O528   O     0.89345   0.46042   0.25000   0.00000  Uiso   1.00
O529   O     0.76060   0.55614   0.17182   0.00000  Uiso   1.00
O530   O     0.83025   0.58279   0.02497   0.00000  Uiso   1.00
O531   O     0.90911   0.49882   0.48992   0.00000  Uiso   1.00
O532   O     0.75841   0.50309   0.45997   0.00000  Uiso   1.00
O533   O     0.84148   0.41739   0.02188   0.00000  Uiso   1.00
O534   O     0.83019   0.58235   0.11613   0.00000  Uiso   1.00
O535   O     0.90826   0.49669   0.39519   0.00000  Uiso   1.00
O536   O     0.75780   0.51371   0.37316   0.00000  Uiso   1.00
O537   O     0.85438   0.41901   0.11776   0.00000  Uiso   1.00
O538   O     0.75008   0.43156   0.32920   0.00000  Uiso   1.00
O539   O     0.89345   0.53958   0.25000   0.00000  Uiso   1.00
O540   O     0.68397   0.39294   0.31880   0.00000  Uiso   1.00
O541   O     0.73395   0.37409   0.26309   0.00000  Uiso   1.00
O542   O     0.92796   0.61685   0.22906   0.00000  Uiso   1.00
O543   O     0.98025   0.60857   0.18084   0.00000  Uiso   1.00
O544   O     0.91558   0.55877   0.16281   0.00000  Uiso   1.00
O545   O     0.99462   0.37841   0.20337   0.00000  Uiso   1.00
O546   O     0.93532   0.38117   0.24160   0.00000  Uiso   1.00
O547   O     0.93001   0.42631   0.16866   0.00000  Uiso   1.00
O548   O     0.68931   0.57983   0.33559   0.00000  Uiso   1.00
O549   O     0.74689   0.59911   0.29926   0.00000  Uiso   1.00
O550   O     0.77321   0.46042   0.24999   0.00000  Uiso   1.00
O551   O     0.67566   0.63835   0.27190   0.00000  Uiso   1.00
O552   O     0.83333   0.53959   0.18573   0.00000  Uiso   1.00
O553   O     0.83334   0.46041   0.31427   0.00000  Uiso   1.00
O554   O     0.83334   0.53959   0.31427   0.00000  Uiso   1.00
O555   O     0.83333   0.46041   0.18573   0.00000  Uiso   1.00
O556   O     0.78793   0.37655   0.12944   0.00000  Uiso   1.00
S557   S     0.77123   0.38781   0.17152   0.00000  Uiso   1.00
S558   S     0.88094   0.61418   0.33755   0.00000  Uiso   1.00
S559   S     0.89641   0.38723   0.32635   0.00000  Uiso   1.00
S560   S     0.76366   0.61278   0.18063   0.00000  Uiso   1.00
S561   S     0.71495   0.41418   0.29490   0.00000  Uiso   1.00
S562   S     0.95043   0.58326   0.20301   0.00000  Uiso   1.00
S563   S     0.96053   0.40871   0.21582   0.00000  Uiso   1.00
S564   S     0.70117   0.59026   0.29129   0.00000  Uiso   1.00
C565   C     0.08809   0.83402   0.25404   0.00000  Uiso   1.00
C566   C     0.30994   0.87353   0.23885   0.00000  Uiso   1.00
C567   C     0.31380   0.79113   0.24692   0.00000  Uiso   1.00
C568   C     0.01955   0.87623   0.25443   0.00000  Uiso   1.00
C569   C     0.16685   0.87456   0.04658   0.00000  Uiso   1.00
C570   C     0.20586   0.83111   0.45912   0.00000  Uiso   1.00
C571   C     0.12970   0.83483   0.44560   0.00000  Uiso   1.00
C572   C     0.17396   0.79100   0.04653   0.00000  Uiso   1.00
C573   C     0.16625   0.87477   0.09282   0.00000  Uiso   1.00
C574   C     0.20533   0.83176   0.41256   0.00000  Uiso   1.00
C575   C     0.12930   0.83909   0.39990   0.00000  Uiso   1.00
C576   C     0.24528   0.83274   0.24625   0.00000  Uiso   1.00
C577   C     0.17664   0.79144   0.09346   0.00000  Uiso   1.00
C578   C     0.16976   0.83289   0.11630   0.00000  Uiso   1.00
C579   C     0.16707   0.83535   0.38304   0.00000  Uiso   1.00
C580   C     0.16984   0.83235   0.02372   0.00000  Uiso   1.00
C581   C     0.16816   0.83089   0.47514   0.00000  Uiso   1.00
C582   C     0.28994   0.83206   0.24222   0.00000  Uiso   1.00
C583   C     0.04367   0.83497   0.25933   0.00000  Uiso   1.00
C584   C     0.16793   0.83300   0.16506   0.00000  Uiso   1.00
C585   C     0.16696   0.83387   0.33475   0.00000  Uiso   1.00
C586   C     0.13962   0.69177   0.21731   0.00000  Uiso   1.00
C587   C     0.19135   0.97562   0.28472   0.00000  Uiso   1.00
C588   C     0.19298   0.69188   0.28299   0.00000  Uiso   1.00
C589   C     0.13955   0.97487   0.21754   0.00000  Uiso   1.00
C590   C     0.02348   0.79310   0.26146   0.00000  Uiso   1.00
Cu591  Cu    0.16667   0.88022   0.25000   0.00000  Uiso   1.00
Cu592  Cu    0.16667   0.78645   0.25000   0.00000  Uiso   1.00
H593   H     0.07929   0.78425   0.14069   0.00000  Uiso   1.00
H594   H     0.26285   0.81180   0.41524   0.00000  Uiso   1.00
H595   H     0.09521   0.85555   0.34306   0.00000  Uiso   1.00
H596   H     0.20387   0.73122   0.10095   0.00000  Uiso   1.00
H597   H     0.08670   0.68850   0.28445   0.00000  Uiso   1.00
H598   H     0.26541   0.87041   0.14694   0.00000  Uiso   1.00
H599   H     0.28189   0.77654   0.15262   0.00000  Uiso   1.00
H600   H     0.32138   0.97770   0.29134   0.00000  Uiso   1.00
H601   H     0.26692   0.90621   0.32443   0.00000  Uiso   1.00
H602   H     0.27242   0.77691   0.33558   0.00000  Uiso   1.00
H603   H     0.06516   0.88430   0.15609   0.00000  Uiso   1.00
H604   H     0.16868   0.91220   0.49397   0.00000  Uiso   1.00
H605   H     0.26341   0.84869   0.47699   0.00000  Uiso   1.00
H606   H     0.09543   0.82869   0.49197   0.00000  Uiso   1.00
H607   H     0.16311   0.72619   0.03750   0.00000  Uiso   1.00
H608   H     0.16355   0.94222   0.09652   0.00000  Uiso   1.00
N609   N     0.16667   0.95069   0.25000   0.00000  Uiso   1.00
N610   N     0.16667   0.71598   0.25000   0.00000  Uiso   1.00
O611   O     0.10655   0.87291   0.24999   0.00000  Uiso   1.00
O612   O     0.06161   0.70303   0.16599   0.00000  Uiso   1.00
O613   O     0.09461   0.77766   0.17113   0.00000  Uiso   1.00
O614   O     0.24597   0.97108   0.37141   0.00000  Uiso   1.00
O615   O     0.17887   0.94058   0.36215   0.00000  Uiso   1.00
O616   O     0.23892   0.89776   0.32930   0.00000  Uiso   1.00
O617   O     0.21395   0.71636   0.36968   0.00000  Uiso   1.00
O618   O     0.27091   0.69549   0.32867   0.00000  Uiso   1.00
O619   O     0.24195   0.77552   0.32531   0.00000  Uiso   1.00
O620   O     0.05905   0.95938   0.19984   0.00000  Uiso   1.00
O621   O     0.09219   0.96370   0.13394   0.00000  Uiso   1.00
O622   O     0.22679   0.79375   0.25000   0.00000  Uiso   1.00
O623   O     0.09394   0.88948   0.17182   0.00000  Uiso   1.00
O624   O     0.16358   0.91612   0.02497   0.00000  Uiso   1.00
O625   O     0.24244   0.83215   0.48992   0.00000  Uiso   1.00
O626   O     0.09174   0.83642   0.45997   0.00000  Uiso   1.00
O627   O     0.17481   0.75073   0.02188   0.00000  Uiso   1.00
O628   O     0.16352   0.91569   0.11613   0.00000  Uiso   1.00
O629   O     0.24159   0.83002   0.39519   0.00000  Uiso   1.00
O630   O     0.09113   0.84705   0.37316   0.00000  Uiso   1.00
O631   O     0.18772   0.75235   0.11776   0.00000  Uiso   1.00
O632   O     0.08342   0.76489   0.32920   0.00000  Uiso   1.00
O633   O     0.22679   0.87291   0.25000   0.00000  Uiso   1.00
O634   O     0.01730   0.72627   0.31880   0.00000  Uiso   1.00
O635   O     0.06728   0.70742   0.26309   0.00000  Uiso   1.00
O636   O     0.26130   0.95018   0.22906   0.00000  Uiso   1.00
O637   O     0.31358   0.94190   0.18084   0.00000  Uiso   1.00
O638   O     0.24892   0.89210   0.16281   0.00000  Uiso   1.00
O639   O     0.32795   0.71175   0.20337   0.00000  Uiso   1.00
O640   O     0.26865   0.71450   0.24160   0.00000  Uiso   1.00
O641   O     0.26334   0.75964   0.16866   0.00000  Uiso   1.00
O642   O     0.02264   0.91316   0.33559   0.00000  Uiso   1.00
O643   O     0.08022   0.93245   0.29926   0.00000  Uiso   1.00
O644   O     0.10655   0.79375   0.24999   0.00000  Uiso   1.00
O645   O     0.00899   0.97168   0.27190   0.00000  Uiso   1.00
O646   O     0.16666   0.87293   0.18573   0.00000  Uiso   1.00
O647   O     0.16667   0.79374   0.31427   0.00000  Uiso   1.00
O648   O     0.16667   0.87293   0.31427   0.00000  Uiso   1.00
O649   O     0.16666   0.79374   0.18573   0.00000  Uiso   1.00
O650   O     0.12127   0.70989   0.12944   0.00000  Uiso   1.00
S651   S     0.10457   0.72115   0.17152   0.00000  Uiso   1.00
S652   S     0.21427   0.94751   0.33755   0.00000  Uiso   1.00
S653   S     0.22975   0.72057   0.32635   0.00000  Uiso   1.00
S654   S     0.09699   0.94611   0.18063   0.00000  Uiso   1.00
S655   S     0.04828   0.74751   0.29490   0.00000  Uiso   1.00
S656   S     0.28376   0.91660   0.20301   0.00000  Uiso   1.00
S657   S     0.29386   0.74205   0.21582   0.00000  Uiso   1.00
S658   S     0.03450   0.92359   0.29129   0.00000  Uiso   1.00
C659   C     0.42142   0.83402   0.25404   0.00000  Uiso   1.00
C660   C     0.64327   0.87353   0.23885   0.00000  Uiso   1.00
C661   C     0.64713   0.79113   0.24692   0.00000  Uiso   1.00
C662   C     0.35288   0.87623   0.25443   0.00000  Uiso   1.00
C663   C     0.50018   0.87456   0.04658   0.00000  Uiso   1.00
C664   C     0.53919   0.83111   0.45912   0.00000  Uiso   1.00
C665   C     0.46304   0.83483   0.44560   0.00000  Uiso   1.00
C666   C     0.50729   0.79100   0.04653   0.00000  Uiso   1.00
C667   C     0.49958   0.87477   0.09282   0.00000  Uiso   1.00
C668   C     0.53866   0.83176   0.41256   0.00000  Uiso   1.00
C669   C     0.46264   0.83909   0.39990   0.00000  Uiso   1.00
C670   C     0.57862   0.83274   0.24625   0.00000  Uiso   1.00
C671   C     0.50998   0.79144   0.09346   0.00000  Uiso   1.00
C672   C     0.50310   0.83289   0.11630   0.00000  Uiso   1.00
C673   C     0.50040   0.83535   0.38304   0.00000  Uiso   1.00
C674   C     0.50317   0.83235   0.02372   0.00000  Uiso   1.00
C675   C     0.50149   0.83089   0.47514   0.00000  Uiso   1.00
C676   C     0.62327   0.83206   0.24222   0.00000  Uiso   1.00
C677   C     0.37701   0.83497   0.25933   0.00000  Uiso   1.00
C678   C     0.50126   0.83300   0.16506   0.00000  Uiso   1.00
C679   C     0.50030   0.83387   0.33475   0.00000  Uiso   1.00
C680   C     0.47296   0.69177   0.21731   0.00000  Uiso   1.00
C681   C     0.52468   0.97562   0.28472   0.00000  Uiso   1.00
C682   C     0.52631   0.69188   0.28299   0.00000  Uiso   1.00
C683   C     0.47289   0.97487   0.21754   0.00000  Uiso   1.00
C684   C     0.35681   0.79310   0.26146   0.00000  Uiso   1.00
Cu685  Cu    0.50000   0.88022   0.25000   0.00000  Uiso   1.00
Cu686  Cu    0.50000   0.78645   0.25000   0.00000  Uiso   1.00
H687   H     0.41262   0.78425   0.14069   0.00000  Uiso   1.00
H688   H     0.59619   0.81180   0.41524   0.00000  Uiso   1.00
H689   H     0.42854   0.85555   0.34306   0.00000  Uiso   1.00
H690   H     0.53720   0.73122   0.10095   0.00000  Uiso   1.00
H691   H     0.42003   0.68850   0.28445   0.00000  Uiso   1.00
H692   H     0.59874   0.87041   0.14694   0.00000  Uiso   1.00
H693   H     0.61522   0.77654   0.15262   0.00000  Uiso   1.00
H694   H     0.65471   0.97770   0.29134   0.00000  Uiso   1.00
H695   H     0.60025   0.90621   0.32443   0.00000  Uiso   1.00
H696   H     0.60576   0.77691   0.33558   0.00000  Uiso   1.00
H697   H     0.39850   0.88430   0.15609   0.00000  Uiso   1.00
H698   H     0.50201   0.91220   0.49397   0.00000  Uiso   1.00
H699   H     0.59675   0.84869   0.47699   0.00000  Uiso   1.00
H700   H     0.42877   0.82869   0.49197   0.00000  Uiso   1.00
H701   H     0.49645   0.72619   0.03750   0.00000  Uiso   1.00
H702   H     0.49688   0.94222   0.09652   0.00000  Uiso   1.00
N703   N     0.50000   0.95069   0.25000   0.00000  Uiso   1.00
N704   N     0.50000   0.71598   0.25000   0.00000  Uiso   1.00
O705   O     0.43988   0.87291   0.24999   0.00000  Uiso   1.00
O706   O     0.39494   0.70303   0.16599   0.00000  Uiso   1.00
O707   O     0.42795   0.77766   0.17113   0.00000  Uiso   1.00
O708   O     0.57930   0.97108   0.37141   0.00000  Uiso   1.00
O709   O     0.51220   0.94058   0.36215   0.00000  Uiso   1.00
O710   O     0.57225   0.89776   0.32930   0.00000  Uiso   1.00
O711   O     0.54728   0.71636   0.36968   0.00000  Uiso   1.00
O712   O     0.60424   0.69549   0.32867   0.00000  Uiso   1.00
O713   O     0.57529   0.77552   0.32531   0.00000  Uiso   1.00
O714   O     0.39238   0.95938   0.19984   0.00000  Uiso   1.00
O715   O     0.42552   0.96370   0.13394   0.00000  Uiso   1.00
O716   O     0.56012   0.79375   0.25000   0.00000  Uiso   1.00
O717   O     0.42727   0.88948   0.17182   0.00000  Uiso   1.00
O718   O     0.49692   0.91612   0.02497   0.00000  Uiso   1.00
O719   O     0.57577   0.83215   0.48992   0.00000  Uiso   1.00
O720   O     0.42507   0.83642   0.45997   0.00000  Uiso   1.00
O721   O     0.50815   0.75073   0.02188   0.00000  Uiso   1.00
O722   O     0.49685   0.91569   0.11613   0.00000  Uiso   1.00
O723   O     0.57493   0.83002   0.39519   0.00000  Uiso   1.00
O724   O     0.42447   0.84705   0.37316   0.00000  Uiso   1.00
O725   O     0.52105   0.75235   0.11776   0.00000  Uiso   1.00
O726   O     0.41675   0.76489   0.32920   0.00000  Uiso   1.00
O727   O     0.56012   0.87291   0.25000   0.00000  Uiso   1.00
O728   O     0.35064   0.72627   0.31880   0.00000  Uiso   1.00
O729   O     0.40061   0.70742   0.26309   0.00000  Uiso   1.00
O730   O     0.59463   0.95018   0.22906   0.00000  Uiso   1.00
O731   O     0.64692   0.94190   0.18084   0.00000  Uiso   1.00
O732   O     0.58225   0.89210   0.16281   0.00000  Uiso   1.00
O733   O     0.66129   0.71175   0.20337   0.00000  Uiso   1.00
O734   O     0.60199   0.71450   0.24160   0.00000  Uiso   1.00
O735   O     0.59668   0.75964   0.16866   0.00000  Uiso   1.00
O736   O     0.35598   0.91316   0.33559   0.00000  Uiso   1.00
O737   O     0.41355   0.93245   0.29926   0.00000  Uiso   1.00
O738   O     0.43988   0.79375   0.24999   0.00000  Uiso   1.00
O739   O     0.34233   0.97168   0.27190   0.00000  Uiso   1.00
O740   O     0.50000   0.87293   0.18573   0.00000  Uiso   1.00
O741   O     0.50000   0.79374   0.31427   0.00000  Uiso   1.00
O742   O     0.50000   0.87293   0.31427   0.00000  Uiso   1.00
O743   O     0.50000   0.79374   0.18573   0.00000  Uiso   1.00
O744   O     0.45460   0.70989   0.12944   0.00000  Uiso   1.00
S745   S     0.43790   0.72115   0.17152   0.00000  Uiso   1.00
S746   S     0.54761   0.94751   0.33755   0.00000  Uiso   1.00
S747   S     0.56308   0.72057   0.32635   0.00000  Uiso   1.00
S748   S     0.43032   0.94611   0.18063   0.00000  Uiso   1.00
S749   S     0.38162   0.74751   0.29490   0.00000  Uiso   1.00
S750   S     0.61710   0.91660   0.20301   0.00000  Uiso   1.00
S751   S     0.62719   0.74205   0.21582   0.00000  Uiso   1.00
S752   S     0.36784   0.92359   0.29129   0.00000  Uiso   1.00
C753   C     0.75476   0.83402   0.25404   0.00000  Uiso   1.00
C754   C     0.97661   0.87353   0.23885   0.00000  Uiso   1.00
C755   C     0.98047   0.79113   0.24692   0.00000  Uiso   1.00
C756   C     0.68622   0.87623   0.25443   0.00000  Uiso   1.00
C757   C     0.83351   0.87456   0.04658   0.00000  Uiso   1.00
C758   C     0.87253   0.83111   0.45912   0.00000  Uiso   1.00
C759   C     0.79637   0.83483   0.44560   0.00000  Uiso   1.00
C760   C     0.84062   0.79100   0.04653   0.00000  Uiso   1.00
C761   C     0.83291   0.87477   0.09282   0.00000  Uiso   1.00
C762   C     0.87200   0.83176   0.41256   0.00000  Uiso   1.00
C763   C     0.79597   0.83909   0.39990   0.00000  Uiso   1.00
C764   C     0.91195   0.83274   0.24625   0.00000  Uiso   1.00
C765   C     0.84331   0.79144   0.09346   0.00000  Uiso   1.00
C766   C     0.83643   0.83289   0.11630   0.00000  Uiso   1.00
C767   C     0.83374   0.83535   0.38304   0.00000  Uiso   1.00
C768   C     0.83650   0.83235   0.02372   0.00000  Uiso   1.00
C769   C     0.83483   0.83089   0.47514   0.00000  Uiso   1.00
C770   C     0.95660   0.83206   0.24222   0.00000  Uiso   1.00
C771   C     0.71034   0.83497   0.25933   0.00000  Uiso   1.00
C772   C     0.83460   0.83300   0.16506   0.00000  Uiso   1.00
C773   C     0.83363   0.83387   0.33475   0.00000  Uiso   1.00
C774   C     0.80629   0.69177   0.21731   0.00000  Uiso   1.00
C775   C     0.85801   0.97562   0.28472   0.00000  Uiso   1.00
C776   C     0.85965   0.69188   0.28299   0.00000  Uiso   1.00
C777   C     0.80622   0.97487   0.21754   0.00000  Uiso   1.00
C778   C     0.69014   0.79310   0.26146   0.00000  Uiso   1.00
Cu779  Cu    0.83333   0.88022   0.25000   0.00000  Uiso   1.00
Cu780  Cu    0.83333   0.78645   0.25000   0.00000  Uiso   1.00
H781   H     0.74595   0.78425   0.14069   0.00000  Uiso   1.00
H782   H     0.92952   0.81180   0.41524   0.00000  Uiso   1.00
H783   H     0.76188   0.85555   0.34306   0.00000  Uiso   1.00
H784   H     0.87053   0.73122   0.10095   0.00000  Uiso   1.00
H785   H     0.75337   0.68850   0.28445   0.00000  Uiso   1.00
H786   H     0.93208   0.87041   0.14694   0.00000  Uiso   1.00
H787   H     0.94856   0.77654   0.15262   0.00000  Uiso   1.00
H788   H     0.98804   0.97770   0.29134   0.00000  Uiso   1.00
H789   H     0.93359   0.90621   0.32443   0.00000  Uiso   1.00
H790   H     0.93909   0.77691   0.33558   0.00000  Uiso   1.00
H791   H     0.73183   0.88430   0.15609   0.00000  Uiso   1.00
H792   H     0.83535   0.91220   0.49397   0.00000  Uiso   1.00
H793   H     0.93008   0.84869   0.47699   0.00000  Uiso   1.00
H794   H     0.76210   0.82869   0.49197   0.00000  Uiso   1.00
H795   H     0.82978   0.72619   0.03750   0.00000  Uiso   1.00
H796   H     0.83022   0.94222   0.09652   0.00000  Uiso   1.00
N797   N     0.83333   0.95069   0.25000   0.00000  Uiso   1.00
N798   N     0.83333   0.71598   0.25000   0.00000  Uiso   1.00
O799   O     0.77321   0.87291   0.24999   0.00000  Uiso   1.00
O800   O     0.72828   0.70303   0.16599   0.00000  Uiso   1.00
O801   O     0.76128   0.77766   0.17113   0.00000  Uiso   1.00
O802   O     0.91263   0.97108   0.37141   0.00000  Uiso   1.00
O803   O     0.84554   0.94058   0.36215   0.00000  Uiso   1.00
O804   O     0.90558   0.89776   0.32930   0.00000  Uiso   1.00
O805   O     0.88062   0.71636   0.36968   0.00000  Uiso   1.00
O806   O     0.93758   0.69549   0.32867   0.00000  Uiso   1.00
O807   O     0.90862   0.77552   0.32531   0.00000  Uiso   1.00
O808   O     0.72571   0.95938   0.19984   0.00000  Uiso   1.00
O809   O     0.75885   0.96370   0.13394   0.00000  Uiso   1.00
O810   O     0.89345   0.79375   0.25000   0.00000  Uiso   1.00
O811   O     0.76060   0.88948   0.17182   0.00000  Uiso   1.00
O812   O     0.83025   0.91612   0.02497   0.00000  Uiso   1.00
O813   O     0.90911   0.83215   0.48992   0.00000  Uiso   1.00
O814   O     0.75841   0.83642   0.45997   0.00000  Uiso   1.00
O815   O     0.84148   0.75073   0.02188   0.00000  Uiso   1.00
O816   O     0.83019   0.91569   0.11613   0.00000  Uiso   1.00
O817   O     0.90826   0.83002   0.39519   0.00000  Uiso   1.00
O818   O     0.75780   0.84705   0.37316   0.00000  Uiso   1.00
O819   O     0.85438   0.75235   0.11776   0.00000  Uiso   1.00
O820   O     0.75008   0.76489   0.32920   0.00000  Uiso   1.00
O821   O     0.89345   0.87291   0.25000   0.00000  Uiso   1.00
O822   O     0.68397   0.72627   0.31880   0.00000  Uiso   1.00
O823   O     0.73395   0.70742   0.26309   0.00000  Uiso   1.00
O824   O     0.92796   0.95018   0.22906   0.00000  Uiso   1.00
O825   O     0.98025   0.94190   0.18084   0.00000  Uiso   1.00
O826   O     0.91558   0.89210   0.16281   0.00000  Uiso   1.00
O827   O     0.99462   0.71175   0.20337   0.00000  Uiso   1.00
O828   O     0.93532   0.71450   0.24160   0.00000  Uiso   1.00
O829   O     0.93001   0.75964   0.16866   0.00000  Uiso   1.00
O830   O     0.68931   0.91316   0.33559   0.00000  Uiso   1.00
O831   O     0.74689   0.93245   0.29926   0.00000  Uiso   1.00
O832   O     0.77321   0.79375   0.24999   0.00000  Uiso   1.00
O833   O     0.67566   0.97168   0.27190   0.00000  Uiso   1.00
O834   O     0.83333   0.87293   0.18573   0.00000  Uiso   1.00
O835   O     0.83334   0.79374   0.31427   0.00000  Uiso   1.00
O836   O     0.83334   0.87293   0.31427   0.00000  Uiso   1.00
O837   O     0.83333   0.79374   0.18573   0.00000  Uiso   1.00
O838   O     0.78793   0.70989   0.12944   0.00000  Uiso   1.00
S839   S     0.77123   0.72115   0.17152   0.00000  Uiso   1.00
S840   S     0.88094   0.94751   0.33755   0.00000  Uiso   1.00
S841   S     0.89641   0.72057   0.32635   0.00000  Uiso   1.00
S842   S     0.76366   0.94611   0.18063   0.00000  Uiso   1.00
S843   S     0.71495   0.74751   0.29490   0.00000  Uiso   1.00
S844   S     0.95043   0.91660   0.20301   0.00000  Uiso   1.00
S845   S     0.96053   0.74205   0.21582   0.00000  Uiso   1.00
S846   S     0.70117   0.92359   0.29129   0.00000  Uiso   1.00
C847   C     0.08809   0.16735   0.75404   0.00000  Uiso   1.00
C848   C     0.30994   0.20686   0.73885   0.00000  Uiso   1.00
C849   C     0.31380   0.12447   0.74692   0.00000  Uiso   1.00
C850   C     0.01955   0.20956   0.75443   0.00000  Uiso   1.00
C851   C     0.16685   0.20789   0.54658   0.00000  Uiso   1.00
C852   C     0.20586   0.16445   0.95912   0.00000  Uiso   1.00
C853   C     0.12970   0.16817   0.94560   0.00000  Uiso   1.00
C854   C     0.17396   0.12434   0.54653   0.00000  Uiso   1.00
C855   C     0.16625   0.20810   0.59282   0.00000  Uiso   1.00
C856   C     0.20533   0.16510   0.91256   0.00000  Uiso   1.00
C857   C     0.12930   0.17243   0.89990   0.00000  Uiso   1.00
C858   C     0.24528   0.16607   0.74625   0.00000  Uiso   1.00
C859   C     0.17664   0.12477   0.59346   0.00000  Uiso   1.00
C860   C     0.16976   0.16623   0.61630   0.00000  Uiso   1.00
C861   C     0.16707   0.16868   0.88304   0.00000  Uiso   1.00
C862   C     0.16984   0.16569   0.52372   0.00000  Uiso   1.00
C863   C     0.16816   0.16422   0.97514   0.00000  Uiso   1.00
C864   C     0.28994   0.16540   0.74222   0.00000  Uiso   1.00
C865   C     0.04367   0.16831   0.75933   0.00000  Uiso   1.00
C866   C     0.16793   0.16633   0.66506   0.00000  Uiso   1.00
C867   C     0.16696   0.16720   0.83475   0.00000  Uiso   1.00
C868   C     0.13962   0.02510   0.71731   0.00000  Uiso   1.00
C869   C     0.19135   0.30895   0.78472   0.00000  Uiso   1.00
C870   C     0.19298   0.02522   0.78299   0.00000  Uiso   1.00
C871   C     0.13955   0.30820   0.71754   0.00000  Uiso   1.00
C872   C     0.02348   0.12643   0.76146   0.00000  Uiso   1.00
Cu873  Cu    0.16667   0.21355   0.75000   0.00000  Uiso   1.00
Cu874  Cu    0.16667   0.11978   0.75000   0.00000  Uiso   1.00
H875   H     0.07929   0.11758   0.64069   0.00000  Uiso   1.00
H876   H     0.26285   0.14513   0.91524   0.00000  Uiso   1.00
H877   H     0.09521   0.18888   0.84306   0.00000  Uiso   1.00
H878   H     0.20387   0.06455   0.60095   0.00000  Uiso   1.00
H879   H     0.08670   0.02183   0.78445   0.00000  Uiso   1.00
H880   H     0.26541   0.20374   0.64694   0.00000  Uiso   1.00
H881   H     0.28189   0.10987   0.65262   0.00000  Uiso   1.00
H882   H     0.32138   0.31104   0.79134   0.00000  Uiso   1.00
H883   H     0.26692   0.23954   0.82443   0.00000  Uiso   1.00
H884   H     0.27242   0.11024   0.83558   0.00000  Uiso   1.00
H885   H     0.06516   0.21764   0.65609   0.00000  Uiso   1.00
H886   H     0.16868   0.24553   0.99397   0.00000  Uiso   1.00
H887   H     0.26341   0.18202   0.97699   0.00000  Uiso   1.00
H888   H     0.09543   0.16202   0.99197   0.00000  Uiso   1.00
H889   H     0.16311   0.05952   0.53750   0.00000  Uiso   1.00
H890   H     0.16355   0.27555   0.59652   0.00000  Uiso   1.00
N891   N     0.16667   0.28402   0.75000   0.00000  Uiso   1.00
N892   N     0.16667   0.04931   0.75000   0.00000  Uiso   1.00
O893   O     0.10655   0.20625   0.74999   0.00000  Uiso   1.00
O894   O     0.06161   0.03636   0.66599   0.00000  Uiso   1.00
O895   O     0.09461   0.11099   0.67113   0.00000  Uiso   1.00
O896   O     0.24597   0.30441   0.87141   0.00000  Uiso   1.00
O897   O     0.17887   0.27391   0.86215   0.00000  Uiso   1.00
O898   O     0.23892   0.23110   0.82930   0.00000  Uiso   1.00
O899   O     0.21395   0.04970   0.86968   0.00000  Uiso   1.00
O900   O     0.27091   0.02882   0.82867   0.00000  Uiso   1.00
O901   O     0.24195   0.10885   0.82531   0.00000  Uiso   1.00
O902   O     0.05905   0.29271   0.69984   0.00000  Uiso   1.00
O903   O     0.09219   0.29703   0.63394   0.00000  Uiso   1.00
O904   O     0.22679   0.12709   0.75000   0.00000  Uiso   1.00
O905   O     0.09394   0.22281   0.67182   0.00000  Uiso   1.00
O906   O     0.16358   0.24945   0.52497   0.00000  Uiso   1.00
O907   O     0.24244   0.16549   0.98992   0.00000  Uiso   1.00
O908   O     0.09174   0.16976   0.95997   0.00000  Uiso   1.00
O909   O     0.17481   0.08406   0.52188   0.00000  Uiso   1.00
O910   O     0.16352   0.24902   0.61613   0.00000  Uiso   1.00
O911   O     0.24159   0.16336   0.89519   0.00000  Uiso   1.00
O912   O     0.09113   0.18038   0.87316   0.00000  Uiso   1.00
O913   O     0.18772   0.08568   0.61776   0.00000  Uiso   1.00
O914   O     0.08342   0.09822   0.82920   0.00000  Uiso   1.00
O915   O     0.22679   0.20625   0.75000   0.00000  Uiso   1.00
O916   O     0.01730   0.05961   0.81880   0.00000  Uiso   1.00
O917   O     0.06728   0.04075   0.76309   0.00000  Uiso   1.00
O918   O     0.26130   0.28351   0.72906   0.00000  Uiso   1.00
O919   O     0.31358   0.27523   0.68084   0.00000  Uiso   1.00
O920   O     0.24892   0.22543   0.66281   0.00000  Uiso   1.00
O921   O     0.32795   0.04508   0.70337   0.00000  Uiso   1.00
O922   O     0.26865   0.04784   0.74160   0.00000  Uiso   1.00
O923   O     0.26334   0.09297   0.66866   0.00000  Uiso   1.00
O924   O     0.02264   0.24650   0.83559   0.00000  Uiso   1.00
O925   O     0.08022   0.26578   0.79926   0.00000  Uiso   1.00
O926   O     0.10655   0.12709   0.74999   0.00000  Uiso   1.00
O927   O     0.00899   0.30502   0.77190   0.00000  Uiso   1.00
O928   O     0.16666   0.20626   0.68573   0.00000  Uiso   1.00
O929   O     0.16667   0.12707   0.81427   0.00000  Uiso   1.00
O930   O     0.16667   0.20626   0.81427   0.00000  Uiso   1.00
O931   O     0.16666   0.12707   0.68573   0.00000  Uiso   1.00
O932   O     0.12127   0.04322   0.62944   0.00000  Uiso   1.00
S933   S     0.10457   0.05448   0.67152   0.00000  Uiso   1.00
S934   S     0.21427   0.28085   0.83755   0.00000  Uiso   1.00
S935   S     0.22975   0.05390   0.82635   0.00000  Uiso   1.00
S936   S     0.09699   0.27945   0.68063   0.00000  Uiso   1.00
S937   S     0.04828   0.08085   0.79490   0.00000  Uiso   1.00
S938   S     0.28376   0.24993   0.70301   0.00000  Uiso   1.00
S939   S     0.29386   0.07538   0.71582   0.00000  Uiso   1.00
S940   S     0.03450   0.25693   0.79129   0.00000  Uiso   1.00
C941   C     0.42142   0.16735   0.75404   0.00000  Uiso   1.00
C942   C     0.64327   0.20686   0.73885   0.00000  Uiso   1.00
C943   C     0.64713   0.12447   0.74692   0.00000  Uiso   1.00
C944   C     0.35288   0.20956   0.75443   0.00000  Uiso   1.00
C945   C     0.50018   0.20789   0.54658   0.00000  Uiso   1.00
C946   C     0.53919   0.16445   0.95912   0.00000  Uiso   1.00
C947   C     0.46304   0.16817   0.94560   0.00000  Uiso   1.00
C948   C     0.50729   0.12434   0.54653   0.00000  Uiso   1.00
C949   C     0.49958   0.20810   0.59282   0.00000  Uiso   1.00
C950   C     0.53866   0.16510   0.91256   0.00000  Uiso   1.00
C951   C     0.46264   0.17243   0.89990   0.00000  Uiso   1.00
C952   C     0.57862   0.16607   0.74625   0.00000  Uiso   1.00
C953   C     0.50998   0.12477   0.59346   0.00000  Uiso   1.00
C954   C     0.50310   0.16623   0.61630   0.00000  Uiso   1.00
C955   C     0.50040   0.16868   0.88304   0.00000  Uiso   1.00
C956   C     0.50317   0.16569   0.52372   0.00000  Uiso   1.00
C957   C     0.50149   0.16422   0.97514   0.00000  Uiso   1.00
C958   C     0.62327   0.16540   0.74222   0.00000  Uiso   1.00
C959   C     0.37701   0.16831   0.75933   0.00000  Uiso   1.00
C960   C     0.50126   0.16633   0.66506   0.00000  Uiso   1.00
C961   C     0.50030   0.16720   0.83475   0.00000  Uiso   1.00
C962   C     0.47296   0.02510   0.71731   0.00000  Uiso   1.00
C963   C     0.52468   0.30895   0.78472   0.00000  Uiso   1.00
C964   C     0.52631   0.02522   0.78299   0.00000  Uiso   1.00
C965   C     0.47289   0.30820   0.71754   0.00000  Uiso   1.00
C966   C     0.35681   0.12643   0.76146   0.00000  Uiso   1.00
Cu967  Cu    0.50000   0.21355   0.75000   0.00000  Uiso   1.00
Cu968  Cu    0.50000   0.11978   0.75000   0.00000  Uiso   1.00
H969   H     0.41262   0.11758   0.64069   0.00000  Uiso   1.00
H970   H     0.59619   0.14513   0.91524   0.00000  Uiso   1.00
H971   H     0.42854   0.18888   0.84306   0.00000  Uiso   1.00
H972   H     0.53720   0.06455   0.60095   0.00000  Uiso   1.00
H973   H     0.42003   0.02183   0.78445   0.00000  Uiso   1.00
H974   H     0.59874   0.20374   0.64694   0.00000  Uiso   1.00
H975   H     0.61522   0.10987   0.65262   0.00000  Uiso   1.00
H976   H     0.65471   0.31104   0.79134   0.00000  Uiso   1.00
H977   H     0.60025   0.23954   0.82443   0.00000  Uiso   1.00
H978   H     0.60576   0.11024   0.83558   0.00000  Uiso   1.00
H979   H     0.39850   0.21764   0.65609   0.00000  Uiso   1.00
H980   H     0.50201   0.24553   0.99397   0.00000  Uiso   1.00
H981   H     0.59675   0.18202   0.97699   0.00000  Uiso   1.00
H982   H     0.42877   0.16202   0.99197   0.00000  Uiso   1.00
H983   H     0.49645   0.05952   0.53750   0.00000  Uiso   1.00
H984   H     0.49688   0.27555   0.59652   0.00000  Uiso   1.00
N985   N     0.50000   0.28402   0.75000   0.00000  Uiso   1.00
N986   N     0.50000   0.04931   0.75000   0.00000  Uiso   1.00
O987   O     0.43988   0.20625   0.74999   0.00000  Uiso   1.00
O988   O     0.39494   0.03636   0.66599   0.00000  Uiso   1.00
O989   O     0.42795   0.11099   0.67113   0.00000  Uiso   1.00
O990   O     0.57930   0.30441   0.87141   0.00000  Uiso   1.00
O991   O     0.51220   0.27391   0.86215   0.00000  Uiso   1.00
O992   O     0.57225   0.23110   0.82930   0.00000  Uiso   1.00
O993   O     0.54728   0.04970   0.86968   0.00000  Uiso   1.00
O994   O     0.60424   0.02882   0.82867   0.00000  Uiso   1.00
O995   O     0.57529   0.10885   0.82531   0.00000  Uiso   1.00
O996   O     0.39238   0.29271   0.69984   0.00000  Uiso   1.00
O997   O     0.42552   0.29703   0.63394   0.00000  Uiso   1.00
O998   O     0.56012   0.12709   0.75000   0.00000  Uiso   1.00
O999   O     0.42727   0.22281   0.67182   0.00000  Uiso   1.00
O1000  O     0.49692   0.24945   0.52497   0.00000  Uiso   1.00
O1001  O     0.57577   0.16549   0.98992   0.00000  Uiso   1.00
O1002  O     0.42507   0.16976   0.95997   0.00000  Uiso   1.00
O1003  O     0.50815   0.08406   0.52188   0.00000  Uiso   1.00
O1004  O     0.49685   0.24902   0.61613   0.00000  Uiso   1.00
O1005  O     0.57493   0.16336   0.89519   0.00000  Uiso   1.00
O1006  O     0.42447   0.18038   0.87316   0.00000  Uiso   1.00
O1007  O     0.52105   0.08568   0.61776   0.00000  Uiso   1.00
O1008  O     0.41675   0.09822   0.82920   0.00000  Uiso   1.00
O1009  O     0.56012   0.20625   0.75000   0.00000  Uiso   1.00
O1010  O     0.35064   0.05961   0.81880   0.00000  Uiso   1.00
O1011  O     0.40061   0.04075   0.76309   0.00000  Uiso   1.00
O1012  O     0.59463   0.28351   0.72906   0.00000  Uiso   1.00
O1013  O     0.64692   0.27523   0.68084   0.00000  Uiso   1.00
O1014  O     0.58225   0.22543   0.66281   0.00000  Uiso   1.00
O1015  O     0.66129   0.04508   0.70337   0.00000  Uiso   1.00
O1016  O     0.60199   0.04784   0.74160   0.00000  Uiso   1.00
O1017  O     0.59668   0.09297   0.66866   0.00000  Uiso   1.00
O1018  O     0.35598   0.24650   0.83559   0.00000  Uiso   1.00
O1019  O     0.41355   0.26578   0.79926   0.00000  Uiso   1.00
O1020  O     0.43988   0.12709   0.74999   0.00000  Uiso   1.00
O1021  O     0.34233   0.30502   0.77190   0.00000  Uiso   1.00
O1022  O     0.50000   0.20626   0.68573   0.00000  Uiso   1.00
O1023  O     0.50000   0.12707   0.81427   0.00000  Uiso   1.00
O1024  O     0.50000   0.20626   0.81427   0.00000  Uiso   1.00
O1025  O     0.50000   0.12707   0.68573   0.00000  Uiso   1.00
O1026  O     0.45460   0.04322   0.62944   0.00000  Uiso   1.00
S1027  S     0.43790   0.05448   0.67152   0.00000  Uiso   1.00
S1028  S     0.54761   0.28085   0.83755   0.00000  Uiso   1.00
S1029  S     0.56308   0.05390   0.82635   0.00000  Uiso   1.00
S1030  S     0.43032   0.27945   0.68063   0.00000  Uiso   1.00
S1031  S     0.38162   0.08085   0.79490   0.00000  Uiso   1.00
S1032  S     0.61710   0.24993   0.70301   0.00000  Uiso   1.00
S1033  S     0.62719   0.07538   0.71582   0.00000  Uiso   1.00
S1034  S     0.36784   0.25693   0.79129   0.00000  Uiso   1.00
C1035  C     0.75476   0.16735   0.75404   0.00000  Uiso   1.00
C1036  C     0.97661   0.20686   0.73885   0.00000  Uiso   1.00
C1037  C     0.98047   0.12447   0.74692   0.00000  Uiso   1.00
C1038  C     0.68622   0.20956   0.75443   0.00000  Uiso   1.00
C1039  C     0.83351   0.20789   0.54658   0.00000  Uiso   1.00
C1040  C     0.87253   0.16445   0.95912   0.00000  Uiso   1.00
C1041  C     0.79637   0.16817   0.94560   0.00000  Uiso   1.00
C1042  C     0.84062   0.12434   0.54653   0.00000  Uiso   1.00
C1043  C     0.83291   0.20810   0.59282   0.00000  Uiso   1.00
C1044  C     0.87200   0.16510   0.91256   0.00000  Uiso   1.00
C1045  C     0.79597   0.17243   0.89990   0.00000  Uiso   1.00
C1046  C     0.91195   0.16607   0.74625   0.00000  Uiso   1.00
C1047  C     0.84331   0.12477   0.59346   0.00000  Uiso   1.00
C1048  C     0.83643   0.16623   0.61630   0.00000  Uiso   1.00
C1049  C     0.83374   0.16868   0.88304   0.00000  Uiso   1.00
C1050  C     0.83650   0.16569   0.52372   0.00000  Uiso   1.00
C1051  C     0.83483   0.16422   0.97514   0.00000  Uiso   1.00
C1052  C     0.95660   0.16540   0.74222   0.00000  Uiso   1.00
C1053  C     0.71034   0.16831   0.75933   0.00000  Uiso   1.00
C1054  C     0.83460   0.16633   0.66506   0.00000  Uiso   1.00
C1055  C     0.83363   0.16720   0.83475   0.00000  Uiso   1.00
C1056  C     0.80629   0.02510   0.71731   0.00000  Uiso   1.00
C1057  C     0.85801   0.30895   0.78472   0.00000  Uiso   1.00
C1058  C     0.85965   0.02522   0.78299   0.00000  Uiso   1.00
C1059  C     0.80622   0.30820   0.71754   0.00000  Uiso   1.00
C1060  C     0.69014   0.12643   0.76146   0.00000  Uiso   1.00
Cu1061 Cu    0.83333   0.21355   0.75000   0.00000  Uiso   1.00
Cu1062 Cu    0.83333   0.11978   0.75000   0.00000  Uiso   1.00
H1063  H     0.74595   0.11758   0.64069   0.00000  Uiso   1.00
H1064  H     0.92952   0.14513   0.91524   0.00000  Uiso   1.00
H1065  H     0.76188   0.18888   0.84306   0.00000  Uiso   1.00
H1066  H     0.87053   0.06455   0.60095   0.00000  Uiso   1.00
H1067  H     0.75337   0.02183   0.78445   0.00000  Uiso   1.00
H1068  H     0.93208   0.20374   0.64694   0.00000  Uiso   1.00
H1069  H     0.94856   0.10987   0.65262   0.00000  Uiso   1.00
H1070  H     0.98804   0.31104   0.79134   0.00000  Uiso   1.00
H1071  H     0.93359   0.23954   0.82443   0.00000  Uiso   1.00
H1072  H     0.93909   0.11024   0.83558   0.00000  Uiso   1.00
H1073  H     0.73183   0.21764   0.65609   0.00000  Uiso   1.00
H1074  H     0.83535   0.24553   0.99397   0.00000  Uiso   1.00
H1075  H     0.93008   0.18202   0.97699   0.00000  Uiso   1.00
H1076  H     0.76210   0.16202   0.99197   0.00000  Uiso   1.00
H1077  H     0.82978   0.05952   0.53750   0.00000  Uiso   1.00
H1078  H     0.83022   0.27555   0.59652   0.00000  Uiso   1.00
N1079  N     0.83333   0.28402   0.75000   0.00000  Uiso   1.00
N1080  N     0.83333   0.04931   0.75000   0.00000  Uiso   1.00
O1081  O     0.77321   0.20625   0.74999   0.00000  Uiso   1.00
O1082  O     0.72828   0.03636   0.66599   0.00000  Uiso   1.00
O1083  O     0.76128   0.11099   0.67113   0.00000  Uiso   1.00
O1084  O     0.91263   0.30441   0.87141   0.00000  Uiso   1.00
O1085  O     0.84554   0.27391   0.86215   0.00000  Uiso   1.00
O1086  O     0.90558   0.23110   0.82930   0.00000  Uiso   1.00
O1087  O     0.88062   0.04970   0.86968   0.00000  Uiso   1.00
O1088  O     0.93758   0.02882   0.82867   0.00000  Uiso   1.00
O1089  O     0.90862   0.10885   0.82531   0.00000  Uiso   1.00
O1090  O     0.72571   0.29271   0.69984   0.00000  Uiso   1.00
O1091  O     0.75885   0.29703   0.63394   0.00000  Uiso   1.00
O1092  O     0.89345   0.12709   0.75000   0.00000  Uiso   1.00
O1093  O     0.76060   0.22281   0.67182   0.00000  Uiso   1.00
O1094  O     0.83025   0.24945   0.52497   0.00000  Uiso   1.00
O1095  O     0.90911   0.16549   0.98992   0.00000  Uiso   1.00
O1096  O     0.75841   0.16976   0.95997   0.00000  Uiso   1.00
O1097  O     0.84148   0.08406   0.52188   0.00000  Uiso   1.00
O1098  O     0.83019   0.24902   0.61613   0.00000  Uiso   1.00
O1099  O     0.90826   0.16336   0.89519   0.00000  Uiso   1.00
O1100  O     0.75780   0.18038   0.87316   0.00000  Uiso   1.00
O1101  O     0.85438   0.08568   0.61776   0.00000  Uiso   1.00
O1102  O     0.75008   0.09822   0.82920   0.00000  Uiso   1.00
O1103  O     0.89345   0.20625   0.75000   0.00000  Uiso   1.00
O1104  O     0.68397   0.05961   0.81880   0.00000  Uiso   1.00
O1105  O     0.73395   0.04075   0.76309   0.00000  Uiso   1.00
O1106  O     0.92796   0.28351   0.72906   0.00000  Uiso   1.00
O1107  O     0.98025   0.27523   0.68084   0.00000  Uiso   1.00
O1108  O     0.91558   0.22543   0.66281   0.00000  Uiso   1.00
O1109  O     0.99462   0.04508   0.70337   0.00000  Uiso   1.00
O1110  O     0.93532   0.04784   0.74160   0.00000  Uiso   1.00
O1111  O     0.93001   0.09297   0.66866   0.00000  Uiso   1.00
O1112  O     0.68931   0.24650   0.83559   0.00000  Uiso   1.00
O1113  O     0.74689   0.26578   0.79926   0.00000  Uiso   1.00
O1114  O     0.77321   0.12709   0.74999   0.00000  Uiso   1.00
O1115  O     0.67566   0.30502   0.77190   0.00000  Uiso   1.00
O1116  O     0.83333   0.20626   0.68573   0.00000  Uiso   1.00
O1117  O     0.83334   0.12707   0.81427   0.00000  Uiso   1.00
O1118  O     0.83334   0.20626   0.81427   0.00000  Uiso   1.00
O1119  O     0.83333   0.12707   0.68573   0.00000  Uiso   1.00
O1120  O     0.78793   0.04322   0.62944   0.00000  Uiso   1.00
S1121  S     0.77123   0.05448   0.67152   0.00000  Uiso   1.00
S1122  S     0.88094   0.28085   0.83755   0.00000  Uiso   1.00
S1123  S     0.89641   0.05390   0.82635   0.00000  Uiso   1.00
S1124  S     0.76366   0.27945   0.68063   0.00000  Uiso   1.00
S1125  S     0.71495   0.08085   0.79490   0.00000  Uiso   1.00
S1126  S     0.95043   0.24993   0.70301   0.00000  Uiso   1.00
S1127  S     0.96053   0.07538   0.71582   0.00000  Uiso   1.00
S1128  S     0.70117   0.25693   0.79129   0.00000  Uiso   1.00
C1129  C     0.08809   0.50069   0.75404   0.00000  Uiso   1.00
C1130  C     0.30994   0.54019   0.73885   0.00000  Uiso   1.00
C1131  C     0.31380   0.45780   0.74692   0.00000  Uiso   1.00
C1132  C     0.01955   0.54290   0.75443   0.00000  Uiso   1.00
C1133  C     0.16685   0.54123   0.54658   0.00000  Uiso   1.00
C1134  C     0.20586   0.49778   0.95912   0.00000  Uiso   1.00
C1135  C     0.12970   0.50150   0.94560   0.00000  Uiso   1.00
C1136  C     0.17396   0.45767   0.54653   0.00000  Uiso   1.00
C1137  C     0.16625   0.54144   0.59282   0.00000  Uiso   1.00
C1138  C     0.20533   0.49843   0.91256   0.00000  Uiso   1.00
C1139  C     0.12930   0.50576   0.89990   0.00000  Uiso   1.00
C1140  C     0.24528   0.49940   0.74625   0.00000  Uiso   1.00
C1141  C     0.17664   0.45811   0.59346   0.00000  Uiso   1.00
C1142  C     0.16976   0.49956   0.61630   0.00000  Uiso   1.00
C1143  C     0.16707   0.50202   0.88304   0.00000  Uiso   1.00
C1144  C     0.16984   0.49902   0.52372   0.00000  Uiso   1.00
C1145  C     0.16816   0.49755   0.97514   0.00000  Uiso   1.00
C1146  C     0.28994   0.49873   0.74222   0.00000  Uiso   1.00
C1147  C     0.04367   0.50164   0.75933   0.00000  Uiso   1.00
C1148  C     0.16793   0.49967   0.66506   0.00000  Uiso   1.00
C1149  C     0.16696   0.50054   0.83475   0.00000  Uiso   1.00
C1150  C     0.13962   0.35844   0.71731   0.00000  Uiso   1.00
C1151  C     0.19135   0.64228   0.78472   0.00000  Uiso   1.00
C1152  C     0.19298   0.35855   0.78299   0.00000  Uiso   1.00
C1153  C     0.13955   0.64153   0.71754   0.00000  Uiso   1.00
C1154  C     0.02348   0.45976   0.76146   0.00000  Uiso   1.00
Cu1155 Cu    0.16667   0.54689   0.75000   0.00000  Uiso   1.00
Cu1156 Cu    0.16667   0.45311   0.75000   0.00000  Uiso   1.00
H1157  H     0.07929   0.45091   0.64069   0.00000  Uiso   1.00
H1158  H     0.26285   0.47847   0.91524   0.00000  Uiso   1.00
H1159  H     0.09521   0.52221   0.84306   0.00000  Uiso   1.00
H1160  H     0.20387   0.39788   0.60095   0.00000  Uiso   1.00
H1161  H     0.08670   0.35517   0.78445   0.00000  Uiso   1.00
H1162  H     0.26541   0.53707   0.64694   0.00000  Uiso   1.00
H1163  H     0.28189   0.44321   0.65262   0.00000  Uiso   1.00
H1164  H     0.32138   0.64437   0.79134   0.00000  Uiso   1.00
H1165  H     0.26692   0.57287   0.82443   0.00000  Uiso   1.00
H1166  H     0.27242   0.44358   0.83558   0.00000  Uiso   1.00
H1167  H     0.06516   0.55097   0.65609   0.00000  Uiso   1.00
H1168  H     0.16868   0.57887   0.99397   0.00000  Uiso   1.00
H1169  H     0.26341   0.51536   0.97699   0.00000  Uiso   1.00
H1170  H     0.09543   0.49536   0.99197   0.00000  Uiso   1.00
H1171  H     0.16311   0.39285   0.53750   0.00000  Uiso   1.00
H1172  H     0.16355   0.60889   0.59652   0.00000  Uiso   1.00
N1173  N     0.16667   0.61736   0.75000   0.00000  Uiso   1.00
N1174  N     0.16667   0.38264   0.75000   0.00000  Uiso   1.00
O1175  O     0.10655   0.53958   0.74999   0.00000  Uiso   1.00
O1176  O     0.06161   0.36969   0.66599   0.00000  Uiso   1.00
O1177  O     0.09461   0.44433   0.67113   0.00000  Uiso   1.00
O1178  O     0.24597   0.63775   0.87141   0.00000  Uiso   1.00
O1179  O     0.17887   0.60725   0.86215   0.00000  Uiso   1.00
O1180  O     0.23892   0.56443   0.82930   0.00000  Uiso   1.00
O1181  O     0.21395   0.38303   0.86968   0.00000  Uiso   1.00
O1182  O     0.27091   0.36215   0.82867   0.00000  Uiso   1.00
O1183  O     0.24195   0.44218   0.82531   0.00000  Uiso   1.00
O1184  O     0.05905   0.62604   0.69984   0.00000  Uiso   1.00
O1185  O     0.09219   0.63036   0.63394   0.00000  Uiso   1.00
O1186  O     0.22679   0.46042   0.75000   0.00000  Uiso   1.00
O1187  O     0.09394   0.55614   0.67182   0.00000  Uiso   1.00
O1188  O     0.16358   0.58279   0.52497   0.00000  Uiso   1.00
O1189  O     0.24244   0.49882   0.98992   0.00000  Uiso   1.00
O1190  O     0.09174   0.50309   0.95997   0.00000  Uiso   1.00
O1191  O     0.17481   0.41739   0.52188   0.00000  Uiso   1.00
O1192  O     0.16352   0.58235   0.61613   0.00000  Uiso   1.00
O1193  O     0.24159   0.49669   0.89519   0.00000  Uiso   1.00
O1194  O     0.09113   0.51371   0.87316   0.00000  Uiso   1.00
O1195  O     0.18772   0.41901   0.61776   0.00000  Uiso   1.00
O1196  O     0.08342   0.43156   0.82920   0.00000  Uiso   1.00
O1197  O     0.22679   0.53958   0.75000   0.00000  Uiso   1.00
O1198  O     0.01730   0.39294   0.81880   0.00000  Uiso   1.00
O1199  O     0.06728   0.37409   0.76309   0.00000  Uiso   1.00
O1200  O     0.26130   0.61685   0.72906   0.00000  Uiso   1.00
O1201  O     0.31358   0.60857   0.68084   0.00000  Uiso   1.00
O1202  O     0.24892   0.55877   0.66281   0.00000  Uiso   1.00
O1203  O     0.32795   0.37841   0.70337   0.00000  Uiso   1.00
O1204  O     0.26865   0.38117   0.74160   0.00000  Uiso   1.00
O1205  O     0.26334   0.42631   0.66866   0.00000  Uiso   1.00
O1206  O     0.02264   0.57983   0.83559   0.00000  Uiso   1.00
O1207  O     0.08022   0.59911   0.79926   0.00000  Uiso   1.00
O1208  O     0.10655   0.46042   0.74999   0.00000  Uiso   1.00
O1209  O     0.00899   0.63835   0.77190   0.00000  Uiso   1.00
O1210  O     0.16666   0.53959   0.68573   0.00000  Uiso   1.00
O1211  O     0.16667   0.46041   0.81427   0.00000  Uiso   1.00
O1212  O     0.16667   0.53959   0.81427   0.00000  Uiso   1.00
O1213  O     0.16666   0.46041   0.68573   0.00000  Uiso   1.00
O1214  O     0.12127   0.37655   0.62944   0.00000  Uiso   1.00
S1215  S     0.10457   0.38781   0.67152   0.00000  Uiso   1.00
S1216  S     0.21427   0.61418   0.83755   0.00000  Uiso   1.00
S1217  S     0.22975   0.38723   0.82635   0.00000  Uiso   1.00
S1218  S     0.09699   0.61278   0.68063   0.00000  Uiso   1.00
S1219  S     0.04828   0.41418   0.79490   0.00000  Uiso   1.00
S1220  S     0.28376   0.58326   0.70301   0.00000  Uiso   1.00
S1221  S     0.29386   0.40871   0.71582   0.00000  Uiso   1.00
S1222  S     0.03450   0.59026   0.79129   0.00000  Uiso   1.00
C1223  C     0.42142   0.50069   0.75404   0.00000  Uiso   1.00
C1224  C     0.64327   0.54019   0.73885   0.00000  Uiso   1.00
C1225  C     0.64713   0.45780   0.74692   0.00000  Uiso   1.00
C1226  C     0.35288   0.54290   0.75443   0.00000  Uiso   1.00
C1227  C     0.50018   0.54123   0.54658   0.00000  Uiso   1.00
C1228  C     0.53919   0.49778   0.95912   0.00000  Uiso   1.00
C1229  C     0.46304   0.50150   0.94560   0.00000  Uiso   1.00
C1230  C     0.50729   0.45767   0.54653   0.00000  Uiso   1.00
C1231  C     0.49958   0.54144   0.59282   0.00000  Uiso   1.00
C1232  C     0.53866   0.49843   0.91256   0.00000  Uiso   1.00
C1233  C     0.46264   0.50576   0.89990   0.00000  Uiso   1.00
C1234  C     0.57862   0.49940   0.74625   0.00000  Uiso   1.00
C1235  C     0.50998   0.45811   0.59346   0.00000  Uiso   1.00
C1236  C     0.50310   0.49956   0.61630   0.00000  Uiso   1.00
C1237  C     0.50040   0.50202   0.88304   0.00000  Uiso   1.00
C1238  C     0.50317   0.49902   0.52372   0.00000  Uiso   1.00
C1239  C     0.50149   0.49755   0.97514   0.00000  Uiso   1.00
C1240  C     0.62327   0.49873   0.74222   0.00000  Uiso   1.00
C1241  C     0.37701   0.50164   0.75933   0.00000  Uiso   1.00
C1242  C     0.50126   0.49967   0.66506   0.00000  Uiso   1.00
C1243  C     0.50030   0.50054   0.83475   0.00000  Uiso   1.00
C1244  C     0.47296   0.35844   0.71731   0.00000  Uiso   1.00
C1245  C     0.52468   0.64228   0.78472   0.00000  Uiso   1.00
C1246  C     0.52631   0.35855   0.78299   0.00000  Uiso   1.00
C1247  C     0.47289   0.64153   0.71754   0.00000  Uiso   1.00
C1248  C     0.35681   0.45976   0.76146   0.00000  Uiso   1.00
Cu1249 Cu    0.50000   0.54689   0.75000   0.00000  Uiso   1.00
Cu1250 Cu    0.50000   0.45311   0.75000   0.00000  Uiso   1.00
H1251  H     0.41262   0.45091   0.64069   0.00000  Uiso   1.00
H1252  H     0.59619   0.47847   0.91524   0.00000  Uiso   1.00
H1253  H     0.42854   0.52221   0.84306   0.00000  Uiso   1.00
H1254  H     0.53720   0.39788   0.60095   0.00000  Uiso   1.00
H1255  H     0.42003   0.35517   0.78445   0.00000  Uiso   1.00
H1256  H     0.59874   0.53707   0.64694   0.00000  Uiso   1.00
H1257  H     0.61522   0.44321   0.65262   0.00000  Uiso   1.00
H1258  H     0.65471   0.64437   0.79134   0.00000  Uiso   1.00
H1259  H     0.60025   0.57287   0.82443   0.00000  Uiso   1.00
H1260  H     0.60576   0.44358   0.83558   0.00000  Uiso   1.00
H1261  H     0.39850   0.55097   0.65609   0.00000  Uiso   1.00
H1262  H     0.50201   0.57887   0.99397   0.00000  Uiso   1.00
H1263  H     0.59675   0.51536   0.97699   0.00000  Uiso   1.00
H1264  H     0.42877   0.49536   0.99197   0.00000  Uiso   1.00
H1265  H     0.49645   0.39285   0.53750   0.00000  Uiso   1.00
H1266  H     0.49688   0.60889   0.59652   0.00000  Uiso   1.00
N1267  N     0.50000   0.61736   0.75000   0.00000  Uiso   1.00
N1268  N     0.50000   0.38264   0.75000   0.00000  Uiso   1.00
O1269  O     0.43988   0.53958   0.74999   0.00000  Uiso   1.00
O1270  O     0.39494   0.36969   0.66599   0.00000  Uiso   1.00
O1271  O     0.42795   0.44433   0.67113   0.00000  Uiso   1.00
O1272  O     0.57930   0.63775   0.87141   0.00000  Uiso   1.00
O1273  O     0.51220   0.60725   0.86215   0.00000  Uiso   1.00
O1274  O     0.57225   0.56443   0.82930   0.00000  Uiso   1.00
O1275  O     0.54728   0.38303   0.86968   0.00000  Uiso   1.00
O1276  O     0.60424   0.36215   0.82867   0.00000  Uiso   1.00
O1277  O     0.57529   0.44218   0.82531   0.00000  Uiso   1.00
O1278  O     0.39238   0.62604   0.69984   0.00000  Uiso   1.00
O1279  O     0.42552   0.63036   0.63394   0.00000  Uiso   1.00
O1280  O     0.56012   0.46042   0.75000   0.00000  Uiso   1.00
O1281  O     0.42727   0.55614   0.67182   0.00000  Uiso   1.00
O1282  O     0.49692   0.58279   0.52497   0.00000  Uiso   1.00
O1283  O     0.57577   0.49882   0.98992   0.00000  Uiso   1.00
O1284  O     0.42507   0.50309   0.95997   0.00000  Uiso   1.00
O1285  O     0.50815   0.41739   0.52188   0.00000  Uiso   1.00
O1286  O     0.49685   0.58235   0.61613   0.00000  Uiso   1.00
O1287  O     0.57493   0.49669   0.89519   0.00000  Uiso   1.00
O1288  O     0.42447   0.51371   0.87316   0.00000  Uiso   1.00
O1289  O     0.52105   0.41901   0.61776   0.00000  Uiso   1.00
O1290  O     0.41675   0.43156   0.82920   0.00000  Uiso   1.00
O1291  O     0.56012   0.53958   0.75000   0.00000  Uiso   1.00
O1292  O     0.35064   0.39294   0.81880   0.00000  Uiso   1.00
O1293  O     0.40061   0.37409   0.76309   0.00000  Uiso   1.00
O1294  O     0.59463   0.61685   0.72906   0.00000  Uiso   1.00
O1295  O     0.64692   0.60857   0.68084   0.00000  Uiso   1.00
O1296  O     0.58225   0.55877   0.66281   0.00000  Uiso   1.00
O1297  O     0.66129   0.37841   0.70337   0.00000  Uiso   1.00
O1298  O     0.60199   0.38117   0.74160   0.00000  Uiso   1.00
O1299  O     0.59668   0.42631   0.66866   0.00000  Uiso   1.00
O1300  O     0.35598   0.57983   0.83559   0.00000  Uiso   1.00
O1301  O     0.41355   0.59911   0.79926   0.00000  Uiso   1.00
O1302  O     0.43988   0.46042   0.74999   0.00000  Uiso   1.00
O1303  O     0.34233   0.63835   0.77190   0.00000  Uiso   1.00
O1304  O     0.50000   0.53959   0.68573   0.00000  Uiso   1.00
O1305  O     0.50000   0.46041   0.81427   0.00000  Uiso   1.00
O1306  O     0.50000   0.53959   0.81427   0.00000  Uiso   1.00
O1307  O     0.50000   0.46041   0.68573   0.00000  Uiso   1.00
O1308  O     0.45460   0.37655   0.62944   0.00000  Uiso   1.00
S1309  S     0.43790   0.38781   0.67152   0.00000  Uiso   1.00
S1310  S     0.54761   0.61418   0.83755   0.00000  Uiso   1.00
S1311  S     0.56308   0.38723   0.82635   0.00000  Uiso   1.00
S1312  S     0.43032   0.61278   0.68063   0.00000  Uiso   1.00
S1313  S     0.38162   0.41418   0.79490   0.00000  Uiso   1.00
S1314  S     0.61710   0.58326   0.70301   0.00000  Uiso   1.00
S1315  S     0.62719   0.40871   0.71582   0.00000  Uiso   1.00
S1316  S     0.36784   0.59026   0.79129   0.00000  Uiso   1.00
C1317  C     0.75476   0.50069   0.75404   0.00000  Uiso   1.00
C1318  C     0.97661   0.54019   0.73885   0.00000  Uiso   1.00
C1319  C     0.98047   0.45780   0.74692   0.00000  Uiso   1.00
C1320  C     0.68622   0.54290   0.75443   0.00000  Uiso   1.00
C1321  C     0.83351   0.54123   0.54658   0.00000  Uiso   1.00
C1322  C     0.87253   0.49778   0.95912   0.00000  Uiso   1.00
C1323  C     0.79637   0.50150   0.94560   0.00000  Uiso   1.00
C1324  C     0.84062   0.45767   0.54653   0.00000  Uiso   1.00
C1325  C     0.83291   0.54144   0.59282   0.00000  Uiso   1.00
C1326  C     0.87200   0.49843   0.91256   0.00000  Uiso   1.00
C1327  C     0.79597   0.50576   0.89990   0.00000  Uiso   1.00
C1328  C     0.91195   0.49940   0.74625   0.00000  Uiso   1.00
C1329  C     0.84331   0.45811   0.59346   0.00000  Uiso   1.00
C1330  C     0.83643   0.49956   0.61630   0.00000  Uiso   1.00
C1331  C     0.83374   0.50202   0.88304   0.00000  Uiso   1.00
C1332  C     0.83650   0.49902   0.52372   0.00000  Uiso   1.00
C1333  C     0.83483   0.49755   0.97514   0.00000  Uiso   1.00
C1334  C     0.95660   0.49873   0.74222   0.00000  Uiso   1.00
C1335  C     0.71034   0.50164   0.75933   0.00000  Uiso   1.00
C1336  C     0.83460   0.49967   0.66506   0.00000  Uiso   1.00
C1337  C     0.83363   0.50054   0.83475   0.00000  Uiso   1.00
C1338  C     0.80629   0.35844   0.71731   0.00000  Uiso   1.00
C1339  C     0.85801   0.64228   0.78472   0.00000  Uiso   1.00
C1340  C     0.85965   0.35855   0.78299   0.00000  Uiso   1.00
C1341  C     0.80622   0.64153   0.71754   0.00000  Uiso   1.00
C1342  C     0.69014   0.45976   0.76146   0.00000  Uiso   1.00
Cu1343 Cu    0.83333   0.54689   0.75000   0.00000  Uiso   1.00
Cu1344 Cu    0.83333   0.45311   0.75000   0.00000  Uiso   1.00
H1345  H     0.74595   0.45091   0.64069   0.00000  Uiso   1.00
H1346  H     0.92952   0.47847   0.91524   0.00000  Uiso   1.00
H1347  H     0.76188   0.52221   0.84306   0.00000  Uiso   1.00
H1348  H     0.87053   0.39788   0.60095   0.00000  Uiso   1.00
H1349  H     0.75337   0.35517   0.78445   0.00000  Uiso   1.00
H1350  H     0.93208   0.53707   0.64694   0.00000  Uiso   1.00
H1351  H     0.94856   0.44321   0.65262   0.00000  Uiso   1.00
H1352  H     0.98804   0.64437   0.79134   0.00000  Uiso   1.00
H1353  H     0.93359   0.57287   0.82443   0.00000  Uiso   1.00
H1354  H     0.93909   0.44358   0.83558   0.00000  Uiso   1.00
H1355  H     0.73183   0.55097   0.65609   0.00000  Uiso   1.00
H1356  H     0.83535   0.57887   0.99397   0.00000  Uiso   1.00
H1357  H     0.93008   0.51536   0.97699   0.00000  Uiso   1.00
H1358  H     0.76210   0.49536   0.99197   0.00000  Uiso   1.00
H1359  H     0.82978   0.39285   0.53750   0.00000  Uiso   1.00
H1360  H     0.83022   0.60889   0.59652   0.00000  Uiso   1.00
N1361  N     0.83333   0.61736   0.75000   0.00000  Uiso   1.00
N1362  N     0.83333   0.38264   0.75000   0.00000  Uiso   1.00
O1363  O     0.77321   0.53958   0.74999   0.00000  Uiso   1.00
O1364  O     0.72828   0.36969   0.66599   0.00000  Uiso   1.00
O1365  O     0.76128   0.44433   0.67113   0.00000  Uiso   1.00
O1366  O     0.91263   0.63775   0.87141   0.00000  Uiso   1.00
O1367  O     0.84554   0.60725   0.86215   0.00000  Uiso   1.00
O1368  O     0.90558   0.56443   0.82930   0.00000  Uiso   1.00
O1369  O     0.88062   0.38303   0.86968   0.00000  Uiso   1.00
O1370  O     0.93758   0.36215   0.82867   0.00000  Uiso   1.00
O1371  O     0.90862   0.44218   0.82531   0.00000  Uiso   1.00
O1372  O     0.72571   0.62604   0.69984   0.00000  Uiso   1.00
O1373  O     0.75885   0.63036   0.63394   0.00000  Uiso   1.00
O1374  O     0.89345   0.46042   0.75000   0.00000  Uiso   1.00
O1375  O     0.76060   0.55614   0.67182   0.00000  Uiso   1.00
O1376  O     0.83025   0.58279   0.52497   0.00000  Uiso   1.00
O1377  O     0.90911   0.49882   0.98992   0.00000  Uiso   1.00
O1378  O     0.75841   0.50309   0.95997   0.00000  Uiso   1.00
O1379  O     0.84148   0.41739   0.52188   0.00000  Uiso   1.00
O1380  O     0.83019   0.58235   0.61613   0.00000  Uiso   1.00
O1381  O     0.90826   0.49669   0.89519   0.00000  Uiso   1.00
O1382  O     0.75780   0.51371   0.87316   0.00000  Uiso   1.00
O1383  O     0.85438   0.41901   0.61776   0.00000  Uiso   1.00
O1384  O     0.75008   0.43156   0.82920   0.00000  Uiso   1.00
O1385  O     0.89345   0.53958   0.75000   0.00000  Uiso   1.00
O1386  O     0.68397   0.39294   0.81880   0.00000  Uiso   1.00
O1387  O     0.73395   0.37409   0.76309   0.00000  Uiso   1.00
O1388  O     0.92796   0.61685   0.72906   0.00000  Uiso   1.00
O1389  O     0.98025   0.60857   0.68084   0.00000  Uiso   1.00
O1390  O     0.91558   0.55877   0.66281   0.00000  Uiso   1.00
O1391  O     0.99462   0.37841   0.70337   0.00000  Uiso   1.00
O1392  O     0.93532   0.38117   0.74160   0.00000  Uiso   1.00
O1393  O     0.93001   0.42631   0.66866   0.00000  Uiso   1.00
O1394  O     0.68931   0.57983   0.83559   0.00000  Uiso   1.00
O1395  O     0.74689   0.59911   0.79926   0.00000  Uiso   1.00
O1396  O     0.77321   0.46042   0.74999   0.00000  Uiso   1.00
O1397  O     0.67566   0.63835   0.77190   0.00000  Uiso   1.00
O1398  O     0.83333   0.53959   0.68573   0.00000  Uiso   1.00
O1399  O     0.83334   0.46041   0.81427   0.00000  Uiso   1.00
O1400  O     0.83334   0.53959   0.81427   0.00000  Uiso   1.00
O1401  O     0.83333   0.46041   0.68573   0.00000  Uiso   1.00
O1402  O     0.78793   0.37655   0.62944   0.00000  Uiso   1.00
S1403  S     0.77123   0.38781   0.67152   0.00000  Uiso   1.00
S1404  S     0.88094   0.61418   0.83755   0.00000  Uiso   1.00
S1405  S     0.89641   0.38723   0.82635   0.00000  Uiso   1.00
S1406  S     0.76366   0.61278   0.68063   0.00000  Uiso   1.00
S1407  S     0.71495   0.41418   0.79490   0.00000  Uiso   1.00
S1408  S     0.95043   0.58326   0.70301   0.00000  Uiso   1.00
S1409  S     0.96053   0.40871   0.71582   0.00000  Uiso   1.00
S1410  S     0.70117   0.59026   0.79129   0.00000  Uiso   1.00
C1411  C     0.08809   0.83402   0.75404   0.00000  Uiso   1.00
C1412  C     0.30994   0.87353   0.73885   0.00000  Uiso   1.00
C1413  C     0.31380   0.79113   0.74692   0.00000  Uiso   1.00
C1414  C     0.01955   0.87623   0.75443   0.00000  Uiso   1.00
C1415  C     0.16685   0.87456   0.54658   0.00000  Uiso   1.00
C1416  C     0.20586   0.83111   0.95912   0.00000  Uiso   1.00
C1417  C     0.12970   0.83483   0.94560   0.00000  Uiso   1.00
C1418  C     0.17396   0.79100   0.54653   0.00000  Uiso   1.00
C1419  C     0.16625   0.87477   0.59282   0.00000  Uiso   1.00
C1420  C     0.20533   0.83176   0.91256   0.00000  Uiso   1.00
C1421  C     0.12930   0.83909   0.89990   0.00000  Uiso   1.00
C1422  C     0.24528   0.83274   0.74625   0.00000  Uiso   1.00
C1423  C     0.17664   0.79144   0.59346   0.00000  Uiso   1.00
C1424  C     0.16976   0.83289   0.61630   0.00000  Uiso   1.00
C1425  C     0.16707   0.83535   0.88304   0.00000  Uiso   1.00
C1426  C     0.16984   0.83235   0.52372   0.00000  Uiso   1.00
C1427  C     0.16816   0.83089   0.97514   0.00000  Uiso   1.00
C1428  C     0.28994   0.83206   0.74222   0.00000  Uiso   1.00
C1429  C     0.04367   0.83497   0.75933   0.00000  Uiso   1.00
C1430  C     0.16793   0.83300   0.66506   0.00000  Uiso   1.00
C1431  C     0.16696   0.83387   0.83475   0.00000  Uiso   1.00
C1432  C     0.13962   0.69177   0.71731   0.00000  Uiso   1.00
C1433  C     0.19135   0.97562   0.78472   0.00000  Uiso   1.00
C1434  C     0.19298   0.69188   0.78299   0.00000  Uiso   1.00
C1435  C     0.13955   0.97487   0.71754   0.00000  Uiso   1.00
C1436  C     0.02348   0.79310   0.76146   0.00000  Uiso   1.00
Cu1437 Cu    0.16667   0.88022   0.75000   0.00000  Uiso   1.00
Cu1438 Cu    0.16667   0.78645   0.75000   0.00000  Uiso   1.00
H1439  H     0.07929   0.78425   0.64069   0.00000  Uiso   1.00
H1440  H     0.26285   0.81180   0.91524   0.00000  Uiso   1.00
H1441  H     0.09521   0.85555   0.84306   0.00000  Uiso   1.00
H1442  H     0.20387   0.73122   0.60095   0.00000  Uiso   1.00
H1443  H     0.08670   0.68850   0.78445   0.00000  Uiso   1.00
H1444  H     0.26541   0.87041   0.64694   0.00000  Uiso   1.00
H1445  H     0.28189   0.77654   0.65262   0.00000  Uiso   1.00
H1446  H     0.32138   0.97770   0.79134   0.00000  Uiso   1.00
H1447  H     0.26692   0.90621   0.82443   0.00000  Uiso   1.00
H1448  H     0.27242   0.77691   0.83558   0.00000  Uiso   1.00
H1449  H     0.06516   0.88430   0.65609   0.00000  Uiso   1.00
H1450  H     0.16868   0.91220   0.99397   0.00000  Uiso   1.00
H1451  H     0.26341   0.84869   0.97699   0.00000  Uiso   1.00
H1452  H     0.09543   0.82869   0.99197   0.00000  Uiso   1.00
H1453  H     0.16311   0.72619   0.53750   0.00000  Uiso   1.00
H1454  H     0.16355   0.94222   0.59652   0.00000  Uiso   1.00
N1455  N     0.16667   0.95069   0.75000   0.00000  Uiso   1.00
N1456  N     0.16667   0.71598   0.75000   0.00000  Uiso   1.00
O1457  O     0.10655   0.87291   0.74999   0.00000  Uiso   1.00
O1458  O     0.06161   0.70303   0.66599   0.00000  Uiso   1.00
O1459  O     0.09461   0.77766   0.67113   0.00000  Uiso   1.00
O1460  O     0.24597   0.97108   0.87141   0.00000  Uiso   1.00
O1461  O     0.17887   0.94058   0.86215   0.00000  Uiso   1.00
O1462  O     0.23892   0.89776   0.82930   0.00000  Uiso   1.00
O1463  O     0.21395   0.71636   0.86968   0.00000  Uiso   1.00
O1464  O     0.27091   0.69549   0.82867   0.00000  Uiso   1.00
O1465  O     0.24195   0.77552   0.82531   0.00000  Uiso   1.00
O1466  O     0.05905   0.95938   0.69984   0.00000  Uiso   1.00
O1467  O     0.09219   0.96370   0.63394   0.00000  Uiso   1.00
O1468  O     0.22679   0.79375   0.75000   0.00000  Uiso   1.00
O1469  O     0.09394   0.88948   0.67182   0.00000  Uiso   1.00
O1470  O     0.16358   0.91612   0.52497   0.00000  Uiso   1.00
O1471  O     0.24244   0.83215   0.98992   0.00000  Uiso   1.00
O1472  O     0.09174   0.83642   0.95997   0.00000  Uiso   1.00
O1473  O     0.17481   0.75073   0.52188   0.00000  Uiso   1.00
O1474  O     0.16352   0.91569   0.61613   0.00000  Uiso   1.00
O1475  O     0.24159   0.83002   0.89519   0.00000  Uiso   1.00
O1476  O     0.09113   0.84705   0.87316   0.00000  Uiso   1.00
O1477  O     0.18772   0.75235   0.61776   0.00000  Uiso   1.00
O1478  O     0.08342   0.76489   0.82920   0.00000  Uiso   1.00
O1479  O     0.22679   0.87291   0.75000   0.00000  Uiso   1.00
O1480  O     0.01730   0.72627   0.81880   0.00000  Uiso   1.00
O1481  O     0.06728   0.70742   0.76309   0.00000  Uiso   1.00
O1482  O     0.26130   0.95018   0.72906   0.00000  Uiso   1.00
O1483  O     0.31358   0.94190   0.68084   0.00000  Uiso   1.00
O1484  O     0.24892   0.89210   0.66281   0.00000  Uiso   1.00
O1485  O     0.32795   0.71175   0.70337   0.00000  Uiso   1.00
O1486  O     0.26865   0.71450   0.74160   0.00000  Uiso   1.00
O1487  O     0.26334   0.75964   0.66866   0.00000  Uiso   1.00
O1488  O     0.02264   0.91316   0.83559   0.00000  Uiso   1.00
O1489  O     0.08022   0.93245   0.79926   0.00000  Uiso   1.00
O1490  O     0.10655   0.79375   0.74999   0.00000  Uiso   1.00
O1491  O     0.00899   0.97168   0.77190   0.00000  Uiso   1.00
O1492  O     0.16666   0.87293   0.68573   0.00000  Uiso   1.00
O1493  O     0.16667   0.79374   0.81427   0.00000  Uiso   1.00
O1494  O     0.16667   0.87293   0.81427   0.00000  Uiso   1.00
O1495  O     0.16666   0.79374   0.68573   0.00000  Uiso   1.00
O1496  O     0.12127   0.70989   0.62944   0.00000  Uiso   1.00
S1497  S     0.10457   0.72115   0.67152   0.00000  Uiso   1.00
S1498  S     0.21427   0.94751   0.83755   0.00000  Uiso   1.00
S1499  S     0.22975   0.72057   0.82635   0.00000  Uiso   1.00
S1500  S     0.09699   0.94611   0.68063   0.00000  Uiso   1.00
S1501  S     0.04828   0.74751   0.79490   0.00000  Uiso   1.00
S1502  S     0.28376   0.91660   0.70301   0.00000  Uiso   1.00
S1503  S     0.29386   0.74205   0.71582   0.00000  Uiso   1.00
S1504  S     0.03450   0.92359   0.79129   0.00000  Uiso   1.00
C1505  C     0.42142   0.83402   0.75404   0.00000  Uiso   1.00
C1506  C     0.64327   0.87353   0.73885   0.00000  Uiso   1.00
C1507  C     0.64713   0.79113   0.74692   0.00000  Uiso   1.00
C1508  C     0.35288   0.87623   0.75443   0.00000  Uiso   1.00
C1509  C     0.50018   0.87456   0.54658   0.00000  Uiso   1.00
C1510  C     0.53919   0.83111   0.95912   0.00000  Uiso   1.00
C1511  C     0.46304   0.83483   0.94560   0.00000  Uiso   1.00
C1512  C     0.50729   0.79100   0.54653   0.00000  Uiso   1.00
C1513  C     0.49958   0.87477   0.59282   0.00000  Uiso   1.00
C1514  C     0.53866   0.83176   0.91256   0.00000  Uiso   1.00
C1515  C     0.46264   0.83909   0.89990   0.00000  Uiso   1.00
C1516  C     0.57862   0.83274   0.74625   0.00000  Uiso   1.00
C1517  C     0.50998   0.79144   0.59346   0.00000  Uiso   1.00
C1518  C     0.50310   0.83289   0.61630   0.00000  Uiso   1.00
C1519  C     0.50040   0.83535   0.88304   0.00000  Uiso   1.00
C1520  C     0.50317   0.83235   0.52372   0.00000  Uiso   1.00
C1521  C     0.50149   0.83089   0.97514   0.00000  Uiso   1.00
C1522  C     0.62327   0.83206   0.74222   0.00000  Uiso   1.00
C1523  C     0.37701   0.83497   0.75933   0.00000  Uiso   1.00
C1524  C     0.50126   0.83300   0.66506   0.00000  Uiso   1.00
C1525  C     0.50030   0.83387   0.83475   0.00000  Uiso   1.00
C1526  C     0.47296   0.69177   0.71731   0.00000  Uiso   1.00
C1527  C     0.52468   0.97562   0.78472   0.00000  Uiso   1.00
C1528  C     0.52631   0.69188   0.78299   0.00000  Uiso   1.00
C1529  C     0.47289   0.97487   0.71754   0.00000  Uiso   1.00
C1530  C     0.35681   0.79310   0.76146   0.00000  Uiso   1.00
Cu1531 Cu    0.50000   0.88022   0.75000   0.00000  Uiso   1.00
Cu1532 Cu    0.50000   0.78645   0.75000   0.00000  Uiso   1.00
H1533  H     0.41262   0.78425   0.64069   0.00000  Uiso   1.00
H1534  H     0.59619   0.81180   0.91524   0.00000  Uiso   1.00
H1535  H     0.42854   0.85555   0.84306   0.00000  Uiso   1.00
H1536  H     0.53720   0.73122   0.60095   0.00000  Uiso   1.00
H1537  H     0.42003   0.68850   0.78445   0.00000  Uiso   1.00
H1538  H     0.59874   0.87041   0.64694   0.00000  Uiso   1.00
H1539  H     0.61522   0.77654   0.65262   0.00000  Uiso   1.00
H1540  H     0.65471   0.97770   0.79134   0.00000  Uiso   1.00
H1541  H     0.60025   0.90621   0.82443   0.00000  Uiso   1.00
H1542  H     0.60576   0.77691   0.83558   0.00000  Uiso   1.00
H1543  H     0.39850   0.88430   0.65609   0.00000  Uiso   1.00
H1544  H     0.50201   0.91220   0.99397   0.00000  Uiso   1.00
H1545  H     0.59675   0.84869   0.97699   0.00000  Uiso   1.00
H1546  H     0.42877   0.82869   0.99197   0.00000  Uiso   1.00
H1547  H     0.49645   0.72619   0.53750   0.00000  Uiso   1.00
H1548  H     0.49688   0.94222   0.59652   0.00000  Uiso   1.00
N1549  N     0.50000   0.95069   0.75000   0.00000  Uiso   1.00
N1550  N     0.50000   0.71598   0.75000   0.00000  Uiso   1.00
O1551  O     0.43988   0.87291   0.74999   0.00000  Uiso   1.00
O1552  O     0.39494   0.70303   0.66599   0.00000  Uiso   1.00
O1553  O     0.42795   0.77766   0.67113   0.00000  Uiso   1.00
O1554  O     0.57930   0.97108   0.87141   0.00000  Uiso   1.00
O1555  O     0.51220   0.94058   0.86215   0.00000  Uiso   1.00
O1556  O     0.57225   0.89776   0.82930   0.00000  Uiso   1.00
O1557  O     0.54728   0.71636   0.86968   0.00000  Uiso   1.00
O1558  O     0.60424   0.69549   0.82867   0.00000  Uiso   1.00
O1559  O     0.57529   0.77552   0.82531   0.00000  Uiso   1.00
O1560  O     0.39238   0.95938   0.69984   0.00000  Uiso   1.00
O1561  O     0.42552   0.96370   0.63394   0.00000  Uiso   1.00
O1562  O     0.56012   0.79375   0.75000   0.00000  Uiso   1.00
O1563  O     0.42727   0.88948   0.67182   0.00000  Uiso   1.00
O1564  O     0.49692   0.91612   0.52497   0.00000  Uiso   1.00
O1565  O     0.57577   0.83215   0.98992   0.00000  Uiso   1.00
O1566  O     0.42507   0.83642   0.95997   0.00000  Uiso   1.00
O1567  O     0.50815   0.75073   0.52188   0.00000  Uiso   1.00
O1568  O     0.49685   0.91569   0.61613   0.00000  Uiso   1.00
O1569  O     0.57493   0.83002   0.89519   0.00000  Uiso   1.00
O1570  O     0.42447   0.84705   0.87316   0.00000  Uiso   1.00
O1571  O     0.52105   0.75235   0.61776   0.00000  Uiso   1.00
O1572  O     0.41675   0.76489   0.82920   0.00000  Uiso   1.00
O1573  O     0.56012   0.87291   0.75000   0.00000  Uiso   1.00
O1574  O     0.35064   0.72627   0.81880   0.00000  Uiso   1.00
O1575  O     0.40061   0.70742   0.76309   0.00000  Uiso   1.00
O1576  O     0.59463   0.95018   0.72906   0.00000  Uiso   1.00
O1577  O     0.64692   0.94190   0.68084   0.00000  Uiso   1.00
O1578  O     0.58225   0.89210   0.66281   0.00000  Uiso   1.00
O1579  O     0.66129   0.71175   0.70337   0.00000  Uiso   1.00
O1580  O     0.60199   0.71450   0.74160   0.00000  Uiso   1.00
O1581  O     0.59668   0.75964   0.66866   0.00000  Uiso   1.00
O1582  O     0.35598   0.91316   0.83559   0.00000  Uiso   1.00
O1583  O     0.41355   0.93245   0.79926   0.00000  Uiso   1.00
O1584  O     0.43988   0.79375   0.74999   0.00000  Uiso   1.00
O1585  O     0.34233   0.97168   0.77190   0.00000  Uiso   1.00
O1586  O     0.50000   0.87293   0.68573   0.00000  Uiso   1.00
O1587  O     0.50000   0.79374   0.81427   0.00000  Uiso   1.00
O1588  O     0.50000   0.87293   0.81427   0.00000  Uiso   1.00
O1589  O     0.50000   0.79374   0.68573   0.00000  Uiso   1.00
O1590  O     0.45460   0.70989   0.62944   0.00000  Uiso   1.00
S1591  S     0.43790   0.72115   0.67152   0.00000  Uiso   1.00
S1592  S     0.54761   0.94751   0.83755   0.00000  Uiso   1.00
S1593  S     0.56308   0.72057   0.82635   0.00000  Uiso   1.00
S1594  S     0.43032   0.94611   0.68063   0.00000  Uiso   1.00
S1595  S     0.38162   0.74751   0.79490   0.00000  Uiso   1.00
S1596  S     0.61710   0.91660   0.70301   0.00000  Uiso   1.00
S1597  S     0.62719   0.74205   0.71582   0.00000  Uiso   1.00
S1598  S     0.36784   0.92359   0.79129   0.00000  Uiso   1.00
C1599  C     0.75476   0.83402   0.75404   0.00000  Uiso   1.00
C1600  C     0.97661   0.87353   0.73885   0.00000  Uiso   1.00
C1601  C     0.98047   0.79113   0.74692   0.00000  Uiso   1.00
C1602  C     0.68622   0.87623   0.75443   0.00000  Uiso   1.00
C1603  C     0.83351   0.87456   0.54658   0.00000  Uiso   1.00
C1604  C     0.87253   0.83111   0.95912   0.00000  Uiso   1.00
C1605  C     0.79637   0.83483   0.94560   0.00000  Uiso   1.00
C1606  C     0.84062   0.79100   0.54653   0.00000  Uiso   1.00
C1607  C     0.83291   0.87477   0.59282   0.00000  Uiso   1.00
C1608  C     0.87200   0.83176   0.91256   0.00000  Uiso   1.00
C1609  C     0.79597   0.83909   0.89990   0.00000  Uiso   1.00
C1610  C     0.91195   0.83274   0.74625   0.00000  Uiso   1.00
C1611  C     0.84331   0.79144   0.59346   0.00000  Uiso   1.00
C1612  C     0.83643   0.83289   0.61630   0.00000  Uiso   1.00
C1613  C     0.83374   0.83535   0.88304   0.00000  Uiso   1.00
C1614  C     0.83650   0.83235   0.52372   0.00000  Uiso   1.00
C1615  C     0.83483   0.83089   0.97514   0.00000  Uiso   1.00
C1616  C     0.95660   0.83206   0.74222   0.00000  Uiso   1.00
C1617  C     0.71034   0.83497   0.75933   0.00000  Uiso   1.00
C1618  C     0.83460   0.83300   0.66506   0.00000  Uiso   1.00
C1619  C     0.83363   0.83387   0.83475   0.00000  Uiso   1.00
C1620  C     0.80629   0.69177   0.71731   0.00000  Uiso   1.00
C1621  C     0.85801   0.97562   0.78472   0.00000  Uiso   1.00
C1622  C     0.85965   0.69188   0.78299   0.00000  Uiso   1.00
C1623  C     0.80622   0.97487   0.71754   0.00000  Uiso   1.00
C1624  C     0.69014   0.79310   0.76146   0.00000  Uiso   1.00
Cu1625 Cu    0.83333   0.88022   0.75000   0.00000  Uiso   1.00
Cu1626 Cu    0.83333   0.78645   0.75000   0.00000  Uiso   1.00
H1627  H     0.74595   0.78425   0.64069   0.00000  Uiso   1.00
H1628  H     0.92952   0.81180   0.91524   0.00000  Uiso   1.00
H1629  H     0.76188   0.85555   0.84306   0.00000  Uiso   1.00
H1630  H     0.87053   0.73122   0.60095   0.00000  Uiso   1.00
H1631  H     0.75337   0.68850   0.78445   0.00000  Uiso   1.00
H1632  H     0.93208   0.87041   0.64694   0.00000  Uiso   1.00
H1633  H     0.94856   0.77654   0.65262   0.00000  Uiso   1.00
H1634  H     0.98804   0.97770   0.79134   0.00000  Uiso   1.00
H1635  H     0.93359   0.90621   0.82443   0.00000  Uiso   1.00
H1636  H     0.93909   0.77691   0.83558   0.00000  Uiso   1.00
H1637  H     0.73183   0.88430   0.65609   0.00000  Uiso   1.00
H1638  H     0.83535   0.91220   0.99397   0.00000  Uiso   1.00
H1639  H     0.93008   0.84869   0.97699   0.00000  Uiso   1.00
H1640  H     0.76210   0.82869   0.99197   0.00000  Uiso   1.00
H1641  H     0.82978   0.72619   0.53750   0.00000  Uiso   1.00
H1642  H     0.83022   0.94222   0.59652   0.00000  Uiso   1.00
N1643  N     0.83333   0.95069   0.75000   0.00000  Uiso   1.00
N1644  N     0.83333   0.71598   0.75000   0.00000  Uiso   1.00
O1645  O     0.77321   0.87291   0.74999   0.00000  Uiso   1.00
O1646  O     0.72828   0.70303   0.66599   0.00000  Uiso   1.00
O1647  O     0.76128   0.77766   0.67113   0.00000  Uiso   1.00
O1648  O     0.91263   0.97108   0.87141   0.00000  Uiso   1.00
O1649  O     0.84554   0.94058   0.86215   0.00000  Uiso   1.00
O1650  O     0.90558   0.89776   0.82930   0.00000  Uiso   1.00
O1651  O     0.88062   0.71636   0.86968   0.00000  Uiso   1.00
O1652  O     0.93758   0.69549   0.82867   0.00000  Uiso   1.00
O1653  O     0.90862   0.77552   0.82531   0.00000  Uiso   1.00
O1654  O     0.72571   0.95938   0.69984   0.00000  Uiso   1.00
O1655  O     0.75885   0.96370   0.63394   0.00000  Uiso   1.00
O1656  O     0.89345   0.79375   0.75000   0.00000  Uiso   1.00
O1657  O     0.76060   0.88948   0.67182   0.00000  Uiso   1.00
O1658  O     0.83025   0.91612   0.52497   0.00000  Uiso   1.00
O1659  O     0.90911   0.83215   0.98992   0.00000  Uiso   1.00
O1660  O     0.75841   0.83642   0.95997   0.00000  Uiso   1.00
O1661  O     0.84148   0.75073   0.52188   0.00000  Uiso   1.00
O1662  O     0.83019   0.91569   0.61613   0.00000  Uiso   1.00
O1663  O     0.90826   0.83002   0.89519   0.00000  Uiso   1.00
O1664  O     0.75780   0.84705   0.87316   0.00000  Uiso   1.00
O1665  O     0.85438   0.75235   0.61776   0.00000  Uiso   1.00
O1666  O     0.75008   0.76489   0.82920   0.00000  Uiso   1.00
O1667  O     0.89345   0.87291   0.75000   0.00000  Uiso   1.00
O1668  O     0.68397   0.72627   0.81880   0.00000  Uiso   1.00
O1669  O     0.73395   0.70742   0.76309   0.00000  Uiso   1.00
O1670  O     0.92796   0.95018   0.72906   0.00000  Uiso   1.00
O1671  O     0.98025   0.94190   0.68084   0.00000  Uiso   1.00
O1672  O     0.91558   0.89210   0.66281   0.00000  Uiso   1.00
O1673  O     0.99462   0.71175   0.70337   0.00000  Uiso   1.00
O1674  O     0.93532   0.71450   0.74160   0.00000  Uiso   1.00
O1675  O     0.93001   0.75964   0.66866   0.00000  Uiso   1.00
O1676  O     0.68931   0.91316   0.83559   0.00000  Uiso   1.00
O1677  O     0.74689   0.93245   0.79926   0.00000  Uiso   1.00
O1678  O     0.77321   0.79375   0.74999   0.00000  Uiso   1.00
O1679  O     0.67566   0.97168   0.77190   0.00000  Uiso   1.00
O1680  O     0.83333   0.87293   0.68573   0.00000  Uiso   1.00
O1681  O     0.83334   0.79374   0.81427   0.00000  Uiso   1.00
O1682  O     0.83334   0.87293   0.81427   0.00000  Uiso   1.00
O1683  O     0.83333   0.79374   0.68573   0.00000  Uiso   1.00
O1684  O     0.78793   0.70989   0.62944   0.00000  Uiso   1.00
S1685  S     0.77123   0.72115   0.67152   0.00000  Uiso   1.00
S1686  S     0.88094   0.94751   0.83755   0.00000  Uiso   1.00
S1687  S     0.89641   0.72057   0.82635   0.00000  Uiso   1.00
S1688  S     0.76366   0.94611   0.68063   0.00000  Uiso   1.00
S1689  S     0.71495   0.74751   0.79490   0.00000  Uiso   1.00
S1690  S     0.95043   0.91660   0.70301   0.00000  Uiso   1.00
S1691  S     0.96053   0.74205   0.71582   0.00000  Uiso   1.00
S1692  S     0.70117   0.92359   0.79129   0.00000  Uiso   1.00
loop_
_geom_bond_atom_site_label_1
_geom_bond_atom_site_label_2
_geom_bond_distance
_geom_bond_site_symmetry_2
_ccdc_geom_bond_type
C1     C19     1.487   .     S
C1     O47     1.321   .     A
C1     O80     1.319   .     A
C2     C18     1.408   .     A
C2     S92     1.782   .     S
C2     C98     1.404   .     S
C3     C18     1.405   .     A
C3     S93     1.775   .     S
C3     C120    1.399   .     S
C4     C19     1.417   .     A
C4     S94     1.785   .     S
C4     C190    1.404   1_455 S
C5     C16     1.411   .     A
C5     C9      1.407   .     A
C5     O60     1.387   .     S
C6     O61     1.383   .     S
C6     C17     1.402   .     A
C6     C10     1.411   .     A
C7     C11     1.394   .     A
C7     C17     1.413   .     A
C7     O62     1.384   .     S
C8     C13     1.412   .     A
C8     C16     1.398   .     A
C8     O63     1.383   .     S
C9     O64     1.384   .     S
C9     C14     1.423   .     A
C10    C15     1.407   .     A
C10    O65     1.378   .     S
C11    C15     1.417   .     A
C11    O66     1.380   .     S
C12    O69     1.316   .     A
C12    O58     1.322   .     A
C12    C18     1.485   .     S
C13    C14     1.414   .     A
C13    O67     1.379   .     S
C14    C20     1.492   .     S
C15    C21     1.466   .     S
C16    C863    1.466   1_554 S
C17    C862    1.466   .     S
C19    C26     1.416   .     A
C20    O82     1.315   .     A
C20    O85     1.326   .     A
C21    O83     1.314   .     A
C21    O84     1.312   .     A
C22    S87     1.849   .     S
C22    N46     1.401   .     A
C22    C589    1.469   1_545 S
C23    N45     1.412   .     A
C23    S88     1.847   .     S
C23    C306    1.455   .     S
C24    S89     1.826   .     S
C24    N46     1.390   .     A
C24    C587    1.455   1_545 S
C25    S90     1.837   .     S
C25    N45     1.394   .     A
C25    C304    1.469   .     S
C26    S91     1.781   .     S
C26    C191    1.399   1_455 S
Cu27   O84     1.968   .     S
Cu27   O69     1.969   .     S
Cu27   N45     2.060   .     S
Cu27   O47     1.982   .     S
Cu27   O82     1.958   .     S
Cu27   Cu28    2.741   .     S
Cu28   N46     2.060   .     S
Cu28   O83     1.958   .     S
Cu28   O85     1.968   .     S
Cu28   O58     1.982   .     S
Cu28   O80     1.969   .     S
H29    O49     0.991   .     S
H30    O65     0.991   .     S
H31    O66     0.985   .     S
H32    O67     0.990   .     S
H33    O71     0.990   .     S
H34    O74     0.991   .     S
H35    O77     0.991   .     S
H36    O175    0.989   .     S
H37    O52     0.991   .     S
H38    O55     0.991   .     S
H39    O59     0.991   .     S
H40    O906    0.988   .     S
H41    O61     0.990   .     S
H42    O62     0.989   .     S
H43    O63     0.991   .     S
H44    O64     0.989   .     S
O48    S87     1.495   .     D
O49    S87     1.674   .     S
O50    S88     1.497   .     D
O51    S88     1.504   .     D
O52    S88     1.676   .     S
O53    S89     1.504   .     D
O54    S89     1.504   .     D
O55    S89     1.669   .     S
O56    S90     1.497   .     D
O57    S90     1.500   .     D
O59    S90     1.674   .     S
O60    H886    0.988   1_554 S
O68    S91     1.500   .     D
O70    S91     1.501   .     D
O71    S91     1.675   .     S
O72    S92     1.501   .     D
O73    S92     1.499   .     D
O74    S92     1.679   .     S
O75    S93     1.497   .     D
O76    S93     1.495   .     D
O77    S93     1.677   .     S
O78    S94     1.504   .     D
O79    S94     1.500   .     D
O81    S94     1.677   .     S
O81    H224    0.989   1_455 S
O86    S87     1.501   .     D
C95    C113    1.487   .     S
C95    O141    1.321   .     A
C95    O174    1.319   .     A
C96    C112    1.408   .     A
C96    S186    1.782   .     S
C96    C192    1.404   .     S
C97    C112    1.405   .     A
C97    S187    1.775   .     S
C97    C214    1.399   .     S
C98    C113    1.417   .     A
C98    S188    1.785   .     S
C99    C110    1.411   .     A
C99    C103    1.407   .     A
C99    O154    1.387   .     S
C100   O155    1.383   .     S
C100   C111    1.402   .     A
C100   C104    1.411   .     A
C101   C105    1.394   .     A
C101   C111    1.413   .     A
C101   O156    1.384   .     S
C102   C107    1.412   .     A
C102   C110    1.398   .     A
C102   O157    1.383   .     S
C103   O158    1.384   .     S
C103   C108    1.423   .     A
C104   C109    1.407   .     A
C104   O159    1.378   .     S
C105   C109    1.417   .     A
C105   O160    1.380   .     S
C106   O163    1.316   .     A
C106   O152    1.322   .     A
C106   C112    1.485   .     S
C107   C108    1.414   .     A
C107   O161    1.379   .     S
C108   C114    1.492   .     S
C109   C115    1.466   .     S
C110   C957    1.466   1_554 S
C111   C956    1.466   .     S
C113   C120    1.416   .     A
C114   O176    1.315   .     A
C114   O179    1.326   .     A
C115   O177    1.314   .     A
C115   O178    1.312   .     A
C116   S181    1.849   .     S
C116   N140    1.401   .     A
C116   C683    1.469   1_545 S
C117   N139    1.412   .     A
C117   S182    1.847   .     S
C117   C400    1.455   .     S
C118   S183    1.826   .     S
C118   N140    1.390   .     A
C118   C681    1.455   1_545 S
C119   S184    1.837   .     S
C119   N139    1.394   .     A
C119   C398    1.469   .     S
C120   S185    1.781   .     S
Cu121  O178    1.968   .     S
Cu121  O163    1.969   .     S
Cu121  N139    2.060   .     S
Cu121  O141    1.982   .     S
Cu121  O176    1.958   .     S
Cu121  Cu122   2.741   .     S
Cu122  N140    2.060   .     S
Cu122  O177    1.958   .     S
Cu122  O179    1.968   .     S
Cu122  O152    1.982   .     S
Cu122  O174    1.969   .     S
H123   O143    0.991   .     S
H124   O159    0.991   .     S
H125   O160    0.985   .     S
H126   O161    0.990   .     S
H127   O165    0.990   .     S
H128   O168    0.991   .     S
H129   O171    0.991   .     S
H130   O269    0.989   .     S
H131   O146    0.991   .     S
H132   O149    0.991   .     S
H133   O153    0.991   .     S
H134   O1000   0.988   .     S
H135   O155    0.990   .     S
H136   O156    0.989   .     S
H137   O157    0.991   .     S
H138   O158    0.989   .     S
O142   S181    1.495   .     D
O143   S181    1.674   .     S
O144   S182    1.497   .     D
O145   S182    1.504   .     D
O146   S182    1.676   .     S
O147   S183    1.504   .     D
O148   S183    1.504   .     D
O149   S183    1.669   .     S
O150   S184    1.497   .     D
O151   S184    1.500   .     D
O153   S184    1.674   .     S
O154   H980    0.988   1_554 S
O162   S185    1.500   .     D
O164   S185    1.501   .     D
O165   S185    1.675   .     S
O166   S186    1.501   .     D
O167   S186    1.499   .     D
O168   S186    1.679   .     S
O169   S187    1.497   .     D
O170   S187    1.495   .     D
O171   S187    1.677   .     S
O172   S188    1.504   .     D
O173   S188    1.500   .     D
O175   S188    1.677   .     S
O180   S181    1.501   .     D
C189   C207    1.487   .     S
C189   O235    1.321   .     A
C189   O268    1.319   .     A
C190   C206    1.408   .     A
C190   S280    1.782   .     S
C190   C4      1.404   1_655 S
C191   C206    1.405   .     A
C191   S281    1.775   .     S
C191   C26     1.399   1_655 S
C192   C207    1.417   .     A
C192   S282    1.785   .     S
C193   C204    1.411   .     A
C193   C197    1.407   .     A
C193   O248    1.387   .     S
C194   O249    1.383   .     S
C194   C205    1.402   .     A
C194   C198    1.411   .     A
C195   C199    1.394   .     A
C195   C205    1.413   .     A
C195   O250    1.384   .     S
C196   C201    1.412   .     A
C196   C204    1.398   .     A
C196   O251    1.383   .     S
C197   O252    1.384   .     S
C197   C202    1.423   .     A
C198   C203    1.407   .     A
C198   O253    1.378   .     S
C199   C203    1.417   .     A
C199   O254    1.380   .     S
C200   O257    1.316   .     A
C200   O246    1.322   .     A
C200   C206    1.485   .     S
C201   C202    1.414   .     A
C201   O255    1.379   .     S
C202   C208    1.492   .     S
C203   C209    1.466   .     S
C204   C1051   1.466   1_554 S
C205   C1050   1.466   .     S
C207   C214    1.416   .     A
C208   O270    1.315   .     A
C208   O273    1.326   .     A
C209   O271    1.314   .     A
C209   O272    1.312   .     A
C210   S275    1.849   .     S
C210   N234    1.401   .     A
C210   C777    1.469   1_545 S
C211   N233    1.412   .     A
C211   S276    1.847   .     S
C211   C494    1.455   .     S
C212   S277    1.826   .     S
C212   N234    1.390   .     A
C212   C775    1.455   1_545 S
C213   S278    1.837   .     S
C213   N233    1.394   .     A
C213   C492    1.469   .     S
C214   S279    1.781   .     S
Cu215  O272    1.968   .     S
Cu215  O257    1.969   .     S
Cu215  N233    2.060   .     S
Cu215  O235    1.982   .     S
Cu215  O270    1.958   .     S
Cu215  Cu216   2.741   .     S
Cu216  N234    2.060   .     S
Cu216  O271    1.958   .     S
Cu216  O273    1.968   .     S
Cu216  O246    1.982   .     S
Cu216  O268    1.969   .     S
H217   O237    0.991   .     S
H218   O253    0.991   .     S
H219   O254    0.985   .     S
H220   O255    0.990   .     S
H221   O259    0.990   .     S
H222   O262    0.991   .     S
H223   O265    0.991   .     S
H224   O81     0.989   1_655 S
H225   O240    0.991   .     S
H226   O243    0.991   .     S
H227   O247    0.991   .     S
H228   O1094   0.988   .     S
H229   O249    0.990   .     S
H230   O250    0.989   .     S
H231   O251    0.991   .     S
H232   O252    0.989   .     S
O236   S275    1.495   .     D
O237   S275    1.674   .     S
O238   S276    1.497   .     D
O239   S276    1.504   .     D
O240   S276    1.676   .     S
O241   S277    1.504   .     D
O242   S277    1.504   .     D
O243   S277    1.669   .     S
O244   S278    1.497   .     D
O245   S278    1.500   .     D
O247   S278    1.674   .     S
O248   H1074   0.988   1_554 S
O256   S279    1.500   .     D
O258   S279    1.501   .     D
O259   S279    1.675   .     S
O260   S280    1.501   .     D
O261   S280    1.499   .     D
O262   S280    1.679   .     S
O263   S281    1.497   .     D
O264   S281    1.495   .     D
O265   S281    1.677   .     S
O266   S282    1.504   .     D
O267   S282    1.500   .     D
O269   S282    1.677   .     S
O274   S275    1.501   .     D
C283   C301    1.487   .     S
C283   O329    1.321   .     A
C283   O362    1.319   .     A
C284   C300    1.408   .     A
C284   S374    1.782   .     S
C284   C380    1.404   .     S
C285   C300    1.405   .     A
C285   S375    1.775   .     S
C285   C402    1.399   .     S
C286   C301    1.417   .     A
C286   S376    1.785   .     S
C286   C472    1.404   1_455 S
C287   C298    1.411   .     A
C287   C291    1.407   .     A
C287   O342    1.387   .     S
C288   O343    1.383   .     S
C288   C299    1.402   .     A
C288   C292    1.411   .     A
C289   C293    1.394   .     A
C289   C299    1.413   .     A
C289   O344    1.384   .     S
C290   C295    1.412   .     A
C290   C298    1.398   .     A
C290   O345    1.383   .     S
C291   O346    1.384   .     S
C291   C296    1.423   .     A
C292   C297    1.407   .     A
C292   O347    1.378   .     S
C293   C297    1.417   .     A
C293   O348    1.380   .     S
C294   O351    1.316   .     A
C294   O340    1.322   .     A
C294   C300    1.485   .     S
C295   C296    1.414   .     A
C295   O349    1.379   .     S
C296   C302    1.492   .     S
C297   C303    1.466   .     S
C298   C1145   1.466   1_554 S
C299   C1144   1.466   .     S
C301   C308    1.416   .     A
C302   O364    1.315   .     A
C302   O367    1.326   .     A
C303   O365    1.314   .     A
C303   O366    1.312   .     A
C304   S369    1.849   .     S
C304   N328    1.401   .     A
C305   N327    1.412   .     A
C305   S370    1.847   .     S
C305   C588    1.455   .     S
C306   S371    1.826   .     S
C306   N328    1.390   .     A
C307   S372    1.837   .     S
C307   N327    1.394   .     A
C307   C586    1.469   .     S
C308   S373    1.781   .     S
C308   C473    1.399   1_455 S
Cu309  O366    1.968   .     S
Cu309  O351    1.969   .     S
Cu309  N327    2.060   .     S
Cu309  O329    1.982   .     S
Cu309  O364    1.958   .     S
Cu309  Cu310   2.741   .     S
Cu310  N328    2.060   .     S
Cu310  O365    1.958   .     S
Cu310  O367    1.968   .     S
Cu310  O340    1.982   .     S
Cu310  O362    1.969   .     S
H311   O331    0.991   .     S
H312   O347    0.991   .     S
H313   O348    0.985   .     S
H314   O349    0.990   .     S
H315   O353    0.990   .     S
H316   O356    0.991   .     S
H317   O359    0.991   .     S
H318   O457    0.989   .     S
H319   O334    0.991   .     S
H320   O337    0.991   .     S
H321   O341    0.991   .     S
H322   O1188   0.988   .     S
H323   O343    0.990   .     S
H324   O344    0.989   .     S
H325   O345    0.991   .     S
H326   O346    0.989   .     S
O330   S369    1.495   .     D
O331   S369    1.674   .     S
O332   S370    1.497   .     D
O333   S370    1.504   .     D
O334   S370    1.676   .     S
O335   S371    1.504   .     D
O336   S371    1.504   .     D
O337   S371    1.669   .     S
O338   S372    1.497   .     D
O339   S372    1.500   .     D
O341   S372    1.674   .     S
O342   H1168   0.988   1_554 S
O350   S373    1.500   .     D
O352   S373    1.501   .     D
O353   S373    1.675   .     S
O354   S374    1.501   .     D
O355   S374    1.499   .     D
O356   S374    1.679   .     S
O357   S375    1.497   .     D
O358   S375    1.495   .     D
O359   S375    1.677   .     S
O360   S376    1.504   .     D
O361   S376    1.500   .     D
O363   S376    1.677   .     S
O363   H506    0.989   1_455 S
O368   S369    1.501   .     D
C377   C395    1.487   .     S
C377   O423    1.321   .     A
C377   O456    1.319   .     A
C378   C394    1.408   .     A
C378   S468    1.782   .     S
C378   C474    1.404   .     S
C379   C394    1.405   .     A
C379   S469    1.775   .     S
C379   C496    1.399   .     S
C380   C395    1.417   .     A
C380   S470    1.785   .     S
C381   C392    1.411   .     A
C381   C385    1.407   .     A
C381   O436    1.387   .     S
C382   O437    1.383   .     S
C382   C393    1.402   .     A
C382   C386    1.411   .     A
C383   C387    1.394   .     A
C383   C393    1.413   .     A
C383   O438    1.384   .     S
C384   C389    1.412   .     A
C384   C392    1.398   .     A
C384   O439    1.383   .     S
C385   O440    1.384   .     S
C385   C390    1.423   .     A
C386   C391    1.407   .     A
C386   O441    1.378   .     S
C387   C391    1.417   .     A
C387   O442    1.380   .     S
C388   O445    1.316   .     A
C388   O434    1.322   .     A
C388   C394    1.485   .     S
C389   C390    1.414   .     A
C389   O443    1.379   .     S
C390   C396    1.492   .     S
C391   C397    1.466   .     S
C392   C1239   1.466   1_554 S
C393   C1238   1.466   .     S
C395   C402    1.416   .     A
C396   O458    1.315   .     A
C396   O461    1.326   .     A
C397   O459    1.314   .     A
C397   O460    1.312   .     A
C398   S463    1.849   .     S
C398   N422    1.401   .     A
C399   N421    1.412   .     A
C399   S464    1.847   .     S
C399   C682    1.455   .     S
C400   S465    1.826   .     S
C400   N422    1.390   .     A
C401   S466    1.837   .     S
C401   N421    1.394   .     A
C401   C680    1.469   .     S
C402   S467    1.781   .     S
Cu403  O460    1.968   .     S
Cu403  O445    1.969   .     S
Cu403  N421    2.060   .     S
Cu403  O423    1.982   .     S
Cu403  O458    1.958   .     S
Cu403  Cu404   2.741   .     S
Cu404  N422    2.060   .     S
Cu404  O459    1.958   .     S
Cu404  O461    1.968   .     S
Cu404  O434    1.982   .     S
Cu404  O456    1.969   .     S
H405   O425    0.991   .     S
H406   O441    0.991   .     S
H407   O442    0.985   .     S
H408   O443    0.990   .     S
H409   O447    0.990   .     S
H410   O450    0.991   .     S
H411   O453    0.991   .     S
H412   O551    0.989   .     S
H413   O428    0.991   .     S
H414   O431    0.991   .     S
H415   O435    0.991   .     S
H416   O1282   0.988   .     S
H417   O437    0.990   .     S
H418   O438    0.989   .     S
H419   O439    0.991   .     S
H420   O440    0.989   .     S
O424   S463    1.495   .     D
O425   S463    1.674   .     S
O426   S464    1.497   .     D
O427   S464    1.504   .     D
O428   S464    1.676   .     S
O429   S465    1.504   .     D
O430   S465    1.504   .     D
O431   S465    1.669   .     S
O432   S466    1.497   .     D
O433   S466    1.500   .     D
O435   S466    1.674   .     S
O436   H1262   0.988   1_554 S
O444   S467    1.500   .     D
O446   S467    1.501   .     D
O447   S467    1.675   .     S
O448   S468    1.501   .     D
O449   S468    1.499   .     D
O450   S468    1.679   .     S
O451   S469    1.497   .     D
O452   S469    1.495   .     D
O453   S469    1.677   .     S
O454   S470    1.504   .     D
O455   S470    1.500   .     D
O457   S470    1.677   .     S
O462   S463    1.501   .     D
C471   C489    1.487   .     S
C471   O517    1.321   .     A
C471   O550    1.319   .     A
C472   C488    1.408   .     A
C472   S562    1.782   .     S
C472   C286    1.404   1_655 S
C473   C488    1.405   .     A
C473   S563    1.775   .     S
C473   C308    1.399   1_655 S
C474   C489    1.417   .     A
C474   S564    1.785   .     S
C475   C486    1.411   .     A
C475   C479    1.407   .     A
C475   O530    1.387   .     S
C476   O531    1.383   .     S
C476   C487    1.402   .     A
C476   C480    1.411   .     A
C477   C481    1.394   .     A
C477   C487    1.413   .     A
C477   O532    1.384   .     S
C478   C483    1.412   .     A
C478   C486    1.398   .     A
C478   O533    1.383   .     S
C479   O534    1.384   .     S
C479   C484    1.423   .     A
C480   C485    1.407   .     A
C480   O535    1.378   .     S
C481   C485    1.417   .     A
C481   O536    1.380   .     S
C482   O539    1.316   .     A
C482   O528    1.322   .     A
C482   C488    1.485   .     S
C483   C484    1.414   .     A
C483   O537    1.379   .     S
C484   C490    1.492   .     S
C485   C491    1.466   .     S
C486   C1333   1.466   1_554 S
C487   C1332   1.466   .     S
C489   C496    1.416   .     A
C490   O552    1.315   .     A
C490   O555    1.326   .     A
C491   O553    1.314   .     A
C491   O554    1.312   .     A
C492   S557    1.849   .     S
C492   N516    1.401   .     A
C493   N515    1.412   .     A
C493   S558    1.847   .     S
C493   C776    1.455   .     S
C494   S559    1.826   .     S
C494   N516    1.390   .     A
C495   S560    1.837   .     S
C495   N515    1.394   .     A
C495   C774    1.469   .     S
C496   S561    1.781   .     S
Cu497  O554    1.968   .     S
Cu497  O539    1.969   .     S
Cu497  N515    2.060   .     S
Cu497  O517    1.982   .     S
Cu497  O552    1.958   .     S
Cu497  Cu498   2.741   .     S
Cu498  N516    2.060   .     S
Cu498  O553    1.958   .     S
Cu498  O555    1.968   .     S
Cu498  O528    1.982   .     S
Cu498  O550    1.969   .     S
H499   O519    0.991   .     S
H500   O535    0.991   .     S
H501   O536    0.985   .     S
H502   O537    0.990   .     S
H503   O541    0.990   .     S
H504   O544    0.991   .     S
H505   O547    0.991   .     S
H506   O363    0.989   1_655 S
H507   O522    0.991   .     S
H508   O525    0.991   .     S
H509   O529    0.991   .     S
H510   O1376   0.988   .     S
H511   O531    0.990   .     S
H512   O532    0.989   .     S
H513   O533    0.991   .     S
H514   O534    0.989   .     S
O518   S557    1.495   .     D
O519   S557    1.674   .     S
O520   S558    1.497   .     D
O521   S558    1.504   .     D
O522   S558    1.676   .     S
O523   S559    1.504   .     D
O524   S559    1.504   .     D
O525   S559    1.669   .     S
O526   S560    1.497   .     D
O527   S560    1.500   .     D
O529   S560    1.674   .     S
O530   H1356   0.988   1_554 S
O538   S561    1.500   .     D
O540   S561    1.501   .     D
O541   S561    1.675   .     S
O542   S562    1.501   .     D
O543   S562    1.499   .     D
O544   S562    1.679   .     S
O545   S563    1.497   .     D
O546   S563    1.495   .     D
O547   S563    1.677   .     S
O548   S564    1.504   .     D
O549   S564    1.500   .     D
O551   S564    1.677   .     S
O556   S557    1.501   .     D
C565   C583    1.487   .     S
C565   O611    1.321   .     A
C565   O644    1.319   .     A
C566   C582    1.408   .     A
C566   S656    1.782   .     S
C566   C662    1.404   .     S
C567   C582    1.405   .     A
C567   S657    1.775   .     S
C567   C684    1.399   .     S
C568   C583    1.417   .     A
C568   S658    1.785   .     S
C568   C754    1.404   1_455 S
C569   C580    1.411   .     A
C569   C573    1.407   .     A
C569   O624    1.387   .     S
C570   O625    1.383   .     S
C570   C581    1.402   .     A
C570   C574    1.411   .     A
C571   C575    1.394   .     A
C571   C581    1.413   .     A
C571   O626    1.384   .     S
C572   C577    1.412   .     A
C572   C580    1.398   .     A
C572   O627    1.383   .     S
C573   O628    1.384   .     S
C573   C578    1.423   .     A
C574   C579    1.407   .     A
C574   O629    1.378   .     S
C575   C579    1.417   .     A
C575   O630    1.380   .     S
C576   O633    1.316   .     A
C576   O622    1.322   .     A
C576   C582    1.485   .     S
C577   C578    1.414   .     A
C577   O631    1.379   .     S
C578   C584    1.492   .     S
C579   C585    1.466   .     S
C580   C1427   1.466   1_554 S
C581   C1426   1.466   .     S
C583   C590    1.416   .     A
C584   O646    1.315   .     A
C584   O649    1.326   .     A
C585   O647    1.314   .     A
C585   O648    1.312   .     A
C586   S651    1.849   .     S
C586   N610    1.401   .     A
C587   N609    1.412   .     A
C587   S652    1.847   .     S
C587   C24     1.455   1_565 S
C588   S653    1.826   .     S
C588   N610    1.390   .     A
C589   S654    1.837   .     S
C589   N609    1.394   .     A
C589   C22     1.469   1_565 S
C590   S655    1.781   .     S
C590   C755    1.399   1_455 S
Cu591  O648    1.968   .     S
Cu591  O633    1.969   .     S
Cu591  N609    2.060   .     S
Cu591  O611    1.982   .     S
Cu591  O646    1.958   .     S
Cu591  Cu592   2.741   .     S
Cu592  N610    2.060   .     S
Cu592  O647    1.958   .     S
Cu592  O649    1.968   .     S
Cu592  O622    1.982   .     S
Cu592  O644    1.969   .     S
H593   O613    0.991   .     S
H594   O629    0.991   .     S
H595   O630    0.985   .     S
H596   O631    0.990   .     S
H597   O635    0.990   .     S
H598   O638    0.991   .     S
H599   O641    0.991   .     S
H600   O739    0.989   .     S
H601   O616    0.991   .     S
H602   O619    0.991   .     S
H603   O623    0.991   .     S
H604   O1470   0.988   .     S
H605   O625    0.990   .     S
H606   O626    0.989   .     S
H607   O627    0.991   .     S
H608   O628    0.989   .     S
O612   S651    1.495   .     D
O613   S651    1.674   .     S
O614   S652    1.497   .     D
O615   S652    1.504   .     D
O616   S652    1.676   .     S
O617   S653    1.504   .     D
O618   S653    1.504   .     D
O619   S653    1.669   .     S
O620   S654    1.497   .     D
O621   S654    1.500   .     D
O623   S654    1.674   .     S
O624   H1450   0.988   1_554 S
O632   S655    1.500   .     D
O634   S655    1.501   .     D
O635   S655    1.675   .     S
O636   S656    1.501   .     D
O637   S656    1.499   .     D
O638   S656    1.679   .     S
O639   S657    1.497   .     D
O640   S657    1.495   .     D
O641   S657    1.677   .     S
O642   S658    1.504   .     D
O643   S658    1.500   .     D
O645   S658    1.677   .     S
O645   H788    0.989   1_455 S
O650   S651    1.501   .     D
C659   C677    1.487   .     S
C659   O705    1.321   .     A
C659   O738    1.319   .     A
C660   C676    1.408   .     A
C660   S750    1.782   .     S
C660   C756    1.404   .     S
C661   C676    1.405   .     A
C661   S751    1.775   .     S
C661   C778    1.399   .     S
C662   C677    1.417   .     A
C662   S752    1.785   .     S
C663   C674    1.411   .     A
C663   C667    1.407   .     A
C663   O718    1.387   .     S
C664   O719    1.383   .     S
C664   C675    1.402   .     A
C664   C668    1.411   .     A
C665   C669    1.394   .     A
C665   C675    1.413   .     A
C665   O720    1.384   .     S
C666   C671    1.412   .     A
C666   C674    1.398   .     A
C666   O721    1.383   .     S
C667   O722    1.384   .     S
C667   C672    1.423   .     A
C668   C673    1.407   .     A
C668   O723    1.378   .     S
C669   C673    1.417   .     A
C669   O724    1.380   .     S
C670   O727    1.316   .     A
C670   O716    1.322   .     A
C670   C676    1.485   .     S
C671   C672    1.414   .     A
C671   O725    1.379   .     S
C672   C678    1.492   .     S
C673   C679    1.466   .     S
C674   C1521   1.466   1_554 S
C675   C1520   1.466   .     S
C677   C684    1.416   .     A
C678   O740    1.315   .     A
C678   O743    1.326   .     A
C679   O741    1.314   .     A
C679   O742    1.312   .     A
C680   S745    1.849   .     S
C680   N704    1.401   .     A
C681   N703    1.412   .     A
C681   S746    1.847   .     S
C681   C118    1.455   1_565 S
C682   S747    1.826   .     S
C682   N704    1.390   .     A
C683   S748    1.837   .     S
C683   N703    1.394   .     A
C683   C116    1.469   1_565 S
C684   S749    1.781   .     S
Cu685  O742    1.968   .     S
Cu685  O727    1.969   .     S
Cu685  N703    2.060   .     S
Cu685  O705    1.982   .     S
Cu685  O740    1.958   .     S
Cu685  Cu686   2.741   .     S
Cu686  N704    2.060   .     S
Cu686  O741    1.958   .     S
Cu686  O743    1.968   .     S
Cu686  O716    1.982   .     S
Cu686  O738    1.969   .     S
H687   O707    0.991   .     S
H688   O723    0.991   .     S
H689   O724    0.985   .     S
H690   O725    0.990   .     S
H691   O729    0.990   .     S
H692   O732    0.991   .     S
H693   O735    0.991   .     S
H694   O833    0.989   .     S
H695   O710    0.991   .     S
H696   O713    0.991   .     S
H697   O717    0.991   .     S
H698   O1564   0.988   .     S
H699   O719    0.990   .     S
H700   O720    0.989   .     S
H701   O721    0.991   .     S
H702   O722    0.989   .     S
O706   S745    1.495   .     D
O707   S745    1.674   .     S
O708   S746    1.497   .     D
O709   S746    1.504   .     D
O710   S746    1.676   .     S
O711   S747    1.504   .     D
O712   S747    1.504   .     D
O713   S747    1.669   .     S
O714   S748    1.497   .     D
O715   S748    1.500   .     D
O717   S748    1.674   .     S
O718   H1544   0.988   1_554 S
O726   S749    1.500   .     D
O728   S749    1.501   .     D
O729   S749    1.675   .     S
O730   S750    1.501   .     D
O731   S750    1.499   .     D
O732   S750    1.679   .     S
O733   S751    1.497   .     D
O734   S751    1.495   .     D
O735   S751    1.677   .     S
O736   S752    1.504   .     D
O737   S752    1.500   .     D
O739   S752    1.677   .     S
O744   S745    1.501   .     D
C753   C771    1.487   .     S
C753   O799    1.321   .     A
C753   O832    1.319   .     A
C754   C770    1.408   .     A
C754   S844    1.782   .     S
C754   C568    1.404   1_655 S
C755   C770    1.405   .     A
C755   S845    1.775   .     S
C755   C590    1.399   1_655 S
C756   C771    1.417   .     A
C756   S846    1.785   .     S
C757   C768    1.411   .     A
C757   C761    1.407   .     A
C757   O812    1.387   .     S
C758   O813    1.383   .     S
C758   C769    1.402   .     A
C758   C762    1.411   .     A
C759   C763    1.394   .     A
C759   C769    1.413   .     A
C759   O814    1.384   .     S
C760   C765    1.412   .     A
C760   C768    1.398   .     A
C760   O815    1.383   .     S
C761   O816    1.384   .     S
C761   C766    1.423   .     A
C762   C767    1.407   .     A
C762   O817    1.378   .     S
C763   C767    1.417   .     A
C763   O818    1.380   .     S
C764   O821    1.316   .     A
C764   O810    1.322   .     A
C764   C770    1.485   .     S
C765   C766    1.414   .     A
C765   O819    1.379   .     S
C766   C772    1.492   .     S
C767   C773    1.466   .     S
C768   C1615   1.466   1_554 S
C769   C1614   1.466   .     S
C771   C778    1.416   .     A
C772   O834    1.315   .     A
C772   O837    1.326   .     A
C773   O835    1.314   .     A
C773   O836    1.312   .     A
C774   S839    1.849   .     S
C774   N798    1.401   .     A
C775   N797    1.412   .     A
C775   S840    1.847   .     S
C775   C212    1.455   1_565 S
C776   S841    1.826   .     S
C776   N798    1.390   .     A
C777   S842    1.837   .     S
C777   N797    1.394   .     A
C777   C210    1.469   1_565 S
C778   S843    1.781   .     S
Cu779  O836    1.968   .     S
Cu779  O821    1.969   .     S
Cu779  N797    2.060   .     S
Cu779  O799    1.982   .     S
Cu779  O834    1.958   .     S
Cu779  Cu780   2.741   .     S
Cu780  N798    2.060   .     S
Cu780  O835    1.958   .     S
Cu780  O837    1.968   .     S
Cu780  O810    1.982   .     S
Cu780  O832    1.969   .     S
H781   O801    0.991   .     S
H782   O817    0.991   .     S
H783   O818    0.985   .     S
H784   O819    0.990   .     S
H785   O823    0.990   .     S
H786   O826    0.991   .     S
H787   O829    0.991   .     S
H788   O645    0.989   1_655 S
H789   O804    0.991   .     S
H790   O807    0.991   .     S
H791   O811    0.991   .     S
H792   O1658   0.988   .     S
H793   O813    0.990   .     S
H794   O814    0.989   .     S
H795   O815    0.991   .     S
H796   O816    0.989   .     S
O800   S839    1.495   .     D
O801   S839    1.674   .     S
O802   S840    1.497   .     D
O803   S840    1.504   .     D
O804   S840    1.676   .     S
O805   S841    1.504   .     D
O806   S841    1.504   .     D
O807   S841    1.669   .     S
O808   S842    1.497   .     D
O809   S842    1.500   .     D
O811   S842    1.674   .     S
O812   H1638   0.988   1_554 S
O820   S843    1.500   .     D
O822   S843    1.501   .     D
O823   S843    1.675   .     S
O824   S844    1.501   .     D
O825   S844    1.499   .     D
O826   S844    1.679   .     S
O827   S845    1.497   .     D
O828   S845    1.495   .     D
O829   S845    1.677   .     S
O830   S846    1.504   .     D
O831   S846    1.500   .     D
O833   S846    1.677   .     S
O838   S839    1.501   .     D
C847   C865    1.487   .     S
C847   O893    1.321   .     A
C847   O926    1.319   .     A
C848   C864    1.408   .     A
C848   S938    1.782   .     S
C848   C944    1.404   .     S
C849   C864    1.405   .     A
C849   S939    1.775   .     S
C849   C966    1.399   .     S
C850   C865    1.417   .     A
C850   S940    1.785   .     S
C850   C1036   1.404   1_455 S
C851   C862    1.411   .     A
C851   C855    1.407   .     A
C851   O906    1.387   .     S
C852   O907    1.383   .     S
C852   C863    1.402   .     A
C852   C856    1.411   .     A
C853   C857    1.394   .     A
C853   C863    1.413   .     A
C853   O908    1.384   .     S
C854   C859    1.412   .     A
C854   C862    1.398   .     A
C854   O909    1.383   .     S
C855   O910    1.384   .     S
C855   C860    1.423   .     A
C856   C861    1.407   .     A
C856   O911    1.378   .     S
C857   C861    1.417   .     A
C857   O912    1.380   .     S
C858   O915    1.316   .     A
C858   O904    1.322   .     A
C858   C864    1.485   .     S
C859   C860    1.414   .     A
C859   O913    1.379   .     S
C860   C866    1.492   .     S
C861   C867    1.466   .     S
C863   C16     1.466   1_556 S
C865   C872    1.416   .     A
C866   O928    1.315   .     A
C866   O931    1.326   .     A
C867   O929    1.314   .     A
C867   O930    1.312   .     A
C868   S933    1.849   .     S
C868   N892    1.401   .     A
C868   C1435   1.469   1_545 S
C869   N891    1.412   .     A
C869   S934    1.847   .     S
C869   C1152   1.455   .     S
C870   S935    1.826   .     S
C870   N892    1.390   .     A
C870   C1433   1.455   1_545 S
C871   S936    1.837   .     S
C871   N891    1.394   .     A
C871   C1150   1.469   .     S
C872   S937    1.781   .     S
C872   C1037   1.399   1_455 S
Cu873  O930    1.968   .     S
Cu873  O915    1.969   .     S
Cu873  N891    2.060   .     S
Cu873  O893    1.982   .     S
Cu873  O928    1.958   .     S
Cu873  Cu874   2.741   .     S
Cu874  N892    2.060   .     S
Cu874  O929    1.958   .     S
Cu874  O931    1.968   .     S
Cu874  O904    1.982   .     S
Cu874  O926    1.969   .     S
H875   O895    0.991   .     S
H876   O911    0.991   .     S
H877   O912    0.985   .     S
H878   O913    0.990   .     S
H879   O917    0.990   .     S
H880   O920    0.991   .     S
H881   O923    0.991   .     S
H882   O1021   0.989   .     S
H883   O898    0.991   .     S
H884   O901    0.991   .     S
H885   O905    0.991   .     S
H886   O60     0.988   1_556 S
H887   O907    0.990   .     S
H888   O908    0.989   .     S
H889   O909    0.991   .     S
H890   O910    0.989   .     S
O894   S933    1.495   .     D
O895   S933    1.674   .     S
O896   S934    1.497   .     D
O897   S934    1.504   .     D
O898   S934    1.676   .     S
O899   S935    1.504   .     D
O900   S935    1.504   .     D
O901   S935    1.669   .     S
O902   S936    1.497   .     D
O903   S936    1.500   .     D
O905   S936    1.674   .     S
O914   S937    1.500   .     D
O916   S937    1.501   .     D
O917   S937    1.675   .     S
O918   S938    1.501   .     D
O919   S938    1.499   .     D
O920   S938    1.679   .     S
O921   S939    1.497   .     D
O922   S939    1.495   .     D
O923   S939    1.677   .     S
O924   S940    1.504   .     D
O925   S940    1.500   .     D
O927   S940    1.677   .     S
O927   H1070   0.989   1_455 S
O932   S933    1.501   .     D
C941   C959    1.487   .     S
C941   O987    1.321   .     A
C941   O1020   1.319   .     A
C942   C958    1.408   .     A
C942   S1032   1.782   .     S
C942   C1038   1.404   .     S
C943   C958    1.405   .     A
C943   S1033   1.775   .     S
C943   C1060   1.399   .     S
C944   C959    1.417   .     A
C944   S1034   1.785   .     S
C945   C956    1.411   .     A
C945   C949    1.407   .     A
C945   O1000   1.387   .     S
C946   O1001   1.383   .     S
C946   C957    1.402   .     A
C946   C950    1.411   .     A
C947   C951    1.394   .     A
C947   C957    1.413   .     A
C947   O1002   1.384   .     S
C948   C953    1.412   .     A
C948   C956    1.398   .     A
C948   O1003   1.383   .     S
C949   O1004   1.384   .     S
C949   C954    1.423   .     A
C950   C955    1.407   .     A
C950   O1005   1.378   .     S
C951   C955    1.417   .     A
C951   O1006   1.380   .     S
C952   O1009   1.316   .     A
C952   O998    1.322   .     A
C952   C958    1.485   .     S
C953   C954    1.414   .     A
C953   O1007   1.379   .     S
C954   C960    1.492   .     S
C955   C961    1.466   .     S
C957   C110    1.466   1_556 S
C959   C966    1.416   .     A
C960   O1022   1.315   .     A
C960   O1025   1.326   .     A
C961   O1023   1.314   .     A
C961   O1024   1.312   .     A
C962   S1027   1.849   .     S
C962   N986    1.401   .     A
C962   C1529   1.469   1_545 S
C963   N985    1.412   .     A
C963   S1028   1.847   .     S
C963   C1246   1.455   .     S
C964   S1029   1.826   .     S
C964   N986    1.390   .     A
C964   C1527   1.455   1_545 S
C965   S1030   1.837   .     S
C965   N985    1.394   .     A
C965   C1244   1.469   .     S
C966   S1031   1.781   .     S
Cu967  O1024   1.968   .     S
Cu967  O1009   1.969   .     S
Cu967  N985    2.060   .     S
Cu967  O987    1.982   .     S
Cu967  O1022   1.958   .     S
Cu967  Cu968   2.741   .     S
Cu968  N986    2.060   .     S
Cu968  O1023   1.958   .     S
Cu968  O1025   1.968   .     S
Cu968  O998    1.982   .     S
Cu968  O1020   1.969   .     S
H969   O989    0.991   .     S
H970   O1005   0.991   .     S
H971   O1006   0.985   .     S
H972   O1007   0.990   .     S
H973   O1011   0.990   .     S
H974   O1014   0.991   .     S
H975   O1017   0.991   .     S
H976   O1115   0.989   .     S
H977   O992    0.991   .     S
H978   O995    0.991   .     S
H979   O999    0.991   .     S
H980   O154    0.988   1_556 S
H981   O1001   0.990   .     S
H982   O1002   0.989   .     S
H983   O1003   0.991   .     S
H984   O1004   0.989   .     S
O988   S1027   1.495   .     D
O989   S1027   1.674   .     S
O990   S1028   1.497   .     D
O991   S1028   1.504   .     D
O992   S1028   1.676   .     S
O993   S1029   1.504   .     D
O994   S1029   1.504   .     D
O995   S1029   1.669   .     S
O996   S1030   1.497   .     D
O997   S1030   1.500   .     D
O999   S1030   1.674   .     S
O1008  S1031   1.500   .     D
O1010  S1031   1.501   .     D
O1011  S1031   1.675   .     S
O1012  S1032   1.501   .     D
O1013  S1032   1.499   .     D
O1014  S1032   1.679   .     S
O1015  S1033   1.497   .     D
O1016  S1033   1.495   .     D
O1017  S1033   1.677   .     S
O1018  S1034   1.504   .     D
O1019  S1034   1.500   .     D
O1021  S1034   1.677   .     S
O1026  S1027   1.501   .     D
C1035  C1053   1.487   .     S
C1035  O1081   1.321   .     A
C1035  O1114   1.319   .     A
C1036  C1052   1.408   .     A
C1036  S1126   1.782   .     S
C1036  C850    1.404   1_655 S
C1037  C1052   1.405   .     A
C1037  S1127   1.775   .     S
C1037  C872    1.399   1_655 S
C1038  C1053   1.417   .     A
C1038  S1128   1.785   .     S
C1039  C1050   1.411   .     A
C1039  C1043   1.407   .     A
C1039  O1094   1.387   .     S
C1040  O1095   1.383   .     S
C1040  C1051   1.402   .     A
C1040  C1044   1.411   .     A
C1041  C1045   1.394   .     A
C1041  C1051   1.413   .     A
C1041  O1096   1.384   .     S
C1042  C1047   1.412   .     A
C1042  C1050   1.398   .     A
C1042  O1097   1.383   .     S
C1043  O1098   1.384   .     S
C1043  C1048   1.423   .     A
C1044  C1049   1.407   .     A
C1044  O1099   1.378   .     S
C1045  C1049   1.417   .     A
C1045  O1100   1.380   .     S
C1046  O1103   1.316   .     A
C1046  O1092   1.322   .     A
C1046  C1052   1.485   .     S
C1047  C1048   1.414   .     A
C1047  O1101   1.379   .     S
C1048  C1054   1.492   .     S
C1049  C1055   1.466   .     S
C1051  C204    1.466   1_556 S
C1053  C1060   1.416   .     A
C1054  O1116   1.315   .     A
C1054  O1119   1.326   .     A
C1055  O1117   1.314   .     A
C1055  O1118   1.312   .     A
C1056  S1121   1.849   .     S
C1056  N1080   1.401   .     A
C1056  C1623   1.469   1_545 S
C1057  N1079   1.412   .     A
C1057  S1122   1.847   .     S
C1057  C1340   1.455   .     S
C1058  S1123   1.826   .     S
C1058  N1080   1.390   .     A
C1058  C1621   1.455   1_545 S
C1059  S1124   1.837   .     S
C1059  N1079   1.394   .     A
C1059  C1338   1.469   .     S
C1060  S1125   1.781   .     S
Cu1061 O1118   1.968   .     S
Cu1061 O1103   1.969   .     S
Cu1061 N1079   2.060   .     S
Cu1061 O1081   1.982   .     S
Cu1061 O1116   1.958   .     S
Cu1061 Cu1062  2.741   .     S
Cu1062 N1080   2.060   .     S
Cu1062 O1117   1.958   .     S
Cu1062 O1119   1.968   .     S
Cu1062 O1092   1.982   .     S
Cu1062 O1114   1.969   .     S
H1063  O1083   0.991   .     S
H1064  O1099   0.991   .     S
H1065  O1100   0.985   .     S
H1066  O1101   0.990   .     S
H1067  O1105   0.990   .     S
H1068  O1108   0.991   .     S
H1069  O1111   0.991   .     S
H1070  O927    0.989   1_655 S
H1071  O1086   0.991   .     S
H1072  O1089   0.991   .     S
H1073  O1093   0.991   .     S
H1074  O248    0.988   1_556 S
H1075  O1095   0.990   .     S
H1076  O1096   0.989   .     S
H1077  O1097   0.991   .     S
H1078  O1098   0.989   .     S
O1082  S1121   1.495   .     D
O1083  S1121   1.674   .     S
O1084  S1122   1.497   .     D
O1085  S1122   1.504   .     D
O1086  S1122   1.676   .     S
O1087  S1123   1.504   .     D
O1088  S1123   1.504   .     D
O1089  S1123   1.669   .     S
O1090  S1124   1.497   .     D
O1091  S1124   1.500   .     D
O1093  S1124   1.674   .     S
O1102  S1125   1.500   .     D
O1104  S1125   1.501   .     D
O1105  S1125   1.675   .     S
O1106  S1126   1.501   .     D
O1107  S1126   1.499   .     D
O1108  S1126   1.679   .     S
O1109  S1127   1.497   .     D
O1110  S1127   1.495   .     D
O1111  S1127   1.677   .     S
O1112  S1128   1.504   .     D
O1113  S1128   1.500   .     D
O1115  S1128   1.677   .     S
O1120  S1121   1.501   .     D
C1129  C1147   1.487   .     S
C1129  O1175   1.321   .     A
C1129  O1208   1.319   .     A
C1130  C1146   1.408   .     A
C1130  S1220   1.782   .     S
C1130  C1226   1.404   .     S
C1131  C1146   1.405   .     A
C1131  S1221   1.775   .     S
C1131  C1248   1.399   .     S
C1132  C1147   1.417   .     A
C1132  S1222   1.785   .     S
C1132  C1318   1.404   1_455 S
C1133  C1144   1.411   .     A
C1133  C1137   1.407   .     A
C1133  O1188   1.387   .     S
C1134  O1189   1.383   .     S
C1134  C1145   1.402   .     A
C1134  C1138   1.411   .     A
C1135  C1139   1.394   .     A
C1135  C1145   1.413   .     A
C1135  O1190   1.384   .     S
C1136  C1141   1.412   .     A
C1136  C1144   1.398   .     A
C1136  O1191   1.383   .     S
C1137  O1192   1.384   .     S
C1137  C1142   1.423   .     A
C1138  C1143   1.407   .     A
C1138  O1193   1.378   .     S
C1139  C1143   1.417   .     A
C1139  O1194   1.380   .     S
C1140  O1197   1.316   .     A
C1140  O1186   1.322   .     A
C1140  C1146   1.485   .     S
C1141  C1142   1.414   .     A
C1141  O1195   1.379   .     S
C1142  C1148   1.492   .     S
C1143  C1149   1.466   .     S
C1145  C298    1.466   1_556 S
C1147  C1154   1.416   .     A
C1148  O1210   1.315   .     A
C1148  O1213   1.326   .     A
C1149  O1211   1.314   .     A
C1149  O1212   1.312   .     A
C1150  S1215   1.849   .     S
C1150  N1174   1.401   .     A
C1151  N1173   1.412   .     A
C1151  S1216   1.847   .     S
C1151  C1434   1.455   .     S
C1152  S1217   1.826   .     S
C1152  N1174   1.390   .     A
C1153  S1218   1.837   .     S
C1153  N1173   1.394   .     A
C1153  C1432   1.469   .     S
C1154  S1219   1.781   .     S
C1154  C1319   1.399   1_455 S
Cu1155 O1212   1.968   .     S
Cu1155 O1197   1.969   .     S
Cu1155 N1173   2.060   .     S
Cu1155 O1175   1.982   .     S
Cu1155 O1210   1.958   .     S
Cu1155 Cu1156  2.741   .     S
Cu1156 N1174   2.060   .     S
Cu1156 O1211   1.958   .     S
Cu1156 O1213   1.968   .     S
Cu1156 O1186   1.982   .     S
Cu1156 O1208   1.969   .     S
H1157  O1177   0.991   .     S
H1158  O1193   0.991   .     S
H1159  O1194   0.985   .     S
H1160  O1195   0.990   .     S
H1161  O1199   0.990   .     S
H1162  O1202   0.991   .     S
H1163  O1205   0.991   .     S
H1164  O1303   0.989   .     S
H1165  O1180   0.991   .     S
H1166  O1183   0.991   .     S
H1167  O1187   0.991   .     S
H1168  O342    0.988   1_556 S
H1169  O1189   0.990   .     S
H1170  O1190   0.989   .     S
H1171  O1191   0.991   .     S
H1172  O1192   0.989   .     S
O1176  S1215   1.495   .     D
O1177  S1215   1.674   .     S
O1178  S1216   1.497   .     D
O1179  S1216   1.504   .     D
O1180  S1216   1.676   .     S
O1181  S1217   1.504   .     D
O1182  S1217   1.504   .     D
O1183  S1217   1.669   .     S
O1184  S1218   1.497   .     D
O1185  S1218   1.500   .     D
O1187  S1218   1.674   .     S
O1196  S1219   1.500   .     D
O1198  S1219   1.501   .     D
O1199  S1219   1.675   .     S
O1200  S1220   1.501   .     D
O1201  S1220   1.499   .     D
O1202  S1220   1.679   .     S
O1203  S1221   1.497   .     D
O1204  S1221   1.495   .     D
O1205  S1221   1.677   .     S
O1206  S1222   1.504   .     D
O1207  S1222   1.500   .     D
O1209  S1222   1.677   .     S
O1209  H1352   0.989   1_455 S
O1214  S1215   1.501   .     D
C1223  C1241   1.487   .     S
C1223  O1269   1.321   .     A
C1223  O1302   1.319   .     A
C1224  C1240   1.408   .     A
C1224  S1314   1.782   .     S
C1224  C1320   1.404   .     S
C1225  C1240   1.405   .     A
C1225  S1315   1.775   .     S
C1225  C1342   1.399   .     S
C1226  C1241   1.417   .     A
C1226  S1316   1.785   .     S
C1227  C1238   1.411   .     A
C1227  C1231   1.407   .     A
C1227  O1282   1.387   .     S
C1228  O1283   1.383   .     S
C1228  C1239   1.402   .     A
C1228  C1232   1.411   .     A
C1229  C1233   1.394   .     A
C1229  C1239   1.413   .     A
C1229  O1284   1.384   .     S
C1230  C1235   1.412   .     A
C1230  C1238   1.398   .     A
C1230  O1285   1.383   .     S
C1231  O1286   1.384   .     S
C1231  C1236   1.423   .     A
C1232  C1237   1.407   .     A
C1232  O1287   1.378   .     S
C1233  C1237   1.417   .     A
C1233  O1288   1.380   .     S
C1234  O1291   1.316   .     A
C1234  O1280   1.322   .     A
C1234  C1240   1.485   .     S
C1235  C1236   1.414   .     A
C1235  O1289   1.379   .     S
C1236  C1242   1.492   .     S
C1237  C1243   1.466   .     S
C1239  C392    1.466   1_556 S
C1241  C1248   1.416   .     A
C1242  O1304   1.315   .     A
C1242  O1307   1.326   .     A
C1243  O1305   1.314   .     A
C1243  O1306   1.312   .     A
C1244  S1309   1.849   .     S
C1244  N1268   1.401   .     A
C1245  N1267   1.412   .     A
C1245  S1310   1.847   .     S
C1245  C1528   1.455   .     S
C1246  S1311   1.826   .     S
C1246  N1268   1.390   .     A
C1247  S1312   1.837   .     S
C1247  N1267   1.394   .     A
C1247  C1526   1.469   .     S
C1248  S1313   1.781   .     S
Cu1249 O1306   1.968   .     S
Cu1249 O1291   1.969   .     S
Cu1249 N1267   2.060   .     S
Cu1249 O1269   1.982   .     S
Cu1249 O1304   1.958   .     S
Cu1249 Cu1250  2.741   .     S
Cu1250 N1268   2.060   .     S
Cu1250 O1305   1.958   .     S
Cu1250 O1307   1.968   .     S
Cu1250 O1280   1.982   .     S
Cu1250 O1302   1.969   .     S
H1251  O1271   0.991   .     S
H1252  O1287   0.991   .     S
H1253  O1288   0.985   .     S
H1254  O1289   0.990   .     S
H1255  O1293   0.990   .     S
H1256  O1296   0.991   .     S
H1257  O1299   0.991   .     S
H1258  O1397   0.989   .     S
H1259  O1274   0.991   .     S
H1260  O1277   0.991   .     S
H1261  O1281   0.991   .     S
H1262  O436    0.988   1_556 S
H1263  O1283   0.990   .     S
H1264  O1284   0.989   .     S
H1265  O1285   0.991   .     S
H1266  O1286   0.989   .     S
O1270  S1309   1.495   .     D
O1271  S1309   1.674   .     S
O1272  S1310   1.497   .     D
O1273  S1310   1.504   .     D
O1274  S1310   1.676   .     S
O1275  S1311   1.504   .     D
O1276  S1311   1.504   .     D
O1277  S1311   1.669   .     S
O1278  S1312   1.497   .     D
O1279  S1312   1.500   .     D
O1281  S1312   1.674   .     S
O1290  S1313   1.500   .     D
O1292  S1313   1.501   .     D
O1293  S1313   1.675   .     S
O1294  S1314   1.501   .     D
O1295  S1314   1.499   .     D
O1296  S1314   1.679   .     S
O1297  S1315   1.497   .     D
O1298  S1315   1.495   .     D
O1299  S1315   1.677   .     S
O1300  S1316   1.504   .     D
O1301  S1316   1.500   .     D
O1303  S1316   1.677   .     S
O1308  S1309   1.501   .     D
C1317  C1335   1.487   .     S
C1317  O1363   1.321   .     A
C1317  O1396   1.319   .     A
C1318  C1334   1.408   .     A
C1318  S1408   1.782   .     S
C1318  C1132   1.404   1_655 S
C1319  C1334   1.405   .     A
C1319  S1409   1.775   .     S
C1319  C1154   1.399   1_655 S
C1320  C1335   1.417   .     A
C1320  S1410   1.785   .     S
C1321  C1332   1.411   .     A
C1321  C1325   1.407   .     A
C1321  O1376   1.387   .     S
C1322  O1377   1.383   .     S
C1322  C1333   1.402   .     A
C1322  C1326   1.411   .     A
C1323  C1327   1.394   .     A
C1323  C1333   1.413   .     A
C1323  O1378   1.384   .     S
C1324  C1329   1.412   .     A
C1324  C1332   1.398   .     A
C1324  O1379   1.383   .     S
C1325  O1380   1.384   .     S
C1325  C1330   1.423   .     A
C1326  C1331   1.407   .     A
C1326  O1381   1.378   .     S
C1327  C1331   1.417   .     A
C1327  O1382   1.380   .     S
C1328  O1385   1.316   .     A
C1328  O1374   1.322   .     A
C1328  C1334   1.485   .     S
C1329  C1330   1.414   .     A
C1329  O1383   1.379   .     S
C1330  C1336   1.492   .     S
C1331  C1337   1.466   .     S
C1333  C486    1.466   1_556 S
C1335  C1342   1.416   .     A
C1336  O1398   1.315   .     A
C1336  O1401   1.326   .     A
C1337  O1399   1.314   .     A
C1337  O1400   1.312   .     A
C1338  S1403   1.849   .     S
C1338  N1362   1.401   .     A
C1339  N1361   1.412   .     A
C1339  S1404   1.847   .     S
C1339  C1622   1.455   .     S
C1340  S1405   1.826   .     S
C1340  N1362   1.390   .     A
C1341  S1406   1.837   .     S
C1341  N1361   1.394   .     A
C1341  C1620   1.469   .     S
C1342  S1407   1.781   .     S
Cu1343 O1400   1.968   .     S
Cu1343 O1385   1.969   .     S
Cu1343 N1361   2.060   .     S
Cu1343 O1363   1.982   .     S
Cu1343 O1398   1.958   .     S
Cu1343 Cu1344  2.741   .     S
Cu1344 N1362   2.060   .     S
Cu1344 O1399   1.958   .     S
Cu1344 O1401   1.968   .     S
Cu1344 O1374   1.982   .     S
Cu1344 O1396   1.969   .     S
H1345  O1365   0.991   .     S
H1346  O1381   0.991   .     S
H1347  O1382   0.985   .     S
H1348  O1383   0.990   .     S
H1349  O1387   0.990   .     S
H1350  O1390   0.991   .     S
H1351  O1393   0.991   .     S
H1352  O1209   0.989   1_655 S
H1353  O1368   0.991   .     S
H1354  O1371   0.991   .     S
H1355  O1375   0.991   .     S
H1356  O530    0.988   1_556 S
H1357  O1377   0.990   .     S
H1358  O1378   0.989   .     S
H1359  O1379   0.991   .     S
H1360  O1380   0.989   .     S
O1364  S1403   1.495   .     D
O1365  S1403   1.674   .     S
O1366  S1404   1.497   .     D
O1367  S1404   1.504   .     D
O1368  S1404   1.676   .     S
O1369  S1405   1.504   .     D
O1370  S1405   1.504   .     D
O1371  S1405   1.669   .     S
O1372  S1406   1.497   .     D
O1373  S1406   1.500   .     D
O1375  S1406   1.674   .     S
O1384  S1407   1.500   .     D
O1386  S1407   1.501   .     D
O1387  S1407   1.675   .     S
O1388  S1408   1.501   .     D
O1389  S1408   1.499   .     D
O1390  S1408   1.679   .     S
O1391  S1409   1.497   .     D
O1392  S1409   1.495   .     D
O1393  S1409   1.677   .     S
O1394  S1410   1.504   .     D
O1395  S1410   1.500   .     D
O1397  S1410   1.677   .     S
O1402  S1403   1.501   .     D
C1411  C1429   1.487   .     S
C1411  O1457   1.321   .     A
C1411  O1490   1.319   .     A
C1412  C1428   1.408   .     A
C1412  S1502   1.782   .     S
C1412  C1508   1.404   .     S
C1413  C1428   1.405   .     A
C1413  S1503   1.775   .     S
C1413  C1530   1.399   .     S
C1414  C1429   1.417   .     A
C1414  S1504   1.785   .     S
C1414  C1600   1.404   1_455 S
C1415  C1426   1.411   .     A
C1415  C1419   1.407   .     A
C1415  O1470   1.387   .     S
C1416  O1471   1.383   .     S
C1416  C1427   1.402   .     A
C1416  C1420   1.411   .     A
C1417  C1421   1.394   .     A
C1417  C1427   1.413   .     A
C1417  O1472   1.384   .     S
C1418  C1423   1.412   .     A
C1418  C1426   1.398   .     A
C1418  O1473   1.383   .     S
C1419  O1474   1.384   .     S
C1419  C1424   1.423   .     A
C1420  C1425   1.407   .     A
C1420  O1475   1.378   .     S
C1421  C1425   1.417   .     A
C1421  O1476   1.380   .     S
C1422  O1479   1.316   .     A
C1422  O1468   1.322   .     A
C1422  C1428   1.485   .     S
C1423  C1424   1.414   .     A
C1423  O1477   1.379   .     S
C1424  C1430   1.492   .     S
C1425  C1431   1.466   .     S
C1427  C580    1.466   1_556 S
C1429  C1436   1.416   .     A
C1430  O1492   1.315   .     A
C1430  O1495   1.326   .     A
C1431  O1493   1.314   .     A
C1431  O1494   1.312   .     A
C1432  S1497   1.849   .     S
C1432  N1456   1.401   .     A
C1433  N1455   1.412   .     A
C1433  S1498   1.847   .     S
C1433  C870    1.455   1_565 S
C1434  S1499   1.826   .     S
C1434  N1456   1.390   .     A
C1435  S1500   1.837   .     S
C1435  N1455   1.394   .     A
C1435  C868    1.469   1_565 S
C1436  S1501   1.781   .     S
C1436  C1601   1.399   1_455 S
Cu1437 O1494   1.968   .     S
Cu1437 O1479   1.969   .     S
Cu1437 N1455   2.060   .     S
Cu1437 O1457   1.982   .     S
Cu1437 O1492   1.958   .     S
Cu1437 Cu1438  2.741   .     S
Cu1438 N1456   2.060   .     S
Cu1438 O1493   1.958   .     S
Cu1438 O1495   1.968   .     S
Cu1438 O1468   1.982   .     S
Cu1438 O1490   1.969   .     S
H1439  O1459   0.991   .     S
H1440  O1475   0.991   .     S
H1441  O1476   0.985   .     S
H1442  O1477   0.990   .     S
H1443  O1481   0.990   .     S
H1444  O1484   0.991   .     S
H1445  O1487   0.991   .     S
H1446  O1585   0.989   .     S
H1447  O1462   0.991   .     S
H1448  O1465   0.991   .     S
H1449  O1469   0.991   .     S
H1450  O624    0.988   1_556 S
H1451  O1471   0.990   .     S
H1452  O1472   0.989   .     S
H1453  O1473   0.991   .     S
H1454  O1474   0.989   .     S
O1458  S1497   1.495   .     D
O1459  S1497   1.674   .     S
O1460  S1498   1.497   .     D
O1461  S1498   1.504   .     D
O1462  S1498   1.676   .     S
O1463  S1499   1.504   .     D
O1464  S1499   1.504   .     D
O1465  S1499   1.669   .     S
O1466  S1500   1.497   .     D
O1467  S1500   1.500   .     D
O1469  S1500   1.674   .     S
O1478  S1501   1.500   .     D
O1480  S1501   1.501   .     D
O1481  S1501   1.675   .     S
O1482  S1502   1.501   .     D
O1483  S1502   1.499   .     D
O1484  S1502   1.679   .     S
O1485  S1503   1.497   .     D
O1486  S1503   1.495   .     D
O1487  S1503   1.677   .     S
O1488  S1504   1.504   .     D
O1489  S1504   1.500   .     D
O1491  S1504   1.677   .     S
O1491  H1634   0.989   1_455 S
O1496  S1497   1.501   .     D
C1505  C1523   1.487   .     S
C1505  O1551   1.321   .     A
C1505  O1584   1.319   .     A
C1506  C1522   1.408   .     A
C1506  S1596   1.782   .     S
C1506  C1602   1.404   .     S
C1507  C1522   1.405   .     A
C1507  S1597   1.775   .     S
C1507  C1624   1.399   .     S
C1508  C1523   1.417   .     A
C1508  S1598   1.785   .     S
C1509  C1520   1.411   .     A
C1509  C1513   1.407   .     A
C1509  O1564   1.387   .     S
C1510  O1565   1.383   .     S
C1510  C1521   1.402   .     A
C1510  C1514   1.411   .     A
C1511  C1515   1.394   .     A
C1511  C1521   1.413   .     A
C1511  O1566   1.384   .     S
C1512  C1517   1.412   .     A
C1512  C1520   1.398   .     A
C1512  O1567   1.383   .     S
C1513  O1568   1.384   .     S
C1513  C1518   1.423   .     A
C1514  C1519   1.407   .     A
C1514  O1569   1.378   .     S
C1515  C1519   1.417   .     A
C1515  O1570   1.380   .     S
C1516  O1573   1.316   .     A
C1516  O1562   1.322   .     A
C1516  C1522   1.485   .     S
C1517  C1518   1.414   .     A
C1517  O1571   1.379   .     S
C1518  C1524   1.492   .     S
C1519  C1525   1.466   .     S
C1521  C674    1.466   1_556 S
C1523  C1530   1.416   .     A
C1524  O1586   1.315   .     A
C1524  O1589   1.326   .     A
C1525  O1587   1.314   .     A
C1525  O1588   1.312   .     A
C1526  S1591   1.849   .     S
C1526  N1550   1.401   .     A
C1527  N1549   1.412   .     A
C1527  S1592   1.847   .     S
C1527  C964    1.455   1_565 S
C1528  S1593   1.826   .     S
C1528  N1550   1.390   .     A
C1529  S1594   1.837   .     S
C1529  N1549   1.394   .     A
C1529  C962    1.469   1_565 S
C1530  S1595   1.781   .     S
Cu1531 O1588   1.968   .     S
Cu1531 O1573   1.969   .     S
Cu1531 N1549   2.060   .     S
Cu1531 O1551   1.982   .     S
Cu1531 O1586   1.958   .     S
Cu1531 Cu1532  2.741   .     S
Cu1532 N1550   2.060   .     S
Cu1532 O1587   1.958   .     S
Cu1532 O1589   1.968   .     S
Cu1532 O1562   1.982   .     S
Cu1532 O1584   1.969   .     S
H1533  O1553   0.991   .     S
H1534  O1569   0.991   .     S
H1535  O1570   0.985   .     S
H1536  O1571   0.990   .     S
H1537  O1575   0.990   .     S
H1538  O1578   0.991   .     S
H1539  O1581   0.991   .     S
H1540  O1679   0.989   .     S
H1541  O1556   0.991   .     S
H1542  O1559   0.991   .     S
H1543  O1563   0.991   .     S
H1544  O718    0.988   1_556 S
H1545  O1565   0.990   .     S
H1546  O1566   0.989   .     S
H1547  O1567   0.991   .     S
H1548  O1568   0.989   .     S
O1552  S1591   1.495   .     D
O1553  S1591   1.674   .     S
O1554  S1592   1.497   .     D
O1555  S1592   1.504   .     D
O1556  S1592   1.676   .     S
O1557  S1593   1.504   .     D
O1558  S1593   1.504   .     D
O1559  S1593   1.669   .     S
O1560  S1594   1.497   .     D
O1561  S1594   1.500   .     D
O1563  S1594   1.674   .     S
O1572  S1595   1.500   .     D
O1574  S1595   1.501   .     D
O1575  S1595   1.675   .     S
O1576  S1596   1.501   .     D
O1577  S1596   1.499   .     D
O1578  S1596   1.679   .     S
O1579  S1597   1.497   .     D
O1580  S1597   1.495   .     D
O1581  S1597   1.677   .     S
O1582  S1598   1.504   .     D
O1583  S1598   1.500   .     D
O1585  S1598   1.677   .     S
O1590  S1591   1.501   .     D
C1599  C1617   1.487   .     S
C1599  O1645   1.321   .     A
C1599  O1678   1.319   .     A
C1600  C1616   1.408   .     A
C1600  S1690   1.782   .     S
C1600  C1414   1.404   1_655 S
C1601  C1616   1.405   .     A
C1601  S1691   1.775   .     S
C1601  C1436   1.399   1_655 S
C1602  C1617   1.417   .     A
C1602  S1692   1.785   .     S
C1603  C1614   1.411   .     A
C1603  C1607   1.407   .     A
C1603  O1658   1.387   .     S
C1604  O1659   1.383   .     S
C1604  C1615   1.402   .     A
C1604  C1608   1.411   .     A
C1605  C1609   1.394   .     A
C1605  C1615   1.413   .     A
C1605  O1660   1.384   .     S
C1606  C1611   1.412   .     A
C1606  C1614   1.398   .     A
C1606  O1661   1.383   .     S
C1607  O1662   1.384   .     S
C1607  C1612   1.423   .     A
C1608  C1613   1.407   .     A
C1608  O1663   1.378   .     S
C1609  C1613   1.417   .     A
C1609  O1664   1.380   .     S
C1610  O1667   1.316   .     A
C1610  O1656   1.322   .     A
C1610  C1616   1.485   .     S
C1611  C1612   1.414   .     A
C1611  O1665   1.379   .     S
C1612  C1618   1.492   .     S
C1613  C1619   1.466   .     S
C1615  C768    1.466   1_556 S
C1617  C1624   1.416   .     A
C1618  O1680   1.315   .     A
C1618  O1683   1.326   .     A
C1619  O1681   1.314   .     A
C1619  O1682   1.312   .     A
C1620  S1685   1.849   .     S
C1620  N1644   1.401   .     A
C1621  N1643   1.412   .     A
C1621  S1686   1.847   .     S
C1621  C1058   1.455   1_565 S
C1622  S1687   1.826   .     S
C1622  N1644   1.390   .     A
C1623  S1688   1.837   .     S
C1623  N1643   1.394   .     A
C1623  C1056   1.469   1_565 S
C1624  S1689   1.781   .     S
Cu1625 O1682   1.968   .     S
Cu1625 O1667   1.969   .     S
Cu1625 N1643   2.060   .     S
Cu1625 O1645   1.982   .     S
Cu1625 O1680   1.958   .     S
Cu1625 Cu1626  2.741   .     S
Cu1626 N1644   2.060   .     S
Cu1626 O1681   1.958   .     S
Cu1626 O1683   1.968   .     S
Cu1626 O1656   1.982   .     S
Cu1626 O1678   1.969   .     S
H1627  O1647   0.991   .     S
H1628  O1663   0.991   .     S
H1629  O1664   0.985   .     S
H1630  O1665   0.990   .     S
H1631  O1669   0.990   .     S
H1632  O1672   0.991   .     S
H1633  O1675   0.991   .     S
H1634  O1491   0.989   1_655 S
H1635  O1650   0.991   .     S
H1636  O1653   0.991   .     S
H1637  O1657   0.991   .     S
H1638  O812    0.988   1_556 S
H1639  O1659   0.990   .     S
H1640  O1660   0.989   .     S
H1641  O1661   0.991   .     S
H1642  O1662   0.989   .     S
O1646  S1685   1.495   .     D
O1647  S1685   1.674   .     S
O1648  S1686   1.497   .     D
O1649  S1686   1.504   .     D
O1650  S1686   1.676   .     S
O1651  S1687   1.504   .     D
O1652  S1687   1.504   .     D
O1653  S1687   1.669   .     S
O1654  S1688   1.497   .     D
O1655  S1688   1.500   .     D
O1657  S1688   1.674   .     S
O1666  S1689   1.500   .     D
O1668  S1689   1.501   .     D
O1669  S1689   1.675   .     S
O1670  S1690   1.501   .     D
O1671  S1690   1.499   .     D
O1672  S1690   1.679   .     S
O1673  S1691   1.497   .     D
O1674  S1691   1.495   .     D
O1675  S1691   1.677   .     S
O1676  S1692   1.504   .     D
O1677  S1692   1.500   .     D
O1679  S1692   1.677   .     S
O1684  S1685   1.501   .     D
