data_str_m2_o2_o10_pcu_sym.190
_audit_creation_date              2020-01-03
_audit_creation_method            'Materials Studio'
_symmetry_space_group_name_H-M    'P1'
_symmetry_Int_Tables_number       1
_symmetry_cell_setting            triclinic
loop_
_symmetry_equiv_pos_as_xyz
  x,y,z
_cell_length_a                    26.1772
_cell_length_b                    30.1297
_cell_length_c                    27.9788
_cell_angle_alpha                 88.8236
_cell_angle_beta                  95.7554
_cell_angle_gamma                 92.7121
loop_
_atom_site_label
_atom_site_type_symbol
_atom_site_fract_x
_atom_site_fract_y
_atom_site_fract_z
_atom_site_U_iso_or_equiv
_atom_site_adp_type
_atom_site_occupancy
C1     C     0.16690   0.16501   0.25043   0.00000  Uiso   1.00
C2     C     0.16637   0.33491   0.24958   0.00000  Uiso   1.00
C3     C     0.19575   0.28099   0.05533   0.00000  Uiso   1.00
C4     C     0.13180   0.22386   0.44404   0.00000  Uiso   1.00
C5     C     0.19604   0.28125   0.10566   0.00000  Uiso   1.00
C6     C     0.13118   0.22385   0.39366   0.00000  Uiso   1.00
C7     C     0.13840   0.21814   0.10297   0.00000  Uiso   1.00
C8     C     0.20276   0.27528   0.39793   0.00000  Uiso   1.00
C9     C     0.13941   0.21621   0.05272   0.00000  Uiso   1.00
C10    C     0.20498   0.27453   0.44854   0.00000  Uiso   1.00
C11    C     0.16806   0.24834   0.02745   0.00000  Uiso   1.00
C12    C     0.16867   0.24883   0.47294   0.00000  Uiso   1.00
C13    C     0.06836   0.24822   0.23868   0.00000  Uiso   1.00
C14    C     0.26495   0.25168   0.26130   0.00000  Uiso   1.00
C15    C     0.01421   0.23775   0.23626   0.00000  Uiso   1.00
C16    C     0.31907   0.26151   0.26369   0.00000  Uiso   1.00
C17    C     0.13482   0.04643   0.28527   0.00000  Uiso   1.00
C18    C     0.12853   0.45016   0.21195   0.00000  Uiso   1.00
C19    C     0.14024   0.09287   0.28625   0.00000  Uiso   1.00
C20    C     0.13260   0.40399   0.21250   0.00000  Uiso   1.00
C21    C     0.16488   0.11658   0.25094   0.00000  Uiso   1.00
C22    C     0.16409   0.38303   0.24862   0.00000  Uiso   1.00
C23    C     0.18619   0.09396   0.21519   0.00000  Uiso   1.00
C24    C     0.19215   0.40796   0.28461   0.00000  Uiso   1.00
C25    C     0.18330   0.04789   0.21481   0.00000  Uiso   1.00
C26    C     0.18944   0.45384   0.28423   0.00000  Uiso   1.00
C27    C     0.15711   0.02383   0.24907   0.00000  Uiso   1.00
C28    C     0.15743   0.47521   0.24849   0.00000  Uiso   1.00
Cu29   Cu    0.16667   0.25000   0.29822   0.00000  Uiso   1.00
Cu30   Cu    0.16667   0.25001   0.20179   0.00000  Uiso   1.00
H31    H     0.12430   0.11066   0.31409   0.00000  Uiso   1.00
H32    H     0.11020   0.38408   0.18540   0.00000  Uiso   1.00
H33    H     0.20607   0.11198   0.18813   0.00000  Uiso   1.00
H34    H     0.21677   0.39190   0.31258   0.00000  Uiso   1.00
H35    H     0.21778   0.30698   0.03852   0.00000  Uiso   1.00
H36    H     0.10267   0.20385   0.46012   0.00000  Uiso   1.00
H37    H     0.11782   0.18903   0.03458   0.00000  Uiso   1.00
H38    H     0.23575   0.29400   0.46775   0.00000  Uiso   1.00
N39    N     0.16667   0.25001   0.12935   0.00000  Uiso   1.00
N40    N     0.16667   0.24999   0.37066   0.00000  Uiso   1.00
O41    O     0.16667   0.18573   0.29072   0.00000  Uiso   1.00
O42    O     0.16666   0.31428   0.20929   0.00000  Uiso   1.00
O43    O     0.16667   0.18573   0.20928   0.00000  Uiso   1.00
O44    O     0.16666   0.31427   0.29072   0.00000  Uiso   1.00
O45    O     0.09161   0.25000   0.28132   0.00000  Uiso   1.00
O46    O     0.24172   0.25001   0.21868   0.00000  Uiso   1.00
O47    O     0.09161   0.25000   0.19989   0.00000  Uiso   1.00
O48    O     0.24172   0.25000   0.30012   0.00000  Uiso   1.00
C49    C     0.32814   0.19564   0.20888   0.00000  Uiso   1.00
C50    C     0.02374   0.15486   0.22752   0.00000  Uiso   1.00
H51    H     0.02283   0.15089   0.26698   0.00000  Uiso   1.00
H52    H     0.06410   0.15790   0.21884   0.00000  Uiso   1.00
H53    H     0.00547   0.12456   0.20996   0.00000  Uiso   1.00
H54    H     0.28704   0.18663   0.21132   0.00000  Uiso   1.00
H55    H     0.33315   0.20095   0.17018   0.00000  Uiso   1.00
C56    C     0.00430   0.30550   0.28744   0.00000  Uiso   1.00
C57    C     0.01051   0.34263   0.25012   0.00000  Uiso   1.00
H58    H     0.03963   0.33464   0.22580   0.00000  Uiso   1.00
H59    H     0.30658   0.34771   0.22849   0.00000  Uiso   1.00
H60    H     0.02330   0.37410   0.26857   0.00000  Uiso   1.00
H61    H     0.30918   0.31608   0.31136   0.00000  Uiso   1.00
H62    H     0.04056   0.30284   0.31105   0.00000  Uiso   1.00
C63    C     0.10664   0.02245   0.32386   0.00000  Uiso   1.00
C64    C     0.05070   0.03542   0.32244   0.00000  Uiso   1.00
H65    H     0.02945   0.02755   0.28713   0.00000  Uiso   1.00
H66    H     0.04826   0.07134   0.32943   0.00000  Uiso   1.00
H67    H     0.03169   0.01636   0.35064   0.00000  Uiso   1.00
H68    H     0.10635   0.48584   0.32057   0.00000  Uiso   1.00
H69    H     0.12685   0.03073   0.35963   0.00000  Uiso   1.00
C70    C     0.09354   0.47117   0.17213   0.00000  Uiso   1.00
C71    C     0.04574   0.48892   0.19072   0.00000  Uiso   1.00
H72    H     0.02776   0.46378   0.21421   0.00000  Uiso   1.00
H73    H     0.05571   0.01994   0.21077   0.00000  Uiso   1.00
H74    H     0.01733   0.49684   0.15990   0.00000  Uiso   1.00
H75    H     0.11454   0.49830   0.15382   0.00000  Uiso   1.00
H76    H     0.08059   0.44636   0.14408   0.00000  Uiso   1.00
F77    F     0.20699   0.02657   0.18148   0.00000  Uiso   1.00
F78    F     0.21822   0.47765   0.31872   0.00000  Uiso   1.00
C79    C     0.23119   0.31673   0.13085   0.00000  Uiso   1.00
C80    C     0.21033   0.36302   0.12166   0.00000  Uiso   1.00
H81    H     0.21333   0.37379   0.08382   0.00000  Uiso   1.00
H82    H     0.16944   0.36311   0.12884   0.00000  Uiso   1.00
H83    H     0.23297   0.38733   0.14554   0.00000  Uiso   1.00
H84    H     0.23873   0.31110   0.16946   0.00000  Uiso   1.00
H85    H     0.26969   0.31627   0.11733   0.00000  Uiso   1.00
C86    C     0.09091   0.19248   0.36798   0.00000  Uiso   1.00
C87    C     0.03627   0.20667   0.37252   0.00000  Uiso   1.00
H88    H     0.02563   0.20049   0.40956   0.00000  Uiso   1.00
H89    H     0.03291   0.24247   0.36371   0.00000  Uiso   1.00
H90    H     0.00854   0.18726   0.34751   0.00000  Uiso   1.00
H91    H     0.09520   0.18852   0.33003   0.00000  Uiso   1.00
H92    H     0.09505   0.15860   0.38400   0.00000  Uiso   1.00
F93    F     0.10903   0.18744   0.12514   0.00000  Uiso   1.00
F94    F     0.23746   0.30150   0.37638   0.00000  Uiso   1.00
C95    C     0.50024   0.16501   0.25043   0.00000  Uiso   1.00
C96    C     0.49970   0.33491   0.24958   0.00000  Uiso   1.00
C97    C     0.52908   0.28099   0.05533   0.00000  Uiso   1.00
C98    C     0.46514   0.22386   0.44404   0.00000  Uiso   1.00
C99    C     0.52937   0.28125   0.10566   0.00000  Uiso   1.00
C100   C     0.46451   0.22385   0.39366   0.00000  Uiso   1.00
C101   C     0.47174   0.21814   0.10297   0.00000  Uiso   1.00
C102   C     0.53610   0.27528   0.39793   0.00000  Uiso   1.00
C103   C     0.47275   0.21621   0.05272   0.00000  Uiso   1.00
C104   C     0.53831   0.27453   0.44854   0.00000  Uiso   1.00
C105   C     0.50139   0.24834   0.02745   0.00000  Uiso   1.00
C106   C     0.50200   0.24883   0.47294   0.00000  Uiso   1.00
C107   C     0.40169   0.24822   0.23868   0.00000  Uiso   1.00
C108   C     0.59828   0.25168   0.26130   0.00000  Uiso   1.00
C109   C     0.34755   0.23775   0.23626   0.00000  Uiso   1.00
C110   C     0.65241   0.26151   0.26369   0.00000  Uiso   1.00
C111   C     0.46815   0.04643   0.28527   0.00000  Uiso   1.00
C112   C     0.46187   0.45016   0.21195   0.00000  Uiso   1.00
C113   C     0.47357   0.09287   0.28625   0.00000  Uiso   1.00
C114   C     0.46593   0.40399   0.21250   0.00000  Uiso   1.00
C115   C     0.49822   0.11658   0.25094   0.00000  Uiso   1.00
C116   C     0.49742   0.38303   0.24862   0.00000  Uiso   1.00
C117   C     0.51952   0.09396   0.21519   0.00000  Uiso   1.00
C118   C     0.52549   0.40796   0.28461   0.00000  Uiso   1.00
C119   C     0.51663   0.04789   0.21481   0.00000  Uiso   1.00
C120   C     0.52277   0.45384   0.28423   0.00000  Uiso   1.00
C121   C     0.49044   0.02383   0.24907   0.00000  Uiso   1.00
C122   C     0.49076   0.47521   0.24849   0.00000  Uiso   1.00
Cu123  Cu    0.50000   0.25000   0.29822   0.00000  Uiso   1.00
Cu124  Cu    0.50000   0.25001   0.20179   0.00000  Uiso   1.00
H125   H     0.45763   0.11066   0.31409   0.00000  Uiso   1.00
H126   H     0.44353   0.38408   0.18540   0.00000  Uiso   1.00
H127   H     0.53940   0.11198   0.18813   0.00000  Uiso   1.00
H128   H     0.55010   0.39190   0.31258   0.00000  Uiso   1.00
H129   H     0.55111   0.30698   0.03852   0.00000  Uiso   1.00
H130   H     0.43600   0.20385   0.46012   0.00000  Uiso   1.00
H131   H     0.45116   0.18903   0.03458   0.00000  Uiso   1.00
H132   H     0.56909   0.29400   0.46775   0.00000  Uiso   1.00
N133   N     0.50000   0.25001   0.12935   0.00000  Uiso   1.00
N134   N     0.50000   0.24999   0.37066   0.00000  Uiso   1.00
O135   O     0.50000   0.18573   0.29072   0.00000  Uiso   1.00
O136   O     0.50000   0.31428   0.20929   0.00000  Uiso   1.00
O137   O     0.50000   0.18573   0.20928   0.00000  Uiso   1.00
O138   O     0.50000   0.31427   0.29072   0.00000  Uiso   1.00
O139   O     0.42495   0.25000   0.28132   0.00000  Uiso   1.00
O140   O     0.57505   0.25001   0.21868   0.00000  Uiso   1.00
O141   O     0.42495   0.25000   0.19989   0.00000  Uiso   1.00
O142   O     0.57505   0.25000   0.30012   0.00000  Uiso   1.00
C143   C     0.66147   0.19564   0.20888   0.00000  Uiso   1.00
C144   C     0.35707   0.15486   0.22752   0.00000  Uiso   1.00
H145   H     0.35616   0.15089   0.26698   0.00000  Uiso   1.00
H146   H     0.39743   0.15790   0.21884   0.00000  Uiso   1.00
H147   H     0.33880   0.12456   0.20996   0.00000  Uiso   1.00
H148   H     0.62038   0.18663   0.21132   0.00000  Uiso   1.00
H149   H     0.66649   0.20095   0.17018   0.00000  Uiso   1.00
C150   C     0.33764   0.30550   0.28744   0.00000  Uiso   1.00
C151   C     0.34384   0.34263   0.25012   0.00000  Uiso   1.00
H152   H     0.37297   0.33464   0.22580   0.00000  Uiso   1.00
H153   H     0.63991   0.34771   0.22849   0.00000  Uiso   1.00
H154   H     0.35663   0.37410   0.26857   0.00000  Uiso   1.00
H155   H     0.64251   0.31608   0.31136   0.00000  Uiso   1.00
H156   H     0.37390   0.30284   0.31105   0.00000  Uiso   1.00
C157   C     0.43998   0.02245   0.32386   0.00000  Uiso   1.00
C158   C     0.38403   0.03542   0.32244   0.00000  Uiso   1.00
H159   H     0.36278   0.02755   0.28713   0.00000  Uiso   1.00
H160   H     0.38159   0.07134   0.32943   0.00000  Uiso   1.00
H161   H     0.36503   0.01636   0.35064   0.00000  Uiso   1.00
H162   H     0.43968   0.48584   0.32057   0.00000  Uiso   1.00
H163   H     0.46018   0.03073   0.35963   0.00000  Uiso   1.00
C164   C     0.42688   0.47117   0.17213   0.00000  Uiso   1.00
C165   C     0.37907   0.48892   0.19072   0.00000  Uiso   1.00
H166   H     0.36109   0.46378   0.21421   0.00000  Uiso   1.00
H167   H     0.38905   0.01994   0.21077   0.00000  Uiso   1.00
H168   H     0.35067   0.49684   0.15990   0.00000  Uiso   1.00
H169   H     0.44787   0.49830   0.15382   0.00000  Uiso   1.00
H170   H     0.41392   0.44636   0.14408   0.00000  Uiso   1.00
F171   F     0.54033   0.02657   0.18148   0.00000  Uiso   1.00
F172   F     0.55156   0.47765   0.31872   0.00000  Uiso   1.00
C173   C     0.56452   0.31673   0.13085   0.00000  Uiso   1.00
C174   C     0.54366   0.36302   0.12166   0.00000  Uiso   1.00
H175   H     0.54667   0.37379   0.08382   0.00000  Uiso   1.00
H176   H     0.50277   0.36311   0.12884   0.00000  Uiso   1.00
H177   H     0.56631   0.38733   0.14554   0.00000  Uiso   1.00
H178   H     0.57206   0.31110   0.16946   0.00000  Uiso   1.00
H179   H     0.60302   0.31627   0.11733   0.00000  Uiso   1.00
C180   C     0.42425   0.19248   0.36798   0.00000  Uiso   1.00
C181   C     0.36960   0.20667   0.37252   0.00000  Uiso   1.00
H182   H     0.35897   0.20049   0.40956   0.00000  Uiso   1.00
H183   H     0.36624   0.24247   0.36371   0.00000  Uiso   1.00
H184   H     0.34187   0.18726   0.34751   0.00000  Uiso   1.00
H185   H     0.42853   0.18852   0.33003   0.00000  Uiso   1.00
H186   H     0.42838   0.15860   0.38400   0.00000  Uiso   1.00
F187   F     0.44236   0.18744   0.12514   0.00000  Uiso   1.00
F188   F     0.57080   0.30150   0.37638   0.00000  Uiso   1.00
C189   C     0.83357   0.16501   0.25043   0.00000  Uiso   1.00
C190   C     0.83304   0.33491   0.24958   0.00000  Uiso   1.00
C191   C     0.86241   0.28099   0.05533   0.00000  Uiso   1.00
C192   C     0.79847   0.22386   0.44404   0.00000  Uiso   1.00
C193   C     0.86271   0.28125   0.10566   0.00000  Uiso   1.00
C194   C     0.79784   0.22385   0.39366   0.00000  Uiso   1.00
C195   C     0.80507   0.21814   0.10297   0.00000  Uiso   1.00
C196   C     0.86943   0.27528   0.39793   0.00000  Uiso   1.00
C197   C     0.80608   0.21621   0.05272   0.00000  Uiso   1.00
C198   C     0.87165   0.27453   0.44854   0.00000  Uiso   1.00
C199   C     0.83472   0.24834   0.02745   0.00000  Uiso   1.00
C200   C     0.83534   0.24883   0.47294   0.00000  Uiso   1.00
C201   C     0.73502   0.24822   0.23868   0.00000  Uiso   1.00
C202   C     0.93162   0.25168   0.26130   0.00000  Uiso   1.00
C203   C     0.68088   0.23775   0.23626   0.00000  Uiso   1.00
C204   C     0.98574   0.26151   0.26369   0.00000  Uiso   1.00
C205   C     0.80149   0.04643   0.28527   0.00000  Uiso   1.00
C206   C     0.79520   0.45016   0.21195   0.00000  Uiso   1.00
C207   C     0.80690   0.09287   0.28625   0.00000  Uiso   1.00
C208   C     0.79926   0.40399   0.21250   0.00000  Uiso   1.00
C209   C     0.83155   0.11658   0.25094   0.00000  Uiso   1.00
C210   C     0.83075   0.38303   0.24862   0.00000  Uiso   1.00
C211   C     0.85286   0.09396   0.21519   0.00000  Uiso   1.00
C212   C     0.85882   0.40796   0.28461   0.00000  Uiso   1.00
C213   C     0.84997   0.04789   0.21481   0.00000  Uiso   1.00
C214   C     0.85610   0.45384   0.28423   0.00000  Uiso   1.00
C215   C     0.82377   0.02383   0.24907   0.00000  Uiso   1.00
C216   C     0.82410   0.47521   0.24849   0.00000  Uiso   1.00
Cu217  Cu    0.83333   0.25000   0.29822   0.00000  Uiso   1.00
Cu218  Cu    0.83333   0.25001   0.20179   0.00000  Uiso   1.00
H219   H     0.79096   0.11066   0.31409   0.00000  Uiso   1.00
H220   H     0.77687   0.38408   0.18540   0.00000  Uiso   1.00
H221   H     0.87274   0.11198   0.18813   0.00000  Uiso   1.00
H222   H     0.88343   0.39190   0.31258   0.00000  Uiso   1.00
H223   H     0.88444   0.30698   0.03852   0.00000  Uiso   1.00
H224   H     0.76933   0.20385   0.46012   0.00000  Uiso   1.00
H225   H     0.78449   0.18903   0.03458   0.00000  Uiso   1.00
H226   H     0.90242   0.29400   0.46775   0.00000  Uiso   1.00
N227   N     0.83333   0.25001   0.12935   0.00000  Uiso   1.00
N228   N     0.83333   0.24999   0.37066   0.00000  Uiso   1.00
O229   O     0.83334   0.18573   0.29072   0.00000  Uiso   1.00
O230   O     0.83333   0.31428   0.20929   0.00000  Uiso   1.00
O231   O     0.83334   0.18573   0.20928   0.00000  Uiso   1.00
O232   O     0.83333   0.31427   0.29072   0.00000  Uiso   1.00
O233   O     0.75828   0.25000   0.28132   0.00000  Uiso   1.00
O234   O     0.90839   0.25001   0.21868   0.00000  Uiso   1.00
O235   O     0.75828   0.25000   0.19989   0.00000  Uiso   1.00
O236   O     0.90839   0.25000   0.30012   0.00000  Uiso   1.00
C237   C     0.99481   0.19564   0.20888   0.00000  Uiso   1.00
C238   C     0.69040   0.15486   0.22752   0.00000  Uiso   1.00
H239   H     0.68950   0.15089   0.26698   0.00000  Uiso   1.00
H240   H     0.73077   0.15790   0.21884   0.00000  Uiso   1.00
H241   H     0.67213   0.12456   0.20996   0.00000  Uiso   1.00
H242   H     0.95371   0.18663   0.21132   0.00000  Uiso   1.00
H243   H     0.99982   0.20095   0.17018   0.00000  Uiso   1.00
C244   C     0.67097   0.30550   0.28744   0.00000  Uiso   1.00
C245   C     0.67717   0.34263   0.25012   0.00000  Uiso   1.00
H246   H     0.70630   0.33464   0.22580   0.00000  Uiso   1.00
H247   H     0.97324   0.34771   0.22849   0.00000  Uiso   1.00
H248   H     0.68997   0.37410   0.26857   0.00000  Uiso   1.00
H249   H     0.97584   0.31608   0.31136   0.00000  Uiso   1.00
H250   H     0.70723   0.30284   0.31105   0.00000  Uiso   1.00
C251   C     0.77331   0.02245   0.32386   0.00000  Uiso   1.00
C252   C     0.71737   0.03542   0.32244   0.00000  Uiso   1.00
H253   H     0.69612   0.02755   0.28713   0.00000  Uiso   1.00
H254   H     0.71492   0.07134   0.32943   0.00000  Uiso   1.00
H255   H     0.69836   0.01636   0.35064   0.00000  Uiso   1.00
H256   H     0.77301   0.48584   0.32057   0.00000  Uiso   1.00
H257   H     0.79351   0.03073   0.35963   0.00000  Uiso   1.00
C258   C     0.76021   0.47117   0.17213   0.00000  Uiso   1.00
C259   C     0.71240   0.48892   0.19072   0.00000  Uiso   1.00
H260   H     0.69443   0.46378   0.21421   0.00000  Uiso   1.00
H261   H     0.72238   0.01994   0.21077   0.00000  Uiso   1.00
H262   H     0.68400   0.49684   0.15990   0.00000  Uiso   1.00
H263   H     0.78120   0.49830   0.15382   0.00000  Uiso   1.00
H264   H     0.74725   0.44636   0.14408   0.00000  Uiso   1.00
F265   F     0.87366   0.02657   0.18148   0.00000  Uiso   1.00
F266   F     0.88489   0.47765   0.31872   0.00000  Uiso   1.00
C267   C     0.89785   0.31673   0.13085   0.00000  Uiso   1.00
C268   C     0.87700   0.36302   0.12166   0.00000  Uiso   1.00
H269   H     0.88000   0.37379   0.08382   0.00000  Uiso   1.00
H270   H     0.83610   0.36311   0.12884   0.00000  Uiso   1.00
H271   H     0.89964   0.38733   0.14554   0.00000  Uiso   1.00
H272   H     0.90540   0.31110   0.16946   0.00000  Uiso   1.00
H273   H     0.93635   0.31627   0.11733   0.00000  Uiso   1.00
C274   C     0.75758   0.19248   0.36798   0.00000  Uiso   1.00
C275   C     0.70294   0.20667   0.37252   0.00000  Uiso   1.00
H276   H     0.69230   0.20049   0.40956   0.00000  Uiso   1.00
H277   H     0.69958   0.24247   0.36371   0.00000  Uiso   1.00
H278   H     0.67521   0.18726   0.34751   0.00000  Uiso   1.00
H279   H     0.76187   0.18852   0.33003   0.00000  Uiso   1.00
H280   H     0.76171   0.15860   0.38400   0.00000  Uiso   1.00
F281   F     0.77569   0.18744   0.12514   0.00000  Uiso   1.00
F282   F     0.90413   0.30150   0.37638   0.00000  Uiso   1.00
C283   C     0.16690   0.66501   0.25043   0.00000  Uiso   1.00
C284   C     0.16637   0.83491   0.24958   0.00000  Uiso   1.00
C285   C     0.19575   0.78099   0.05533   0.00000  Uiso   1.00
C286   C     0.13180   0.72386   0.44404   0.00000  Uiso   1.00
C287   C     0.19604   0.78125   0.10566   0.00000  Uiso   1.00
C288   C     0.13118   0.72385   0.39366   0.00000  Uiso   1.00
C289   C     0.13840   0.71814   0.10297   0.00000  Uiso   1.00
C290   C     0.20276   0.77528   0.39793   0.00000  Uiso   1.00
C291   C     0.13941   0.71621   0.05272   0.00000  Uiso   1.00
C292   C     0.20498   0.77453   0.44854   0.00000  Uiso   1.00
C293   C     0.16806   0.74834   0.02745   0.00000  Uiso   1.00
C294   C     0.16867   0.74883   0.47294   0.00000  Uiso   1.00
C295   C     0.06836   0.74822   0.23868   0.00000  Uiso   1.00
C296   C     0.26495   0.75168   0.26130   0.00000  Uiso   1.00
C297   C     0.01421   0.73775   0.23626   0.00000  Uiso   1.00
C298   C     0.31907   0.76151   0.26369   0.00000  Uiso   1.00
C299   C     0.13482   0.54643   0.28527   0.00000  Uiso   1.00
C300   C     0.12853   0.95016   0.21195   0.00000  Uiso   1.00
C301   C     0.14024   0.59287   0.28625   0.00000  Uiso   1.00
C302   C     0.13260   0.90399   0.21250   0.00000  Uiso   1.00
C303   C     0.16488   0.61658   0.25094   0.00000  Uiso   1.00
C304   C     0.16409   0.88303   0.24862   0.00000  Uiso   1.00
C305   C     0.18619   0.59396   0.21519   0.00000  Uiso   1.00
C306   C     0.19215   0.90796   0.28461   0.00000  Uiso   1.00
C307   C     0.18330   0.54789   0.21481   0.00000  Uiso   1.00
C308   C     0.18944   0.95384   0.28423   0.00000  Uiso   1.00
C309   C     0.15711   0.52383   0.24907   0.00000  Uiso   1.00
C310   C     0.15743   0.97521   0.24849   0.00000  Uiso   1.00
Cu311  Cu    0.16667   0.75000   0.29822   0.00000  Uiso   1.00
Cu312  Cu    0.16667   0.75001   0.20179   0.00000  Uiso   1.00
H313   H     0.12430   0.61066   0.31409   0.00000  Uiso   1.00
H314   H     0.11020   0.88408   0.18540   0.00000  Uiso   1.00
H315   H     0.20607   0.61198   0.18813   0.00000  Uiso   1.00
H316   H     0.21677   0.89190   0.31258   0.00000  Uiso   1.00
H317   H     0.21778   0.80698   0.03852   0.00000  Uiso   1.00
H318   H     0.10267   0.70385   0.46012   0.00000  Uiso   1.00
H319   H     0.11782   0.68903   0.03458   0.00000  Uiso   1.00
H320   H     0.23575   0.79400   0.46775   0.00000  Uiso   1.00
N321   N     0.16667   0.75001   0.12935   0.00000  Uiso   1.00
N322   N     0.16667   0.74999   0.37066   0.00000  Uiso   1.00
O323   O     0.16667   0.68573   0.29072   0.00000  Uiso   1.00
O324   O     0.16666   0.81428   0.20929   0.00000  Uiso   1.00
O325   O     0.16667   0.68573   0.20928   0.00000  Uiso   1.00
O326   O     0.16666   0.81427   0.29072   0.00000  Uiso   1.00
O327   O     0.09161   0.75000   0.28132   0.00000  Uiso   1.00
O328   O     0.24172   0.75001   0.21868   0.00000  Uiso   1.00
O329   O     0.09161   0.75000   0.19989   0.00000  Uiso   1.00
O330   O     0.24172   0.75000   0.30012   0.00000  Uiso   1.00
C331   C     0.32814   0.69564   0.20888   0.00000  Uiso   1.00
C332   C     0.02374   0.65486   0.22752   0.00000  Uiso   1.00
H333   H     0.02283   0.65089   0.26698   0.00000  Uiso   1.00
H334   H     0.06410   0.65790   0.21884   0.00000  Uiso   1.00
H335   H     0.00547   0.62456   0.20996   0.00000  Uiso   1.00
H336   H     0.28704   0.68663   0.21132   0.00000  Uiso   1.00
H337   H     0.33315   0.70095   0.17018   0.00000  Uiso   1.00
C338   C     0.00430   0.80550   0.28744   0.00000  Uiso   1.00
C339   C     0.01051   0.84263   0.25012   0.00000  Uiso   1.00
H340   H     0.03963   0.83464   0.22580   0.00000  Uiso   1.00
H341   H     0.30658   0.84771   0.22849   0.00000  Uiso   1.00
H342   H     0.02330   0.87410   0.26857   0.00000  Uiso   1.00
H343   H     0.30918   0.81608   0.31136   0.00000  Uiso   1.00
H344   H     0.04056   0.80284   0.31105   0.00000  Uiso   1.00
C345   C     0.10664   0.52245   0.32386   0.00000  Uiso   1.00
C346   C     0.05070   0.53542   0.32244   0.00000  Uiso   1.00
H347   H     0.02945   0.52755   0.28713   0.00000  Uiso   1.00
H348   H     0.04826   0.57134   0.32943   0.00000  Uiso   1.00
H349   H     0.03169   0.51636   0.35064   0.00000  Uiso   1.00
H350   H     0.10635   0.98584   0.32057   0.00000  Uiso   1.00
H351   H     0.12685   0.53073   0.35963   0.00000  Uiso   1.00
C352   C     0.09354   0.97117   0.17213   0.00000  Uiso   1.00
C353   C     0.04574   0.98892   0.19072   0.00000  Uiso   1.00
H354   H     0.02776   0.96378   0.21421   0.00000  Uiso   1.00
H355   H     0.05571   0.51994   0.21077   0.00000  Uiso   1.00
H356   H     0.01733   0.99684   0.15990   0.00000  Uiso   1.00
H357   H     0.11454   0.99830   0.15382   0.00000  Uiso   1.00
H358   H     0.08059   0.94636   0.14408   0.00000  Uiso   1.00
F359   F     0.20699   0.52657   0.18148   0.00000  Uiso   1.00
F360   F     0.21822   0.97765   0.31872   0.00000  Uiso   1.00
C361   C     0.23119   0.81673   0.13085   0.00000  Uiso   1.00
C362   C     0.21033   0.86302   0.12166   0.00000  Uiso   1.00
H363   H     0.21333   0.87379   0.08382   0.00000  Uiso   1.00
H364   H     0.16944   0.86311   0.12884   0.00000  Uiso   1.00
H365   H     0.23297   0.88733   0.14554   0.00000  Uiso   1.00
H366   H     0.23873   0.81110   0.16946   0.00000  Uiso   1.00
H367   H     0.26969   0.81627   0.11733   0.00000  Uiso   1.00
C368   C     0.09091   0.69248   0.36798   0.00000  Uiso   1.00
C369   C     0.03627   0.70667   0.37252   0.00000  Uiso   1.00
H370   H     0.02563   0.70049   0.40956   0.00000  Uiso   1.00
H371   H     0.03291   0.74247   0.36371   0.00000  Uiso   1.00
H372   H     0.00854   0.68726   0.34751   0.00000  Uiso   1.00
H373   H     0.09520   0.68852   0.33003   0.00000  Uiso   1.00
H374   H     0.09505   0.65860   0.38400   0.00000  Uiso   1.00
F375   F     0.10903   0.68744   0.12514   0.00000  Uiso   1.00
F376   F     0.23746   0.80150   0.37638   0.00000  Uiso   1.00
C377   C     0.50024   0.66501   0.25043   0.00000  Uiso   1.00
C378   C     0.49970   0.83491   0.24958   0.00000  Uiso   1.00
C379   C     0.52908   0.78099   0.05533   0.00000  Uiso   1.00
C380   C     0.46514   0.72386   0.44404   0.00000  Uiso   1.00
C381   C     0.52937   0.78125   0.10566   0.00000  Uiso   1.00
C382   C     0.46451   0.72385   0.39366   0.00000  Uiso   1.00
C383   C     0.47174   0.71814   0.10297   0.00000  Uiso   1.00
C384   C     0.53610   0.77528   0.39793   0.00000  Uiso   1.00
C385   C     0.47275   0.71621   0.05272   0.00000  Uiso   1.00
C386   C     0.53831   0.77453   0.44854   0.00000  Uiso   1.00
C387   C     0.50139   0.74834   0.02745   0.00000  Uiso   1.00
C388   C     0.50200   0.74883   0.47294   0.00000  Uiso   1.00
C389   C     0.40169   0.74822   0.23868   0.00000  Uiso   1.00
C390   C     0.59828   0.75168   0.26130   0.00000  Uiso   1.00
C391   C     0.34755   0.73775   0.23626   0.00000  Uiso   1.00
C392   C     0.65241   0.76151   0.26369   0.00000  Uiso   1.00
C393   C     0.46815   0.54643   0.28527   0.00000  Uiso   1.00
C394   C     0.46187   0.95016   0.21195   0.00000  Uiso   1.00
C395   C     0.47357   0.59287   0.28625   0.00000  Uiso   1.00
C396   C     0.46593   0.90399   0.21250   0.00000  Uiso   1.00
C397   C     0.49822   0.61658   0.25094   0.00000  Uiso   1.00
C398   C     0.49742   0.88303   0.24862   0.00000  Uiso   1.00
C399   C     0.51952   0.59396   0.21519   0.00000  Uiso   1.00
C400   C     0.52549   0.90796   0.28461   0.00000  Uiso   1.00
C401   C     0.51663   0.54789   0.21481   0.00000  Uiso   1.00
C402   C     0.52277   0.95384   0.28423   0.00000  Uiso   1.00
C403   C     0.49044   0.52383   0.24907   0.00000  Uiso   1.00
C404   C     0.49076   0.97521   0.24849   0.00000  Uiso   1.00
Cu405  Cu    0.50000   0.75000   0.29822   0.00000  Uiso   1.00
Cu406  Cu    0.50000   0.75001   0.20179   0.00000  Uiso   1.00
H407   H     0.45763   0.61066   0.31409   0.00000  Uiso   1.00
H408   H     0.44353   0.88408   0.18540   0.00000  Uiso   1.00
H409   H     0.53940   0.61198   0.18813   0.00000  Uiso   1.00
H410   H     0.55010   0.89190   0.31258   0.00000  Uiso   1.00
H411   H     0.55111   0.80698   0.03852   0.00000  Uiso   1.00
H412   H     0.43600   0.70385   0.46012   0.00000  Uiso   1.00
H413   H     0.45116   0.68903   0.03458   0.00000  Uiso   1.00
H414   H     0.56909   0.79400   0.46775   0.00000  Uiso   1.00
N415   N     0.50000   0.75001   0.12935   0.00000  Uiso   1.00
N416   N     0.50000   0.74999   0.37066   0.00000  Uiso   1.00
O417   O     0.50000   0.68573   0.29072   0.00000  Uiso   1.00
O418   O     0.50000   0.81428   0.20929   0.00000  Uiso   1.00
O419   O     0.50000   0.68573   0.20928   0.00000  Uiso   1.00
O420   O     0.50000   0.81427   0.29072   0.00000  Uiso   1.00
O421   O     0.42495   0.75000   0.28132   0.00000  Uiso   1.00
O422   O     0.57505   0.75001   0.21868   0.00000  Uiso   1.00
O423   O     0.42495   0.75000   0.19989   0.00000  Uiso   1.00
O424   O     0.57505   0.75000   0.30012   0.00000  Uiso   1.00
C425   C     0.66147   0.69564   0.20888   0.00000  Uiso   1.00
C426   C     0.35707   0.65486   0.22752   0.00000  Uiso   1.00
H427   H     0.35616   0.65089   0.26698   0.00000  Uiso   1.00
H428   H     0.39743   0.65790   0.21884   0.00000  Uiso   1.00
H429   H     0.33880   0.62456   0.20996   0.00000  Uiso   1.00
H430   H     0.62038   0.68663   0.21132   0.00000  Uiso   1.00
H431   H     0.66649   0.70095   0.17018   0.00000  Uiso   1.00
C432   C     0.33764   0.80550   0.28744   0.00000  Uiso   1.00
C433   C     0.34384   0.84263   0.25012   0.00000  Uiso   1.00
H434   H     0.37297   0.83464   0.22580   0.00000  Uiso   1.00
H435   H     0.63991   0.84771   0.22849   0.00000  Uiso   1.00
H436   H     0.35663   0.87410   0.26857   0.00000  Uiso   1.00
H437   H     0.64251   0.81608   0.31136   0.00000  Uiso   1.00
H438   H     0.37390   0.80284   0.31105   0.00000  Uiso   1.00
C439   C     0.43998   0.52245   0.32386   0.00000  Uiso   1.00
C440   C     0.38403   0.53542   0.32244   0.00000  Uiso   1.00
H441   H     0.36278   0.52755   0.28713   0.00000  Uiso   1.00
H442   H     0.38159   0.57134   0.32943   0.00000  Uiso   1.00
H443   H     0.36503   0.51636   0.35064   0.00000  Uiso   1.00
H444   H     0.43968   0.98584   0.32057   0.00000  Uiso   1.00
H445   H     0.46018   0.53073   0.35963   0.00000  Uiso   1.00
C446   C     0.42688   0.97117   0.17213   0.00000  Uiso   1.00
C447   C     0.37907   0.98892   0.19072   0.00000  Uiso   1.00
H448   H     0.36109   0.96378   0.21421   0.00000  Uiso   1.00
H449   H     0.38905   0.51994   0.21077   0.00000  Uiso   1.00
H450   H     0.35067   0.99684   0.15990   0.00000  Uiso   1.00
H451   H     0.44787   0.99830   0.15382   0.00000  Uiso   1.00
H452   H     0.41392   0.94636   0.14408   0.00000  Uiso   1.00
F453   F     0.54033   0.52657   0.18148   0.00000  Uiso   1.00
F454   F     0.55156   0.97765   0.31872   0.00000  Uiso   1.00
C455   C     0.56452   0.81673   0.13085   0.00000  Uiso   1.00
C456   C     0.54366   0.86302   0.12166   0.00000  Uiso   1.00
H457   H     0.54667   0.87379   0.08382   0.00000  Uiso   1.00
H458   H     0.50277   0.86311   0.12884   0.00000  Uiso   1.00
H459   H     0.56631   0.88733   0.14554   0.00000  Uiso   1.00
H460   H     0.57206   0.81110   0.16946   0.00000  Uiso   1.00
H461   H     0.60302   0.81627   0.11733   0.00000  Uiso   1.00
C462   C     0.42425   0.69248   0.36798   0.00000  Uiso   1.00
C463   C     0.36960   0.70667   0.37252   0.00000  Uiso   1.00
H464   H     0.35897   0.70049   0.40956   0.00000  Uiso   1.00
H465   H     0.36624   0.74247   0.36371   0.00000  Uiso   1.00
H466   H     0.34187   0.68726   0.34751   0.00000  Uiso   1.00
H467   H     0.42853   0.68852   0.33003   0.00000  Uiso   1.00
H468   H     0.42838   0.65860   0.38400   0.00000  Uiso   1.00
F469   F     0.44236   0.68744   0.12514   0.00000  Uiso   1.00
F470   F     0.57080   0.80150   0.37638   0.00000  Uiso   1.00
C471   C     0.83357   0.66501   0.25043   0.00000  Uiso   1.00
C472   C     0.83304   0.83491   0.24958   0.00000  Uiso   1.00
C473   C     0.86241   0.78099   0.05533   0.00000  Uiso   1.00
C474   C     0.79847   0.72386   0.44404   0.00000  Uiso   1.00
C475   C     0.86271   0.78125   0.10566   0.00000  Uiso   1.00
C476   C     0.79784   0.72385   0.39366   0.00000  Uiso   1.00
C477   C     0.80507   0.71814   0.10297   0.00000  Uiso   1.00
C478   C     0.86943   0.77528   0.39793   0.00000  Uiso   1.00
C479   C     0.80608   0.71621   0.05272   0.00000  Uiso   1.00
C480   C     0.87165   0.77453   0.44854   0.00000  Uiso   1.00
C481   C     0.83472   0.74834   0.02745   0.00000  Uiso   1.00
C482   C     0.83534   0.74883   0.47294   0.00000  Uiso   1.00
C483   C     0.73502   0.74822   0.23868   0.00000  Uiso   1.00
C484   C     0.93162   0.75168   0.26130   0.00000  Uiso   1.00
C485   C     0.68088   0.73775   0.23626   0.00000  Uiso   1.00
C486   C     0.98574   0.76151   0.26369   0.00000  Uiso   1.00
C487   C     0.80149   0.54643   0.28527   0.00000  Uiso   1.00
C488   C     0.79520   0.95016   0.21195   0.00000  Uiso   1.00
C489   C     0.80690   0.59287   0.28625   0.00000  Uiso   1.00
C490   C     0.79926   0.90399   0.21250   0.00000  Uiso   1.00
C491   C     0.83155   0.61658   0.25094   0.00000  Uiso   1.00
C492   C     0.83075   0.88303   0.24862   0.00000  Uiso   1.00
C493   C     0.85286   0.59396   0.21519   0.00000  Uiso   1.00
C494   C     0.85882   0.90796   0.28461   0.00000  Uiso   1.00
C495   C     0.84997   0.54789   0.21481   0.00000  Uiso   1.00
C496   C     0.85610   0.95384   0.28423   0.00000  Uiso   1.00
C497   C     0.82377   0.52383   0.24907   0.00000  Uiso   1.00
C498   C     0.82410   0.97521   0.24849   0.00000  Uiso   1.00
Cu499  Cu    0.83333   0.75000   0.29822   0.00000  Uiso   1.00
Cu500  Cu    0.83333   0.75001   0.20179   0.00000  Uiso   1.00
H501   H     0.79096   0.61066   0.31409   0.00000  Uiso   1.00
H502   H     0.77687   0.88408   0.18540   0.00000  Uiso   1.00
H503   H     0.87274   0.61198   0.18813   0.00000  Uiso   1.00
H504   H     0.88343   0.89190   0.31258   0.00000  Uiso   1.00
H505   H     0.88444   0.80698   0.03852   0.00000  Uiso   1.00
H506   H     0.76933   0.70385   0.46012   0.00000  Uiso   1.00
H507   H     0.78449   0.68903   0.03458   0.00000  Uiso   1.00
H508   H     0.90242   0.79400   0.46775   0.00000  Uiso   1.00
N509   N     0.83333   0.75001   0.12935   0.00000  Uiso   1.00
N510   N     0.83333   0.74999   0.37066   0.00000  Uiso   1.00
O511   O     0.83334   0.68573   0.29072   0.00000  Uiso   1.00
O512   O     0.83333   0.81428   0.20929   0.00000  Uiso   1.00
O513   O     0.83334   0.68573   0.20928   0.00000  Uiso   1.00
O514   O     0.83333   0.81427   0.29072   0.00000  Uiso   1.00
O515   O     0.75828   0.75000   0.28132   0.00000  Uiso   1.00
O516   O     0.90839   0.75001   0.21868   0.00000  Uiso   1.00
O517   O     0.75828   0.75000   0.19989   0.00000  Uiso   1.00
O518   O     0.90839   0.75000   0.30012   0.00000  Uiso   1.00
C519   C     0.99481   0.69564   0.20888   0.00000  Uiso   1.00
C520   C     0.69040   0.65486   0.22752   0.00000  Uiso   1.00
H521   H     0.68950   0.65089   0.26698   0.00000  Uiso   1.00
H522   H     0.73077   0.65790   0.21884   0.00000  Uiso   1.00
H523   H     0.67213   0.62456   0.20996   0.00000  Uiso   1.00
H524   H     0.95371   0.68663   0.21132   0.00000  Uiso   1.00
H525   H     0.99982   0.70095   0.17018   0.00000  Uiso   1.00
C526   C     0.67097   0.80550   0.28744   0.00000  Uiso   1.00
C527   C     0.67717   0.84263   0.25012   0.00000  Uiso   1.00
H528   H     0.70630   0.83464   0.22580   0.00000  Uiso   1.00
H529   H     0.97324   0.84771   0.22849   0.00000  Uiso   1.00
H530   H     0.68997   0.87410   0.26857   0.00000  Uiso   1.00
H531   H     0.97584   0.81608   0.31136   0.00000  Uiso   1.00
H532   H     0.70723   0.80284   0.31105   0.00000  Uiso   1.00
C533   C     0.77331   0.52245   0.32386   0.00000  Uiso   1.00
C534   C     0.71737   0.53542   0.32244   0.00000  Uiso   1.00
H535   H     0.69612   0.52755   0.28713   0.00000  Uiso   1.00
H536   H     0.71492   0.57134   0.32943   0.00000  Uiso   1.00
H537   H     0.69836   0.51636   0.35064   0.00000  Uiso   1.00
H538   H     0.77301   0.98584   0.32057   0.00000  Uiso   1.00
H539   H     0.79351   0.53073   0.35963   0.00000  Uiso   1.00
C540   C     0.76021   0.97117   0.17213   0.00000  Uiso   1.00
C541   C     0.71240   0.98892   0.19072   0.00000  Uiso   1.00
H542   H     0.69443   0.96378   0.21421   0.00000  Uiso   1.00
H543   H     0.72238   0.51994   0.21077   0.00000  Uiso   1.00
H544   H     0.68400   0.99684   0.15990   0.00000  Uiso   1.00
H545   H     0.78120   0.99830   0.15382   0.00000  Uiso   1.00
H546   H     0.74725   0.94636   0.14408   0.00000  Uiso   1.00
F547   F     0.87366   0.52657   0.18148   0.00000  Uiso   1.00
F548   F     0.88489   0.97765   0.31872   0.00000  Uiso   1.00
C549   C     0.89785   0.81673   0.13085   0.00000  Uiso   1.00
C550   C     0.87700   0.86302   0.12166   0.00000  Uiso   1.00
H551   H     0.88000   0.87379   0.08382   0.00000  Uiso   1.00
H552   H     0.83610   0.86311   0.12884   0.00000  Uiso   1.00
H553   H     0.89964   0.88733   0.14554   0.00000  Uiso   1.00
H554   H     0.90540   0.81110   0.16946   0.00000  Uiso   1.00
H555   H     0.93635   0.81627   0.11733   0.00000  Uiso   1.00
C556   C     0.75758   0.69248   0.36798   0.00000  Uiso   1.00
C557   C     0.70294   0.70667   0.37252   0.00000  Uiso   1.00
H558   H     0.69230   0.70049   0.40956   0.00000  Uiso   1.00
H559   H     0.69958   0.74247   0.36371   0.00000  Uiso   1.00
H560   H     0.67521   0.68726   0.34751   0.00000  Uiso   1.00
H561   H     0.76187   0.68852   0.33003   0.00000  Uiso   1.00
H562   H     0.76171   0.65860   0.38400   0.00000  Uiso   1.00
F563   F     0.77569   0.68744   0.12514   0.00000  Uiso   1.00
F564   F     0.90413   0.80150   0.37638   0.00000  Uiso   1.00
C565   C     0.16690   0.16501   0.75043   0.00000  Uiso   1.00
C566   C     0.16637   0.33491   0.74958   0.00000  Uiso   1.00
C567   C     0.19575   0.28099   0.55533   0.00000  Uiso   1.00
C568   C     0.13180   0.22386   0.94404   0.00000  Uiso   1.00
C569   C     0.19604   0.28125   0.60566   0.00000  Uiso   1.00
C570   C     0.13118   0.22385   0.89366   0.00000  Uiso   1.00
C571   C     0.13840   0.21814   0.60297   0.00000  Uiso   1.00
C572   C     0.20276   0.27528   0.89793   0.00000  Uiso   1.00
C573   C     0.13941   0.21621   0.55272   0.00000  Uiso   1.00
C574   C     0.20498   0.27453   0.94854   0.00000  Uiso   1.00
C575   C     0.16806   0.24834   0.52745   0.00000  Uiso   1.00
C576   C     0.16867   0.24883   0.97294   0.00000  Uiso   1.00
C577   C     0.06836   0.24822   0.73868   0.00000  Uiso   1.00
C578   C     0.26495   0.25168   0.76130   0.00000  Uiso   1.00
C579   C     0.01421   0.23775   0.73626   0.00000  Uiso   1.00
C580   C     0.31907   0.26151   0.76369   0.00000  Uiso   1.00
C581   C     0.13482   0.04643   0.78527   0.00000  Uiso   1.00
C582   C     0.12853   0.45016   0.71195   0.00000  Uiso   1.00
C583   C     0.14024   0.09287   0.78625   0.00000  Uiso   1.00
C584   C     0.13260   0.40399   0.71250   0.00000  Uiso   1.00
C585   C     0.16488   0.11658   0.75094   0.00000  Uiso   1.00
C586   C     0.16409   0.38303   0.74862   0.00000  Uiso   1.00
C587   C     0.18619   0.09396   0.71519   0.00000  Uiso   1.00
C588   C     0.19215   0.40796   0.78461   0.00000  Uiso   1.00
C589   C     0.18330   0.04789   0.71481   0.00000  Uiso   1.00
C590   C     0.18944   0.45384   0.78423   0.00000  Uiso   1.00
C591   C     0.15711   0.02383   0.74907   0.00000  Uiso   1.00
C592   C     0.15743   0.47521   0.74849   0.00000  Uiso   1.00
Cu593  Cu    0.16667   0.25000   0.79822   0.00000  Uiso   1.00
Cu594  Cu    0.16667   0.25001   0.70179   0.00000  Uiso   1.00
H595   H     0.12430   0.11066   0.81409   0.00000  Uiso   1.00
H596   H     0.11020   0.38408   0.68540   0.00000  Uiso   1.00
H597   H     0.20607   0.11198   0.68813   0.00000  Uiso   1.00
H598   H     0.21677   0.39190   0.81258   0.00000  Uiso   1.00
H599   H     0.21778   0.30698   0.53852   0.00000  Uiso   1.00
H600   H     0.10267   0.20385   0.96012   0.00000  Uiso   1.00
H601   H     0.11782   0.18903   0.53458   0.00000  Uiso   1.00
H602   H     0.23575   0.29400   0.96775   0.00000  Uiso   1.00
N603   N     0.16667   0.25001   0.62935   0.00000  Uiso   1.00
N604   N     0.16667   0.24999   0.87066   0.00000  Uiso   1.00
O605   O     0.16667   0.18573   0.79072   0.00000  Uiso   1.00
O606   O     0.16666   0.31428   0.70929   0.00000  Uiso   1.00
O607   O     0.16667   0.18573   0.70928   0.00000  Uiso   1.00
O608   O     0.16666   0.31427   0.79072   0.00000  Uiso   1.00
O609   O     0.09161   0.25000   0.78132   0.00000  Uiso   1.00
O610   O     0.24172   0.25001   0.71868   0.00000  Uiso   1.00
O611   O     0.09161   0.25000   0.69989   0.00000  Uiso   1.00
O612   O     0.24172   0.25000   0.80012   0.00000  Uiso   1.00
C613   C     0.32814   0.19564   0.70888   0.00000  Uiso   1.00
C614   C     0.02374   0.15486   0.72752   0.00000  Uiso   1.00
H615   H     0.02283   0.15089   0.76698   0.00000  Uiso   1.00
H616   H     0.06410   0.15790   0.71884   0.00000  Uiso   1.00
H617   H     0.00547   0.12456   0.70996   0.00000  Uiso   1.00
H618   H     0.28704   0.18663   0.71132   0.00000  Uiso   1.00
H619   H     0.33315   0.20095   0.67018   0.00000  Uiso   1.00
C620   C     0.00430   0.30550   0.78744   0.00000  Uiso   1.00
C621   C     0.01051   0.34263   0.75012   0.00000  Uiso   1.00
H622   H     0.03963   0.33464   0.72580   0.00000  Uiso   1.00
H623   H     0.30658   0.34771   0.72849   0.00000  Uiso   1.00
H624   H     0.02330   0.37410   0.76857   0.00000  Uiso   1.00
H625   H     0.30918   0.31608   0.81136   0.00000  Uiso   1.00
H626   H     0.04056   0.30284   0.81105   0.00000  Uiso   1.00
C627   C     0.10664   0.02245   0.82386   0.00000  Uiso   1.00
C628   C     0.05070   0.03542   0.82244   0.00000  Uiso   1.00
H629   H     0.02945   0.02755   0.78713   0.00000  Uiso   1.00
H630   H     0.04826   0.07134   0.82943   0.00000  Uiso   1.00
H631   H     0.03169   0.01636   0.85064   0.00000  Uiso   1.00
H632   H     0.10635   0.48584   0.82057   0.00000  Uiso   1.00
H633   H     0.12685   0.03073   0.85963   0.00000  Uiso   1.00
C634   C     0.09354   0.47117   0.67213   0.00000  Uiso   1.00
C635   C     0.04574   0.48892   0.69072   0.00000  Uiso   1.00
H636   H     0.02776   0.46378   0.71421   0.00000  Uiso   1.00
H637   H     0.05571   0.01994   0.71077   0.00000  Uiso   1.00
H638   H     0.01733   0.49684   0.65990   0.00000  Uiso   1.00
H639   H     0.11454   0.49830   0.65382   0.00000  Uiso   1.00
H640   H     0.08059   0.44636   0.64408   0.00000  Uiso   1.00
F641   F     0.20699   0.02657   0.68148   0.00000  Uiso   1.00
F642   F     0.21822   0.47765   0.81872   0.00000  Uiso   1.00
C643   C     0.23119   0.31673   0.63085   0.00000  Uiso   1.00
C644   C     0.21033   0.36302   0.62166   0.00000  Uiso   1.00
H645   H     0.21333   0.37379   0.58382   0.00000  Uiso   1.00
H646   H     0.16944   0.36311   0.62884   0.00000  Uiso   1.00
H647   H     0.23297   0.38733   0.64554   0.00000  Uiso   1.00
H648   H     0.23873   0.31110   0.66946   0.00000  Uiso   1.00
H649   H     0.26969   0.31627   0.61733   0.00000  Uiso   1.00
C650   C     0.09091   0.19248   0.86798   0.00000  Uiso   1.00
C651   C     0.03627   0.20667   0.87252   0.00000  Uiso   1.00
H652   H     0.02563   0.20049   0.90956   0.00000  Uiso   1.00
H653   H     0.03291   0.24247   0.86371   0.00000  Uiso   1.00
H654   H     0.00854   0.18726   0.84751   0.00000  Uiso   1.00
H655   H     0.09520   0.18852   0.83003   0.00000  Uiso   1.00
H656   H     0.09505   0.15860   0.88400   0.00000  Uiso   1.00
F657   F     0.10903   0.18744   0.62514   0.00000  Uiso   1.00
F658   F     0.23746   0.30150   0.87638   0.00000  Uiso   1.00
C659   C     0.50024   0.16501   0.75043   0.00000  Uiso   1.00
C660   C     0.49970   0.33491   0.74958   0.00000  Uiso   1.00
C661   C     0.52908   0.28099   0.55533   0.00000  Uiso   1.00
C662   C     0.46514   0.22386   0.94404   0.00000  Uiso   1.00
C663   C     0.52937   0.28125   0.60566   0.00000  Uiso   1.00
C664   C     0.46451   0.22385   0.89366   0.00000  Uiso   1.00
C665   C     0.47174   0.21814   0.60297   0.00000  Uiso   1.00
C666   C     0.53610   0.27528   0.89793   0.00000  Uiso   1.00
C667   C     0.47275   0.21621   0.55272   0.00000  Uiso   1.00
C668   C     0.53831   0.27453   0.94854   0.00000  Uiso   1.00
C669   C     0.50139   0.24834   0.52745   0.00000  Uiso   1.00
C670   C     0.50200   0.24883   0.97294   0.00000  Uiso   1.00
C671   C     0.40169   0.24822   0.73868   0.00000  Uiso   1.00
C672   C     0.59828   0.25168   0.76130   0.00000  Uiso   1.00
C673   C     0.34755   0.23775   0.73626   0.00000  Uiso   1.00
C674   C     0.65241   0.26151   0.76369   0.00000  Uiso   1.00
C675   C     0.46815   0.04643   0.78527   0.00000  Uiso   1.00
C676   C     0.46187   0.45016   0.71195   0.00000  Uiso   1.00
C677   C     0.47357   0.09287   0.78625   0.00000  Uiso   1.00
C678   C     0.46593   0.40399   0.71250   0.00000  Uiso   1.00
C679   C     0.49822   0.11658   0.75094   0.00000  Uiso   1.00
C680   C     0.49742   0.38303   0.74862   0.00000  Uiso   1.00
C681   C     0.51952   0.09396   0.71519   0.00000  Uiso   1.00
C682   C     0.52549   0.40796   0.78461   0.00000  Uiso   1.00
C683   C     0.51663   0.04789   0.71481   0.00000  Uiso   1.00
C684   C     0.52277   0.45384   0.78423   0.00000  Uiso   1.00
C685   C     0.49044   0.02383   0.74907   0.00000  Uiso   1.00
C686   C     0.49076   0.47521   0.74849   0.00000  Uiso   1.00
Cu687  Cu    0.50000   0.25000   0.79822   0.00000  Uiso   1.00
Cu688  Cu    0.50000   0.25001   0.70179   0.00000  Uiso   1.00
H689   H     0.45763   0.11066   0.81409   0.00000  Uiso   1.00
H690   H     0.44353   0.38408   0.68540   0.00000  Uiso   1.00
H691   H     0.53940   0.11198   0.68813   0.00000  Uiso   1.00
H692   H     0.55010   0.39190   0.81258   0.00000  Uiso   1.00
H693   H     0.55111   0.30698   0.53852   0.00000  Uiso   1.00
H694   H     0.43600   0.20385   0.96012   0.00000  Uiso   1.00
H695   H     0.45116   0.18903   0.53458   0.00000  Uiso   1.00
H696   H     0.56909   0.29400   0.96775   0.00000  Uiso   1.00
N697   N     0.50000   0.25001   0.62935   0.00000  Uiso   1.00
N698   N     0.50000   0.24999   0.87066   0.00000  Uiso   1.00
O699   O     0.50000   0.18573   0.79072   0.00000  Uiso   1.00
O700   O     0.50000   0.31428   0.70929   0.00000  Uiso   1.00
O701   O     0.50000   0.18573   0.70928   0.00000  Uiso   1.00
O702   O     0.50000   0.31427   0.79072   0.00000  Uiso   1.00
O703   O     0.42495   0.25000   0.78132   0.00000  Uiso   1.00
O704   O     0.57505   0.25001   0.71868   0.00000  Uiso   1.00
O705   O     0.42495   0.25000   0.69989   0.00000  Uiso   1.00
O706   O     0.57505   0.25000   0.80012   0.00000  Uiso   1.00
C707   C     0.66147   0.19564   0.70888   0.00000  Uiso   1.00
C708   C     0.35707   0.15486   0.72752   0.00000  Uiso   1.00
H709   H     0.35616   0.15089   0.76698   0.00000  Uiso   1.00
H710   H     0.39743   0.15790   0.71884   0.00000  Uiso   1.00
H711   H     0.33880   0.12456   0.70996   0.00000  Uiso   1.00
H712   H     0.62038   0.18663   0.71132   0.00000  Uiso   1.00
H713   H     0.66649   0.20095   0.67018   0.00000  Uiso   1.00
C714   C     0.33764   0.30550   0.78744   0.00000  Uiso   1.00
C715   C     0.34384   0.34263   0.75012   0.00000  Uiso   1.00
H716   H     0.37297   0.33464   0.72580   0.00000  Uiso   1.00
H717   H     0.63991   0.34771   0.72849   0.00000  Uiso   1.00
H718   H     0.35663   0.37410   0.76857   0.00000  Uiso   1.00
H719   H     0.64251   0.31608   0.81136   0.00000  Uiso   1.00
H720   H     0.37390   0.30284   0.81105   0.00000  Uiso   1.00
C721   C     0.43998   0.02245   0.82386   0.00000  Uiso   1.00
C722   C     0.38403   0.03542   0.82244   0.00000  Uiso   1.00
H723   H     0.36278   0.02755   0.78713   0.00000  Uiso   1.00
H724   H     0.38159   0.07134   0.82943   0.00000  Uiso   1.00
H725   H     0.36503   0.01636   0.85064   0.00000  Uiso   1.00
H726   H     0.43968   0.48584   0.82057   0.00000  Uiso   1.00
H727   H     0.46018   0.03073   0.85963   0.00000  Uiso   1.00
C728   C     0.42688   0.47117   0.67213   0.00000  Uiso   1.00
C729   C     0.37907   0.48892   0.69072   0.00000  Uiso   1.00
H730   H     0.36109   0.46378   0.71421   0.00000  Uiso   1.00
H731   H     0.38905   0.01994   0.71077   0.00000  Uiso   1.00
H732   H     0.35067   0.49684   0.65990   0.00000  Uiso   1.00
H733   H     0.44787   0.49830   0.65382   0.00000  Uiso   1.00
H734   H     0.41392   0.44636   0.64408   0.00000  Uiso   1.00
F735   F     0.54033   0.02657   0.68148   0.00000  Uiso   1.00
F736   F     0.55156   0.47765   0.81872   0.00000  Uiso   1.00
C737   C     0.56452   0.31673   0.63085   0.00000  Uiso   1.00
C738   C     0.54366   0.36302   0.62166   0.00000  Uiso   1.00
H739   H     0.54667   0.37379   0.58382   0.00000  Uiso   1.00
H740   H     0.50277   0.36311   0.62884   0.00000  Uiso   1.00
H741   H     0.56631   0.38733   0.64554   0.00000  Uiso   1.00
H742   H     0.57206   0.31110   0.66946   0.00000  Uiso   1.00
H743   H     0.60302   0.31627   0.61733   0.00000  Uiso   1.00
C744   C     0.42425   0.19248   0.86798   0.00000  Uiso   1.00
C745   C     0.36960   0.20667   0.87252   0.00000  Uiso   1.00
H746   H     0.35897   0.20049   0.90956   0.00000  Uiso   1.00
H747   H     0.36624   0.24247   0.86371   0.00000  Uiso   1.00
H748   H     0.34187   0.18726   0.84751   0.00000  Uiso   1.00
H749   H     0.42853   0.18852   0.83003   0.00000  Uiso   1.00
H750   H     0.42838   0.15860   0.88400   0.00000  Uiso   1.00
F751   F     0.44236   0.18744   0.62514   0.00000  Uiso   1.00
F752   F     0.57080   0.30150   0.87638   0.00000  Uiso   1.00
C753   C     0.83357   0.16501   0.75043   0.00000  Uiso   1.00
C754   C     0.83304   0.33491   0.74958   0.00000  Uiso   1.00
C755   C     0.86241   0.28099   0.55533   0.00000  Uiso   1.00
C756   C     0.79847   0.22386   0.94404   0.00000  Uiso   1.00
C757   C     0.86271   0.28125   0.60566   0.00000  Uiso   1.00
C758   C     0.79784   0.22385   0.89366   0.00000  Uiso   1.00
C759   C     0.80507   0.21814   0.60297   0.00000  Uiso   1.00
C760   C     0.86943   0.27528   0.89793   0.00000  Uiso   1.00
C761   C     0.80608   0.21621   0.55272   0.00000  Uiso   1.00
C762   C     0.87165   0.27453   0.94854   0.00000  Uiso   1.00
C763   C     0.83472   0.24834   0.52745   0.00000  Uiso   1.00
C764   C     0.83534   0.24883   0.97294   0.00000  Uiso   1.00
C765   C     0.73502   0.24822   0.73868   0.00000  Uiso   1.00
C766   C     0.93162   0.25168   0.76130   0.00000  Uiso   1.00
C767   C     0.68088   0.23775   0.73626   0.00000  Uiso   1.00
C768   C     0.98574   0.26151   0.76369   0.00000  Uiso   1.00
C769   C     0.80149   0.04643   0.78527   0.00000  Uiso   1.00
C770   C     0.79520   0.45016   0.71195   0.00000  Uiso   1.00
C771   C     0.80690   0.09287   0.78625   0.00000  Uiso   1.00
C772   C     0.79926   0.40399   0.71250   0.00000  Uiso   1.00
C773   C     0.83155   0.11658   0.75094   0.00000  Uiso   1.00
C774   C     0.83075   0.38303   0.74862   0.00000  Uiso   1.00
C775   C     0.85286   0.09396   0.71519   0.00000  Uiso   1.00
C776   C     0.85882   0.40796   0.78461   0.00000  Uiso   1.00
C777   C     0.84997   0.04789   0.71481   0.00000  Uiso   1.00
C778   C     0.85610   0.45384   0.78423   0.00000  Uiso   1.00
C779   C     0.82377   0.02383   0.74907   0.00000  Uiso   1.00
C780   C     0.82410   0.47521   0.74849   0.00000  Uiso   1.00
Cu781  Cu    0.83333   0.25000   0.79822   0.00000  Uiso   1.00
Cu782  Cu    0.83333   0.25001   0.70179   0.00000  Uiso   1.00
H783   H     0.79096   0.11066   0.81409   0.00000  Uiso   1.00
H784   H     0.77687   0.38408   0.68540   0.00000  Uiso   1.00
H785   H     0.87274   0.11198   0.68813   0.00000  Uiso   1.00
H786   H     0.88343   0.39190   0.81258   0.00000  Uiso   1.00
H787   H     0.88444   0.30698   0.53852   0.00000  Uiso   1.00
H788   H     0.76933   0.20385   0.96012   0.00000  Uiso   1.00
H789   H     0.78449   0.18903   0.53458   0.00000  Uiso   1.00
H790   H     0.90242   0.29400   0.96775   0.00000  Uiso   1.00
N791   N     0.83333   0.25001   0.62935   0.00000  Uiso   1.00
N792   N     0.83333   0.24999   0.87066   0.00000  Uiso   1.00
O793   O     0.83334   0.18573   0.79072   0.00000  Uiso   1.00
O794   O     0.83333   0.31428   0.70929   0.00000  Uiso   1.00
O795   O     0.83334   0.18573   0.70928   0.00000  Uiso   1.00
O796   O     0.83333   0.31427   0.79072   0.00000  Uiso   1.00
O797   O     0.75828   0.25000   0.78132   0.00000  Uiso   1.00
O798   O     0.90839   0.25001   0.71868   0.00000  Uiso   1.00
O799   O     0.75828   0.25000   0.69989   0.00000  Uiso   1.00
O800   O     0.90839   0.25000   0.80012   0.00000  Uiso   1.00
C801   C     0.99481   0.19564   0.70888   0.00000  Uiso   1.00
C802   C     0.69040   0.15486   0.72752   0.00000  Uiso   1.00
H803   H     0.68950   0.15089   0.76698   0.00000  Uiso   1.00
H804   H     0.73077   0.15790   0.71884   0.00000  Uiso   1.00
H805   H     0.67213   0.12456   0.70996   0.00000  Uiso   1.00
H806   H     0.95371   0.18663   0.71132   0.00000  Uiso   1.00
H807   H     0.99982   0.20095   0.67018   0.00000  Uiso   1.00
C808   C     0.67097   0.30550   0.78744   0.00000  Uiso   1.00
C809   C     0.67717   0.34263   0.75012   0.00000  Uiso   1.00
H810   H     0.70630   0.33464   0.72580   0.00000  Uiso   1.00
H811   H     0.97324   0.34771   0.72849   0.00000  Uiso   1.00
H812   H     0.68997   0.37410   0.76857   0.00000  Uiso   1.00
H813   H     0.97584   0.31608   0.81136   0.00000  Uiso   1.00
H814   H     0.70723   0.30284   0.81105   0.00000  Uiso   1.00
C815   C     0.77331   0.02245   0.82386   0.00000  Uiso   1.00
C816   C     0.71737   0.03542   0.82244   0.00000  Uiso   1.00
H817   H     0.69612   0.02755   0.78713   0.00000  Uiso   1.00
H818   H     0.71492   0.07134   0.82943   0.00000  Uiso   1.00
H819   H     0.69836   0.01636   0.85064   0.00000  Uiso   1.00
H820   H     0.77301   0.48584   0.82057   0.00000  Uiso   1.00
H821   H     0.79351   0.03073   0.85963   0.00000  Uiso   1.00
C822   C     0.76021   0.47117   0.67213   0.00000  Uiso   1.00
C823   C     0.71240   0.48892   0.69072   0.00000  Uiso   1.00
H824   H     0.69443   0.46378   0.71421   0.00000  Uiso   1.00
H825   H     0.72238   0.01994   0.71077   0.00000  Uiso   1.00
H826   H     0.68400   0.49684   0.65990   0.00000  Uiso   1.00
H827   H     0.78120   0.49830   0.65382   0.00000  Uiso   1.00
H828   H     0.74725   0.44636   0.64408   0.00000  Uiso   1.00
F829   F     0.87366   0.02657   0.68148   0.00000  Uiso   1.00
F830   F     0.88489   0.47765   0.81872   0.00000  Uiso   1.00
C831   C     0.89785   0.31673   0.63085   0.00000  Uiso   1.00
C832   C     0.87700   0.36302   0.62166   0.00000  Uiso   1.00
H833   H     0.88000   0.37379   0.58382   0.00000  Uiso   1.00
H834   H     0.83610   0.36311   0.62884   0.00000  Uiso   1.00
H835   H     0.89964   0.38733   0.64554   0.00000  Uiso   1.00
H836   H     0.90540   0.31110   0.66946   0.00000  Uiso   1.00
H837   H     0.93635   0.31627   0.61733   0.00000  Uiso   1.00
C838   C     0.75758   0.19248   0.86798   0.00000  Uiso   1.00
C839   C     0.70294   0.20667   0.87252   0.00000  Uiso   1.00
H840   H     0.69230   0.20049   0.90956   0.00000  Uiso   1.00
H841   H     0.69958   0.24247   0.86371   0.00000  Uiso   1.00
H842   H     0.67521   0.18726   0.84751   0.00000  Uiso   1.00
H843   H     0.76187   0.18852   0.83003   0.00000  Uiso   1.00
H844   H     0.76171   0.15860   0.88400   0.00000  Uiso   1.00
F845   F     0.77569   0.18744   0.62514   0.00000  Uiso   1.00
F846   F     0.90413   0.30150   0.87638   0.00000  Uiso   1.00
C847   C     0.16690   0.66501   0.75043   0.00000  Uiso   1.00
C848   C     0.16637   0.83491   0.74958   0.00000  Uiso   1.00
C849   C     0.19575   0.78099   0.55533   0.00000  Uiso   1.00
C850   C     0.13180   0.72386   0.94404   0.00000  Uiso   1.00
C851   C     0.19604   0.78125   0.60566   0.00000  Uiso   1.00
C852   C     0.13118   0.72385   0.89366   0.00000  Uiso   1.00
C853   C     0.13840   0.71814   0.60297   0.00000  Uiso   1.00
C854   C     0.20276   0.77528   0.89793   0.00000  Uiso   1.00
C855   C     0.13941   0.71621   0.55272   0.00000  Uiso   1.00
C856   C     0.20498   0.77453   0.94854   0.00000  Uiso   1.00
C857   C     0.16806   0.74834   0.52745   0.00000  Uiso   1.00
C858   C     0.16867   0.74883   0.97294   0.00000  Uiso   1.00
C859   C     0.06836   0.74822   0.73868   0.00000  Uiso   1.00
C860   C     0.26495   0.75168   0.76130   0.00000  Uiso   1.00
C861   C     0.01421   0.73775   0.73626   0.00000  Uiso   1.00
C862   C     0.31907   0.76151   0.76369   0.00000  Uiso   1.00
C863   C     0.13482   0.54643   0.78527   0.00000  Uiso   1.00
C864   C     0.12853   0.95016   0.71195   0.00000  Uiso   1.00
C865   C     0.14024   0.59287   0.78625   0.00000  Uiso   1.00
C866   C     0.13260   0.90399   0.71250   0.00000  Uiso   1.00
C867   C     0.16488   0.61658   0.75094   0.00000  Uiso   1.00
C868   C     0.16409   0.88303   0.74862   0.00000  Uiso   1.00
C869   C     0.18619   0.59396   0.71519   0.00000  Uiso   1.00
C870   C     0.19215   0.90796   0.78461   0.00000  Uiso   1.00
C871   C     0.18330   0.54789   0.71481   0.00000  Uiso   1.00
C872   C     0.18944   0.95384   0.78423   0.00000  Uiso   1.00
C873   C     0.15711   0.52383   0.74907   0.00000  Uiso   1.00
C874   C     0.15743   0.97521   0.74849   0.00000  Uiso   1.00
Cu875  Cu    0.16667   0.75000   0.79822   0.00000  Uiso   1.00
Cu876  Cu    0.16667   0.75001   0.70179   0.00000  Uiso   1.00
H877   H     0.12430   0.61066   0.81409   0.00000  Uiso   1.00
H878   H     0.11020   0.88408   0.68540   0.00000  Uiso   1.00
H879   H     0.20607   0.61198   0.68813   0.00000  Uiso   1.00
H880   H     0.21677   0.89190   0.81258   0.00000  Uiso   1.00
H881   H     0.21778   0.80698   0.53852   0.00000  Uiso   1.00
H882   H     0.10267   0.70385   0.96012   0.00000  Uiso   1.00
H883   H     0.11782   0.68903   0.53458   0.00000  Uiso   1.00
H884   H     0.23575   0.79400   0.96775   0.00000  Uiso   1.00
N885   N     0.16667   0.75001   0.62935   0.00000  Uiso   1.00
N886   N     0.16667   0.74999   0.87066   0.00000  Uiso   1.00
O887   O     0.16667   0.68573   0.79072   0.00000  Uiso   1.00
O888   O     0.16666   0.81428   0.70929   0.00000  Uiso   1.00
O889   O     0.16667   0.68573   0.70928   0.00000  Uiso   1.00
O890   O     0.16666   0.81427   0.79072   0.00000  Uiso   1.00
O891   O     0.09161   0.75000   0.78132   0.00000  Uiso   1.00
O892   O     0.24172   0.75001   0.71868   0.00000  Uiso   1.00
O893   O     0.09161   0.75000   0.69989   0.00000  Uiso   1.00
O894   O     0.24172   0.75000   0.80012   0.00000  Uiso   1.00
C895   C     0.32814   0.69564   0.70888   0.00000  Uiso   1.00
C896   C     0.02374   0.65486   0.72752   0.00000  Uiso   1.00
H897   H     0.02283   0.65089   0.76698   0.00000  Uiso   1.00
H898   H     0.06410   0.65790   0.71884   0.00000  Uiso   1.00
H899   H     0.00547   0.62456   0.70996   0.00000  Uiso   1.00
H900   H     0.28704   0.68663   0.71132   0.00000  Uiso   1.00
H901   H     0.33315   0.70095   0.67018   0.00000  Uiso   1.00
C902   C     0.00430   0.80550   0.78744   0.00000  Uiso   1.00
C903   C     0.01051   0.84263   0.75012   0.00000  Uiso   1.00
H904   H     0.03963   0.83464   0.72580   0.00000  Uiso   1.00
H905   H     0.30658   0.84771   0.72849   0.00000  Uiso   1.00
H906   H     0.02330   0.87410   0.76857   0.00000  Uiso   1.00
H907   H     0.30918   0.81608   0.81136   0.00000  Uiso   1.00
H908   H     0.04056   0.80284   0.81105   0.00000  Uiso   1.00
C909   C     0.10664   0.52245   0.82386   0.00000  Uiso   1.00
C910   C     0.05070   0.53542   0.82244   0.00000  Uiso   1.00
H911   H     0.02945   0.52755   0.78713   0.00000  Uiso   1.00
H912   H     0.04826   0.57134   0.82943   0.00000  Uiso   1.00
H913   H     0.03169   0.51636   0.85064   0.00000  Uiso   1.00
H914   H     0.10635   0.98584   0.82057   0.00000  Uiso   1.00
H915   H     0.12685   0.53073   0.85963   0.00000  Uiso   1.00
C916   C     0.09354   0.97117   0.67213   0.00000  Uiso   1.00
C917   C     0.04574   0.98892   0.69072   0.00000  Uiso   1.00
H918   H     0.02776   0.96378   0.71421   0.00000  Uiso   1.00
H919   H     0.05571   0.51994   0.71077   0.00000  Uiso   1.00
H920   H     0.01733   0.99684   0.65990   0.00000  Uiso   1.00
H921   H     0.11454   0.99830   0.65382   0.00000  Uiso   1.00
H922   H     0.08059   0.94636   0.64408   0.00000  Uiso   1.00
F923   F     0.20699   0.52657   0.68148   0.00000  Uiso   1.00
F924   F     0.21822   0.97765   0.81872   0.00000  Uiso   1.00
C925   C     0.23119   0.81673   0.63085   0.00000  Uiso   1.00
C926   C     0.21033   0.86302   0.62166   0.00000  Uiso   1.00
H927   H     0.21333   0.87379   0.58382   0.00000  Uiso   1.00
H928   H     0.16944   0.86311   0.62884   0.00000  Uiso   1.00
H929   H     0.23297   0.88733   0.64554   0.00000  Uiso   1.00
H930   H     0.23873   0.81110   0.66946   0.00000  Uiso   1.00
H931   H     0.26969   0.81627   0.61733   0.00000  Uiso   1.00
C932   C     0.09091   0.69248   0.86798   0.00000  Uiso   1.00
C933   C     0.03627   0.70667   0.87252   0.00000  Uiso   1.00
H934   H     0.02563   0.70049   0.90956   0.00000  Uiso   1.00
H935   H     0.03291   0.74247   0.86371   0.00000  Uiso   1.00
H936   H     0.00854   0.68726   0.84751   0.00000  Uiso   1.00
H937   H     0.09520   0.68852   0.83003   0.00000  Uiso   1.00
H938   H     0.09505   0.65860   0.88400   0.00000  Uiso   1.00
F939   F     0.10903   0.68744   0.62514   0.00000  Uiso   1.00
F940   F     0.23746   0.80150   0.87638   0.00000  Uiso   1.00
C941   C     0.50024   0.66501   0.75043   0.00000  Uiso   1.00
C942   C     0.49970   0.83491   0.74958   0.00000  Uiso   1.00
C943   C     0.52908   0.78099   0.55533   0.00000  Uiso   1.00
C944   C     0.46514   0.72386   0.94404   0.00000  Uiso   1.00
C945   C     0.52937   0.78125   0.60566   0.00000  Uiso   1.00
C946   C     0.46451   0.72385   0.89366   0.00000  Uiso   1.00
C947   C     0.47174   0.71814   0.60297   0.00000  Uiso   1.00
C948   C     0.53610   0.77528   0.89793   0.00000  Uiso   1.00
C949   C     0.47275   0.71621   0.55272   0.00000  Uiso   1.00
C950   C     0.53831   0.77453   0.94854   0.00000  Uiso   1.00
C951   C     0.50139   0.74834   0.52745   0.00000  Uiso   1.00
C952   C     0.50200   0.74883   0.97294   0.00000  Uiso   1.00
C953   C     0.40169   0.74822   0.73868   0.00000  Uiso   1.00
C954   C     0.59828   0.75168   0.76130   0.00000  Uiso   1.00
C955   C     0.34755   0.73775   0.73626   0.00000  Uiso   1.00
C956   C     0.65241   0.76151   0.76369   0.00000  Uiso   1.00
C957   C     0.46815   0.54643   0.78527   0.00000  Uiso   1.00
C958   C     0.46187   0.95016   0.71195   0.00000  Uiso   1.00
C959   C     0.47357   0.59287   0.78625   0.00000  Uiso   1.00
C960   C     0.46593   0.90399   0.71250   0.00000  Uiso   1.00
C961   C     0.49822   0.61658   0.75094   0.00000  Uiso   1.00
C962   C     0.49742   0.88303   0.74862   0.00000  Uiso   1.00
C963   C     0.51952   0.59396   0.71519   0.00000  Uiso   1.00
C964   C     0.52549   0.90796   0.78461   0.00000  Uiso   1.00
C965   C     0.51663   0.54789   0.71481   0.00000  Uiso   1.00
C966   C     0.52277   0.95384   0.78423   0.00000  Uiso   1.00
C967   C     0.49044   0.52383   0.74907   0.00000  Uiso   1.00
C968   C     0.49076   0.97521   0.74849   0.00000  Uiso   1.00
Cu969  Cu    0.50000   0.75000   0.79822   0.00000  Uiso   1.00
Cu970  Cu    0.50000   0.75001   0.70179   0.00000  Uiso   1.00
H971   H     0.45763   0.61066   0.81409   0.00000  Uiso   1.00
H972   H     0.44353   0.88408   0.68540   0.00000  Uiso   1.00
H973   H     0.53940   0.61198   0.68813   0.00000  Uiso   1.00
H974   H     0.55010   0.89190   0.81258   0.00000  Uiso   1.00
H975   H     0.55111   0.80698   0.53852   0.00000  Uiso   1.00
H976   H     0.43600   0.70385   0.96012   0.00000  Uiso   1.00
H977   H     0.45116   0.68903   0.53458   0.00000  Uiso   1.00
H978   H     0.56909   0.79400   0.96775   0.00000  Uiso   1.00
N979   N     0.50000   0.75001   0.62935   0.00000  Uiso   1.00
N980   N     0.50000   0.74999   0.87066   0.00000  Uiso   1.00
O981   O     0.50000   0.68573   0.79072   0.00000  Uiso   1.00
O982   O     0.50000   0.81428   0.70929   0.00000  Uiso   1.00
O983   O     0.50000   0.68573   0.70928   0.00000  Uiso   1.00
O984   O     0.50000   0.81427   0.79072   0.00000  Uiso   1.00
O985   O     0.42495   0.75000   0.78132   0.00000  Uiso   1.00
O986   O     0.57505   0.75001   0.71868   0.00000  Uiso   1.00
O987   O     0.42495   0.75000   0.69989   0.00000  Uiso   1.00
O988   O     0.57505   0.75000   0.80012   0.00000  Uiso   1.00
C989   C     0.66147   0.69564   0.70888   0.00000  Uiso   1.00
C990   C     0.35707   0.65486   0.72752   0.00000  Uiso   1.00
H991   H     0.35616   0.65089   0.76698   0.00000  Uiso   1.00
H992   H     0.39743   0.65790   0.71884   0.00000  Uiso   1.00
H993   H     0.33880   0.62456   0.70996   0.00000  Uiso   1.00
H994   H     0.62038   0.68663   0.71132   0.00000  Uiso   1.00
H995   H     0.66649   0.70095   0.67018   0.00000  Uiso   1.00
C996   C     0.33764   0.80550   0.78744   0.00000  Uiso   1.00
C997   C     0.34384   0.84263   0.75012   0.00000  Uiso   1.00
H998   H     0.37297   0.83464   0.72580   0.00000  Uiso   1.00
H999   H     0.63991   0.84771   0.72849   0.00000  Uiso   1.00
H1000  H     0.35663   0.87410   0.76857   0.00000  Uiso   1.00
H1001  H     0.64251   0.81608   0.81136   0.00000  Uiso   1.00
H1002  H     0.37390   0.80284   0.81105   0.00000  Uiso   1.00
C1003  C     0.43998   0.52245   0.82386   0.00000  Uiso   1.00
C1004  C     0.38403   0.53542   0.82244   0.00000  Uiso   1.00
H1005  H     0.36278   0.52755   0.78713   0.00000  Uiso   1.00
H1006  H     0.38159   0.57134   0.82943   0.00000  Uiso   1.00
H1007  H     0.36503   0.51636   0.85064   0.00000  Uiso   1.00
H1008  H     0.43968   0.98584   0.82057   0.00000  Uiso   1.00
H1009  H     0.46018   0.53073   0.85963   0.00000  Uiso   1.00
C1010  C     0.42688   0.97117   0.67213   0.00000  Uiso   1.00
C1011  C     0.37907   0.98892   0.69072   0.00000  Uiso   1.00
H1012  H     0.36109   0.96378   0.71421   0.00000  Uiso   1.00
H1013  H     0.38905   0.51994   0.71077   0.00000  Uiso   1.00
H1014  H     0.35067   0.99684   0.65990   0.00000  Uiso   1.00
H1015  H     0.44787   0.99830   0.65382   0.00000  Uiso   1.00
H1016  H     0.41392   0.94636   0.64408   0.00000  Uiso   1.00
F1017  F     0.54033   0.52657   0.68148   0.00000  Uiso   1.00
F1018  F     0.55156   0.97765   0.81872   0.00000  Uiso   1.00
C1019  C     0.56452   0.81673   0.63085   0.00000  Uiso   1.00
C1020  C     0.54366   0.86302   0.62166   0.00000  Uiso   1.00
H1021  H     0.54667   0.87379   0.58382   0.00000  Uiso   1.00
H1022  H     0.50277   0.86311   0.62884   0.00000  Uiso   1.00
H1023  H     0.56631   0.88733   0.64554   0.00000  Uiso   1.00
H1024  H     0.57206   0.81110   0.66946   0.00000  Uiso   1.00
H1025  H     0.60302   0.81627   0.61733   0.00000  Uiso   1.00
C1026  C     0.42425   0.69248   0.86798   0.00000  Uiso   1.00
C1027  C     0.36960   0.70667   0.87252   0.00000  Uiso   1.00
H1028  H     0.35897   0.70049   0.90956   0.00000  Uiso   1.00
H1029  H     0.36624   0.74247   0.86371   0.00000  Uiso   1.00
H1030  H     0.34187   0.68726   0.84751   0.00000  Uiso   1.00
H1031  H     0.42853   0.68852   0.83003   0.00000  Uiso   1.00
H1032  H     0.42838   0.65860   0.88400   0.00000  Uiso   1.00
F1033  F     0.44236   0.68744   0.62514   0.00000  Uiso   1.00
F1034  F     0.57080   0.80150   0.87638   0.00000  Uiso   1.00
C1035  C     0.83357   0.66501   0.75043   0.00000  Uiso   1.00
C1036  C     0.83304   0.83491   0.74958   0.00000  Uiso   1.00
C1037  C     0.86241   0.78099   0.55533   0.00000  Uiso   1.00
C1038  C     0.79847   0.72386   0.94404   0.00000  Uiso   1.00
C1039  C     0.86271   0.78125   0.60566   0.00000  Uiso   1.00
C1040  C     0.79784   0.72385   0.89366   0.00000  Uiso   1.00
C1041  C     0.80507   0.71814   0.60297   0.00000  Uiso   1.00
C1042  C     0.86943   0.77528   0.89793   0.00000  Uiso   1.00
C1043  C     0.80608   0.71621   0.55272   0.00000  Uiso   1.00
C1044  C     0.87165   0.77453   0.94854   0.00000  Uiso   1.00
C1045  C     0.83472   0.74834   0.52745   0.00000  Uiso   1.00
C1046  C     0.83534   0.74883   0.97294   0.00000  Uiso   1.00
C1047  C     0.73502   0.74822   0.73868   0.00000  Uiso   1.00
C1048  C     0.93162   0.75168   0.76130   0.00000  Uiso   1.00
C1049  C     0.68088   0.73775   0.73626   0.00000  Uiso   1.00
C1050  C     0.98574   0.76151   0.76369   0.00000  Uiso   1.00
C1051  C     0.80149   0.54643   0.78527   0.00000  Uiso   1.00
C1052  C     0.79520   0.95016   0.71195   0.00000  Uiso   1.00
C1053  C     0.80690   0.59287   0.78625   0.00000  Uiso   1.00
C1054  C     0.79926   0.90399   0.71250   0.00000  Uiso   1.00
C1055  C     0.83155   0.61658   0.75094   0.00000  Uiso   1.00
C1056  C     0.83075   0.88303   0.74862   0.00000  Uiso   1.00
C1057  C     0.85286   0.59396   0.71519   0.00000  Uiso   1.00
C1058  C     0.85882   0.90796   0.78461   0.00000  Uiso   1.00
C1059  C     0.84997   0.54789   0.71481   0.00000  Uiso   1.00
C1060  C     0.85610   0.95384   0.78423   0.00000  Uiso   1.00
C1061  C     0.82377   0.52383   0.74907   0.00000  Uiso   1.00
C1062  C     0.82410   0.97521   0.74849   0.00000  Uiso   1.00
Cu1063 Cu    0.83333   0.75000   0.79822   0.00000  Uiso   1.00
Cu1064 Cu    0.83333   0.75001   0.70179   0.00000  Uiso   1.00
H1065  H     0.79096   0.61066   0.81409   0.00000  Uiso   1.00
H1066  H     0.77687   0.88408   0.68540   0.00000  Uiso   1.00
H1067  H     0.87274   0.61198   0.68813   0.00000  Uiso   1.00
H1068  H     0.88343   0.89190   0.81258   0.00000  Uiso   1.00
H1069  H     0.88444   0.80698   0.53852   0.00000  Uiso   1.00
H1070  H     0.76933   0.70385   0.96012   0.00000  Uiso   1.00
H1071  H     0.78449   0.68903   0.53458   0.00000  Uiso   1.00
H1072  H     0.90242   0.79400   0.96775   0.00000  Uiso   1.00
N1073  N     0.83333   0.75001   0.62935   0.00000  Uiso   1.00
N1074  N     0.83333   0.74999   0.87066   0.00000  Uiso   1.00
O1075  O     0.83334   0.68573   0.79072   0.00000  Uiso   1.00
O1076  O     0.83333   0.81428   0.70929   0.00000  Uiso   1.00
O1077  O     0.83334   0.68573   0.70928   0.00000  Uiso   1.00
O1078  O     0.83333   0.81427   0.79072   0.00000  Uiso   1.00
O1079  O     0.75828   0.75000   0.78132   0.00000  Uiso   1.00
O1080  O     0.90839   0.75001   0.71868   0.00000  Uiso   1.00
O1081  O     0.75828   0.75000   0.69989   0.00000  Uiso   1.00
O1082  O     0.90839   0.75000   0.80012   0.00000  Uiso   1.00
C1083  C     0.99481   0.69564   0.70888   0.00000  Uiso   1.00
C1084  C     0.69040   0.65486   0.72752   0.00000  Uiso   1.00
H1085  H     0.68950   0.65089   0.76698   0.00000  Uiso   1.00
H1086  H     0.73077   0.65790   0.71884   0.00000  Uiso   1.00
H1087  H     0.67213   0.62456   0.70996   0.00000  Uiso   1.00
H1088  H     0.95371   0.68663   0.71132   0.00000  Uiso   1.00
H1089  H     0.99982   0.70095   0.67018   0.00000  Uiso   1.00
C1090  C     0.67097   0.80550   0.78744   0.00000  Uiso   1.00
C1091  C     0.67717   0.84263   0.75012   0.00000  Uiso   1.00
H1092  H     0.70630   0.83464   0.72580   0.00000  Uiso   1.00
H1093  H     0.97324   0.84771   0.72849   0.00000  Uiso   1.00
H1094  H     0.68997   0.87410   0.76857   0.00000  Uiso   1.00
H1095  H     0.97584   0.81608   0.81136   0.00000  Uiso   1.00
H1096  H     0.70723   0.80284   0.81105   0.00000  Uiso   1.00
C1097  C     0.77331   0.52245   0.82386   0.00000  Uiso   1.00
C1098  C     0.71737   0.53542   0.82244   0.00000  Uiso   1.00
H1099  H     0.69612   0.52755   0.78713   0.00000  Uiso   1.00
H1100  H     0.71492   0.57134   0.82943   0.00000  Uiso   1.00
H1101  H     0.69836   0.51636   0.85064   0.00000  Uiso   1.00
H1102  H     0.77301   0.98584   0.82057   0.00000  Uiso   1.00
H1103  H     0.79351   0.53073   0.85963   0.00000  Uiso   1.00
C1104  C     0.76021   0.97117   0.67213   0.00000  Uiso   1.00
C1105  C     0.71240   0.98892   0.69072   0.00000  Uiso   1.00
H1106  H     0.69443   0.96378   0.71421   0.00000  Uiso   1.00
H1107  H     0.72238   0.51994   0.71077   0.00000  Uiso   1.00
H1108  H     0.68400   0.99684   0.65990   0.00000  Uiso   1.00
H1109  H     0.78120   0.99830   0.65382   0.00000  Uiso   1.00
H1110  H     0.74725   0.94636   0.64408   0.00000  Uiso   1.00
F1111  F     0.87366   0.52657   0.68148   0.00000  Uiso   1.00
F1112  F     0.88489   0.97765   0.81872   0.00000  Uiso   1.00
C1113  C     0.89785   0.81673   0.63085   0.00000  Uiso   1.00
C1114  C     0.87700   0.86302   0.62166   0.00000  Uiso   1.00
H1115  H     0.88000   0.87379   0.58382   0.00000  Uiso   1.00
H1116  H     0.83610   0.86311   0.62884   0.00000  Uiso   1.00
H1117  H     0.89964   0.88733   0.64554   0.00000  Uiso   1.00
H1118  H     0.90540   0.81110   0.66946   0.00000  Uiso   1.00
H1119  H     0.93635   0.81627   0.61733   0.00000  Uiso   1.00
C1120  C     0.75758   0.69248   0.86798   0.00000  Uiso   1.00
C1121  C     0.70294   0.70667   0.87252   0.00000  Uiso   1.00
H1122  H     0.69230   0.70049   0.90956   0.00000  Uiso   1.00
H1123  H     0.69958   0.74247   0.86371   0.00000  Uiso   1.00
H1124  H     0.67521   0.68726   0.84751   0.00000  Uiso   1.00
H1125  H     0.76187   0.68852   0.83003   0.00000  Uiso   1.00
H1126  H     0.76171   0.65860   0.88400   0.00000  Uiso   1.00
F1127  F     0.77569   0.68744   0.62514   0.00000  Uiso   1.00
F1128  F     0.90413   0.80150   0.87638   0.00000  Uiso   1.00
loop_
_geom_bond_atom_site_label_1
_geom_bond_atom_site_label_2
_geom_bond_distance
_geom_bond_site_symmetry_2
_ccdc_geom_bond_type
C1     C21     1.457   .     S
C1     O43     1.298   .     A
C1     O41     1.300   .     A
C2     O44     1.297   .     A
C2     C22     1.453   .     S
C2     O42     1.300   .     A
C3     H35     1.079   .     S
C3     C5      1.408   .     A
C3     C11     1.397   .     A
C4     H36     1.078   .     S
C4     C6      1.408   .     A
C4     C12     1.397   .     A
C5     C79     1.515   .     S
C5     N39     1.387   .     A
C6     N40     1.388   .     A
C6     C86     1.517   .     S
C7     F93     1.355   .     S
C7     C9      1.411   .     A
C7     N39     1.366   .     A
C8     F94     1.355   .     S
C8     C10     1.411   .     A
C8     N40     1.366   .     A
C9     H37     1.079   .     S
C9     C11     1.417   .     A
C10    C12     1.417   .     A
C10    H38     1.079   .     S
C11    C576    1.527   1_554 S
C12    C575    1.527   .     S
C13    C15     1.433   .     S
C13    O47     1.296   .     A
C13    O45     1.285   .     A
C14    O46     1.284   .     A
C14    O48     1.296   .     A
C14    C16     1.429   .     S
C15    C204    1.358   1_455 S
C15    C237    1.535   1_455 S
C16    C109    1.358   .     S
C16    C150    1.531   .     S
C17    C27     1.419   .     A
C17    C63     1.520   .     S
C17    C19     1.400   .     A
C18    C70     1.517   .     S
C18    C20     1.400   .     A
C18    C28     1.418   .     A
C19    H31     1.082   .     S
C19    C21     1.399   .     A
C20    C22     1.398   .     A
C20    H32     1.084   .     S
C21    C23     1.397   .     A
C22    C24     1.396   .     A
C23    H33     1.084   .     S
C23    C25     1.387   .     A
C24    C26     1.387   .     A
C24    H34     1.084   .     S
C25    F77     1.358   .     S
C25    C27     1.404   .     A
C26    F78     1.358   .     S
C26    C28     1.405   .     A
C27    C310    1.466   1_545 S
C28    C309    1.466   .     S
Cu29   O48     1.960   .     S
Cu29   O45     1.974   .     S
Cu29   Cu30    2.698   .     S
Cu29   O44     1.944   .     S
Cu29   O41     1.952   .     S
Cu29   N40     2.027   .     S
Cu30   O47     1.960   .     S
Cu30   O43     1.944   .     S
Cu30   O46     1.974   .     S
Cu30   N39     2.027   .     S
Cu30   O42     1.952   .     S
C49    H54     1.105   .     S
C49    H55     1.111   .     S
C49    C109    1.535   .     S
C49    C144    1.529   .     S
C50    H52     1.107   .     S
C50    H53     1.111   .     S
C50    H51     1.111   .     S
C50    C237    1.529   1_455 S
C56    C57     1.529   .     S
C56    H62     1.106   .     S
C56    C204    1.531   1_455 S
C56    H249    1.112   1_455 S
C57    H60     1.111   .     S
C57    H58     1.109   .     S
C57    H247    1.111   1_455 S
H59    C151    1.111   .     S
H61    C150    1.112   .     S
C63    H69     1.111   .     S
C63    C64     1.530   .     S
C63    H350    1.108   1_545 S
C64    H67     1.110   .     S
C64    H66     1.110   .     S
C64    H65     1.108   .     S
H68    C345    1.108   .     S
C70    C71     1.526   .     S
C70    H76     1.112   .     S
C70    H75     1.109   .     S
C71    H74     1.110   .     S
C71    H72     1.111   .     S
C71    H355    1.107   .     S
H73    C353    1.107   1_545 S
C79    H84     1.090   .     S
C79    C80     1.529   .     S
C79    H85     1.112   .     S
C80    H83     1.111   .     S
C80    H82     1.109   .     S
C80    H81     1.110   .     S
C86    H91     1.088   .     S
C86    C87     1.530   .     S
C86    H92     1.112   .     S
C87    H88     1.110   .     S
C87    H90     1.111   .     S
C87    H89     1.107   .     S
C95    C115    1.457   .     S
C95    O137    1.298   .     A
C95    O135    1.300   .     A
C96    O138    1.297   .     A
C96    C116    1.453   .     S
C96    O136    1.300   .     A
C97    H129    1.079   .     S
C97    C99     1.408   .     A
C97    C105    1.397   .     A
C98    H130    1.078   .     S
C98    C100    1.408   .     A
C98    C106    1.397   .     A
C99    C173    1.515   .     S
C99    N133    1.387   .     A
C100   N134    1.388   .     A
C100   C180    1.517   .     S
C101   F187    1.355   .     S
C101   C103    1.411   .     A
C101   N133    1.366   .     A
C102   F188    1.355   .     S
C102   C104    1.411   .     A
C102   N134    1.366   .     A
C103   H131    1.079   .     S
C103   C105    1.417   .     A
C104   C106    1.417   .     A
C104   H132    1.079   .     S
C105   C670    1.527   1_554 S
C106   C669    1.527   .     S
C107   C109    1.433   .     S
C107   O141    1.296   .     A
C107   O139    1.285   .     A
C108   O140    1.284   .     A
C108   O142    1.296   .     A
C108   C110    1.429   .     S
C110   C203    1.358   .     S
C110   C244    1.531   .     S
C111   C121    1.419   .     A
C111   C157    1.520   .     S
C111   C113    1.400   .     A
C112   C164    1.517   .     S
C112   C114    1.400   .     A
C112   C122    1.418   .     A
C113   H125    1.082   .     S
C113   C115    1.399   .     A
C114   C116    1.398   .     A
C114   H126    1.084   .     S
C115   C117    1.397   .     A
C116   C118    1.396   .     A
C117   H127    1.084   .     S
C117   C119    1.387   .     A
C118   C120    1.387   .     A
C118   H128    1.084   .     S
C119   F171    1.358   .     S
C119   C121    1.404   .     A
C120   F172    1.358   .     S
C120   C122    1.405   .     A
C121   C404    1.466   1_545 S
C122   C403    1.466   .     S
Cu123  O142    1.960   .     S
Cu123  O139    1.974   .     S
Cu123  Cu124   2.698   .     S
Cu123  O138    1.944   .     S
Cu123  O135    1.952   .     S
Cu123  N134    2.027   .     S
Cu124  O141    1.960   .     S
Cu124  O137    1.944   .     S
Cu124  O140    1.974   .     S
Cu124  N133    2.027   .     S
Cu124  O136    1.952   .     S
C143   H148    1.105   .     S
C143   H149    1.111   .     S
C143   C203    1.535   .     S
C143   C238    1.529   .     S
C144   H146    1.107   .     S
C144   H147    1.111   .     S
C144   H145    1.111   .     S
C150   C151    1.529   .     S
C150   H156    1.106   .     S
C151   H154    1.111   .     S
C151   H152    1.109   .     S
H153   C245    1.111   .     S
H155   C244    1.112   .     S
C157   H163    1.111   .     S
C157   C158    1.530   .     S
C157   H444    1.108   1_545 S
C158   H161    1.110   .     S
C158   H160    1.110   .     S
C158   H159    1.108   .     S
H162   C439    1.108   .     S
C164   C165    1.526   .     S
C164   H170    1.112   .     S
C164   H169    1.109   .     S
C165   H168    1.110   .     S
C165   H166    1.111   .     S
C165   H449    1.107   .     S
H167   C447    1.107   1_545 S
C173   H178    1.090   .     S
C173   C174    1.529   .     S
C173   H179    1.112   .     S
C174   H177    1.111   .     S
C174   H176    1.109   .     S
C174   H175    1.110   .     S
C180   H185    1.088   .     S
C180   C181    1.530   .     S
C180   H186    1.112   .     S
C181   H182    1.110   .     S
C181   H184    1.111   .     S
C181   H183    1.107   .     S
C189   C209    1.457   .     S
C189   O231    1.298   .     A
C189   O229    1.300   .     A
C190   O232    1.297   .     A
C190   C210    1.453   .     S
C190   O230    1.300   .     A
C191   H223    1.079   .     S
C191   C193    1.408   .     A
C191   C199    1.397   .     A
C192   H224    1.078   .     S
C192   C194    1.408   .     A
C192   C200    1.397   .     A
C193   C267    1.515   .     S
C193   N227    1.387   .     A
C194   N228    1.388   .     A
C194   C274    1.517   .     S
C195   F281    1.355   .     S
C195   C197    1.411   .     A
C195   N227    1.366   .     A
C196   F282    1.355   .     S
C196   C198    1.411   .     A
C196   N228    1.366   .     A
C197   H225    1.079   .     S
C197   C199    1.417   .     A
C198   C200    1.417   .     A
C198   H226    1.079   .     S
C199   C764    1.527   1_554 S
C200   C763    1.527   .     S
C201   C203    1.433   .     S
C201   O235    1.296   .     A
C201   O233    1.285   .     A
C202   O234    1.284   .     A
C202   O236    1.296   .     A
C202   C204    1.429   .     S
C204   C15     1.358   1_655 S
C204   C56     1.531   1_655 S
C205   C215    1.419   .     A
C205   C251    1.520   .     S
C205   C207    1.400   .     A
C206   C258    1.517   .     S
C206   C208    1.400   .     A
C206   C216    1.418   .     A
C207   H219    1.082   .     S
C207   C209    1.399   .     A
C208   C210    1.398   .     A
C208   H220    1.084   .     S
C209   C211    1.397   .     A
C210   C212    1.396   .     A
C211   H221    1.084   .     S
C211   C213    1.387   .     A
C212   C214    1.387   .     A
C212   H222    1.084   .     S
C213   F265    1.358   .     S
C213   C215    1.404   .     A
C214   F266    1.358   .     S
C214   C216    1.405   .     A
C215   C498    1.466   1_545 S
C216   C497    1.466   .     S
Cu217  O236    1.960   .     S
Cu217  O233    1.974   .     S
Cu217  Cu218   2.698   .     S
Cu217  O232    1.944   .     S
Cu217  O229    1.952   .     S
Cu217  N228    2.027   .     S
Cu218  O235    1.960   .     S
Cu218  O231    1.944   .     S
Cu218  O234    1.974   .     S
Cu218  N227    2.027   .     S
Cu218  O230    1.952   .     S
C237   H242    1.105   .     S
C237   H243    1.111   .     S
C237   C15     1.535   1_655 S
C237   C50     1.529   1_655 S
C238   H240    1.107   .     S
C238   H241    1.111   .     S
C238   H239    1.111   .     S
C244   C245    1.529   .     S
C244   H250    1.106   .     S
C245   H248    1.111   .     S
C245   H246    1.109   .     S
H247   C57     1.111   1_655 S
H249   C56     1.112   1_655 S
C251   H257    1.111   .     S
C251   C252    1.530   .     S
C251   H538    1.108   1_545 S
C252   H255    1.110   .     S
C252   H254    1.110   .     S
C252   H253    1.108   .     S
H256   C533    1.108   .     S
C258   C259    1.526   .     S
C258   H264    1.112   .     S
C258   H263    1.109   .     S
C259   H262    1.110   .     S
C259   H260    1.111   .     S
C259   H543    1.107   .     S
H261   C541    1.107   1_545 S
C267   H272    1.090   .     S
C267   C268    1.529   .     S
C267   H273    1.112   .     S
C268   H271    1.111   .     S
C268   H270    1.109   .     S
C268   H269    1.110   .     S
C274   H279    1.088   .     S
C274   C275    1.530   .     S
C274   H280    1.112   .     S
C275   H276    1.110   .     S
C275   H278    1.111   .     S
C275   H277    1.107   .     S
C283   C303    1.457   .     S
C283   O325    1.298   .     A
C283   O323    1.300   .     A
C284   O326    1.297   .     A
C284   C304    1.453   .     S
C284   O324    1.300   .     A
C285   H317    1.079   .     S
C285   C287    1.408   .     A
C285   C293    1.397   .     A
C286   H318    1.078   .     S
C286   C288    1.408   .     A
C286   C294    1.397   .     A
C287   C361    1.515   .     S
C287   N321    1.387   .     A
C288   N322    1.388   .     A
C288   C368    1.517   .     S
C289   F375    1.355   .     S
C289   C291    1.411   .     A
C289   N321    1.366   .     A
C290   F376    1.355   .     S
C290   C292    1.411   .     A
C290   N322    1.366   .     A
C291   H319    1.079   .     S
C291   C293    1.417   .     A
C292   C294    1.417   .     A
C292   H320    1.079   .     S
C293   C858    1.527   1_554 S
C294   C857    1.527   .     S
C295   C297    1.433   .     S
C295   O329    1.296   .     A
C295   O327    1.285   .     A
C296   O328    1.284   .     A
C296   O330    1.296   .     A
C296   C298    1.429   .     S
C297   C486    1.358   1_455 S
C297   C519    1.535   1_455 S
C298   C391    1.358   .     S
C298   C432    1.531   .     S
C299   C309    1.419   .     A
C299   C345    1.520   .     S
C299   C301    1.400   .     A
C300   C352    1.517   .     S
C300   C302    1.400   .     A
C300   C310    1.418   .     A
C301   H313    1.082   .     S
C301   C303    1.399   .     A
C302   C304    1.398   .     A
C302   H314    1.084   .     S
C303   C305    1.397   .     A
C304   C306    1.396   .     A
C305   H315    1.084   .     S
C305   C307    1.387   .     A
C306   C308    1.387   .     A
C306   H316    1.084   .     S
C307   F359    1.358   .     S
C307   C309    1.404   .     A
C308   F360    1.358   .     S
C308   C310    1.405   .     A
C310   C27     1.466   1_565 S
Cu311  O330    1.960   .     S
Cu311  O327    1.974   .     S
Cu311  Cu312   2.698   .     S
Cu311  O326    1.944   .     S
Cu311  O323    1.952   .     S
Cu311  N322    2.027   .     S
Cu312  O329    1.960   .     S
Cu312  O325    1.944   .     S
Cu312  O328    1.974   .     S
Cu312  N321    2.027   .     S
Cu312  O324    1.952   .     S
C331   H336    1.105   .     S
C331   H337    1.111   .     S
C331   C391    1.535   .     S
C331   C426    1.529   .     S
C332   H334    1.107   .     S
C332   H335    1.111   .     S
C332   H333    1.111   .     S
C332   C519    1.529   1_455 S
C338   C339    1.529   .     S
C338   H344    1.106   .     S
C338   C486    1.531   1_455 S
C338   H531    1.112   1_455 S
C339   H342    1.111   .     S
C339   H340    1.109   .     S
C339   H529    1.111   1_455 S
H341   C433    1.111   .     S
H343   C432    1.112   .     S
C345   H351    1.111   .     S
C345   C346    1.530   .     S
C346   H349    1.110   .     S
C346   H348    1.110   .     S
C346   H347    1.108   .     S
H350   C63     1.108   1_565 S
C352   C353    1.526   .     S
C352   H358    1.112   .     S
C352   H357    1.109   .     S
C353   H356    1.110   .     S
C353   H354    1.111   .     S
C353   H73     1.107   1_565 S
C361   H366    1.090   .     S
C361   C362    1.529   .     S
C361   H367    1.112   .     S
C362   H365    1.111   .     S
C362   H364    1.109   .     S
C362   H363    1.110   .     S
C368   H373    1.088   .     S
C368   C369    1.530   .     S
C368   H374    1.112   .     S
C369   H370    1.110   .     S
C369   H372    1.111   .     S
C369   H371    1.107   .     S
C377   C397    1.457   .     S
C377   O419    1.298   .     A
C377   O417    1.300   .     A
C378   O420    1.297   .     A
C378   C398    1.453   .     S
C378   O418    1.300   .     A
C379   H411    1.079   .     S
C379   C381    1.408   .     A
C379   C387    1.397   .     A
C380   H412    1.078   .     S
C380   C382    1.408   .     A
C380   C388    1.397   .     A
C381   C455    1.515   .     S
C381   N415    1.387   .     A
C382   N416    1.388   .     A
C382   C462    1.517   .     S
C383   F469    1.355   .     S
C383   C385    1.411   .     A
C383   N415    1.366   .     A
C384   F470    1.355   .     S
C384   C386    1.411   .     A
C384   N416    1.366   .     A
C385   H413    1.079   .     S
C385   C387    1.417   .     A
C386   C388    1.417   .     A
C386   H414    1.079   .     S
C387   C952    1.527   1_554 S
C388   C951    1.527   .     S
C389   C391    1.433   .     S
C389   O423    1.296   .     A
C389   O421    1.285   .     A
C390   O422    1.284   .     A
C390   O424    1.296   .     A
C390   C392    1.429   .     S
C392   C485    1.358   .     S
C392   C526    1.531   .     S
C393   C403    1.419   .     A
C393   C439    1.520   .     S
C393   C395    1.400   .     A
C394   C446    1.517   .     S
C394   C396    1.400   .     A
C394   C404    1.418   .     A
C395   H407    1.082   .     S
C395   C397    1.399   .     A
C396   C398    1.398   .     A
C396   H408    1.084   .     S
C397   C399    1.397   .     A
C398   C400    1.396   .     A
C399   H409    1.084   .     S
C399   C401    1.387   .     A
C400   C402    1.387   .     A
C400   H410    1.084   .     S
C401   F453    1.358   .     S
C401   C403    1.404   .     A
C402   F454    1.358   .     S
C402   C404    1.405   .     A
C404   C121    1.466   1_565 S
Cu405  O424    1.960   .     S
Cu405  O421    1.974   .     S
Cu405  Cu406   2.698   .     S
Cu405  O420    1.944   .     S
Cu405  O417    1.952   .     S
Cu405  N416    2.027   .     S
Cu406  O423    1.960   .     S
Cu406  O419    1.944   .     S
Cu406  O422    1.974   .     S
Cu406  N415    2.027   .     S
Cu406  O418    1.952   .     S
C425   H430    1.105   .     S
C425   H431    1.111   .     S
C425   C485    1.535   .     S
C425   C520    1.529   .     S
C426   H428    1.107   .     S
C426   H429    1.111   .     S
C426   H427    1.111   .     S
C432   C433    1.529   .     S
C432   H438    1.106   .     S
C433   H436    1.111   .     S
C433   H434    1.109   .     S
H435   C527    1.111   .     S
H437   C526    1.112   .     S
C439   H445    1.111   .     S
C439   C440    1.530   .     S
C440   H443    1.110   .     S
C440   H442    1.110   .     S
C440   H441    1.108   .     S
H444   C157    1.108   1_565 S
C446   C447    1.526   .     S
C446   H452    1.112   .     S
C446   H451    1.109   .     S
C447   H450    1.110   .     S
C447   H448    1.111   .     S
C447   H167    1.107   1_565 S
C455   H460    1.090   .     S
C455   C456    1.529   .     S
C455   H461    1.112   .     S
C456   H459    1.111   .     S
C456   H458    1.109   .     S
C456   H457    1.110   .     S
C462   H467    1.088   .     S
C462   C463    1.530   .     S
C462   H468    1.112   .     S
C463   H464    1.110   .     S
C463   H466    1.111   .     S
C463   H465    1.107   .     S
C471   C491    1.457   .     S
C471   O513    1.298   .     A
C471   O511    1.300   .     A
C472   O514    1.297   .     A
C472   C492    1.453   .     S
C472   O512    1.300   .     A
C473   H505    1.079   .     S
C473   C475    1.408   .     A
C473   C481    1.397   .     A
C474   H506    1.078   .     S
C474   C476    1.408   .     A
C474   C482    1.397   .     A
C475   C549    1.515   .     S
C475   N509    1.387   .     A
C476   N510    1.388   .     A
C476   C556    1.517   .     S
C477   F563    1.355   .     S
C477   C479    1.411   .     A
C477   N509    1.366   .     A
C478   F564    1.355   .     S
C478   C480    1.411   .     A
C478   N510    1.366   .     A
C479   H507    1.079   .     S
C479   C481    1.417   .     A
C480   C482    1.417   .     A
C480   H508    1.079   .     S
C481   C1046   1.527   1_554 S
C482   C1045   1.527   .     S
C483   C485    1.433   .     S
C483   O517    1.296   .     A
C483   O515    1.285   .     A
C484   O516    1.284   .     A
C484   O518    1.296   .     A
C484   C486    1.429   .     S
C486   C297    1.358   1_655 S
C486   C338    1.531   1_655 S
C487   C497    1.419   .     A
C487   C533    1.520   .     S
C487   C489    1.400   .     A
C488   C540    1.517   .     S
C488   C490    1.400   .     A
C488   C498    1.418   .     A
C489   H501    1.082   .     S
C489   C491    1.399   .     A
C490   C492    1.398   .     A
C490   H502    1.084   .     S
C491   C493    1.397   .     A
C492   C494    1.396   .     A
C493   H503    1.084   .     S
C493   C495    1.387   .     A
C494   C496    1.387   .     A
C494   H504    1.084   .     S
C495   F547    1.358   .     S
C495   C497    1.404   .     A
C496   F548    1.358   .     S
C496   C498    1.405   .     A
C498   C215    1.466   1_565 S
Cu499  O518    1.960   .     S
Cu499  O515    1.974   .     S
Cu499  Cu500   2.698   .     S
Cu499  O514    1.944   .     S
Cu499  O511    1.952   .     S
Cu499  N510    2.027   .     S
Cu500  O517    1.960   .     S
Cu500  O513    1.944   .     S
Cu500  O516    1.974   .     S
Cu500  N509    2.027   .     S
Cu500  O512    1.952   .     S
C519   H524    1.105   .     S
C519   H525    1.111   .     S
C519   C297    1.535   1_655 S
C519   C332    1.529   1_655 S
C520   H522    1.107   .     S
C520   H523    1.111   .     S
C520   H521    1.111   .     S
C526   C527    1.529   .     S
C526   H532    1.106   .     S
C527   H530    1.111   .     S
C527   H528    1.109   .     S
H529   C339    1.111   1_655 S
H531   C338    1.112   1_655 S
C533   H539    1.111   .     S
C533   C534    1.530   .     S
C534   H537    1.110   .     S
C534   H536    1.110   .     S
C534   H535    1.108   .     S
H538   C251    1.108   1_565 S
C540   C541    1.526   .     S
C540   H546    1.112   .     S
C540   H545    1.109   .     S
C541   H544    1.110   .     S
C541   H542    1.111   .     S
C541   H261    1.107   1_565 S
C549   H554    1.090   .     S
C549   C550    1.529   .     S
C549   H555    1.112   .     S
C550   H553    1.111   .     S
C550   H552    1.109   .     S
C550   H551    1.110   .     S
C556   H561    1.088   .     S
C556   C557    1.530   .     S
C556   H562    1.112   .     S
C557   H558    1.110   .     S
C557   H560    1.111   .     S
C557   H559    1.107   .     S
C565   C585    1.457   .     S
C565   O607    1.298   .     A
C565   O605    1.300   .     A
C566   O608    1.297   .     A
C566   C586    1.453   .     S
C566   O606    1.300   .     A
C567   H599    1.079   .     S
C567   C569    1.408   .     A
C567   C575    1.397   .     A
C568   H600    1.078   .     S
C568   C570    1.408   .     A
C568   C576    1.397   .     A
C569   C643    1.515   .     S
C569   N603    1.387   .     A
C570   N604    1.388   .     A
C570   C650    1.517   .     S
C571   F657    1.355   .     S
C571   C573    1.411   .     A
C571   N603    1.366   .     A
C572   F658    1.355   .     S
C572   C574    1.411   .     A
C572   N604    1.366   .     A
C573   H601    1.079   .     S
C573   C575    1.417   .     A
C574   C576    1.417   .     A
C574   H602    1.079   .     S
C576   C11     1.527   1_556 S
C577   C579    1.433   .     S
C577   O611    1.296   .     A
C577   O609    1.285   .     A
C578   O610    1.284   .     A
C578   O612    1.296   .     A
C578   C580    1.429   .     S
C579   C768    1.358   1_455 S
C579   C801    1.535   1_455 S
C580   C673    1.358   .     S
C580   C714    1.531   .     S
C581   C591    1.419   .     A
C581   C627    1.520   .     S
C581   C583    1.400   .     A
C582   C634    1.517   .     S
C582   C584    1.400   .     A
C582   C592    1.418   .     A
C583   H595    1.082   .     S
C583   C585    1.399   .     A
C584   C586    1.398   .     A
C584   H596    1.084   .     S
C585   C587    1.397   .     A
C586   C588    1.396   .     A
C587   H597    1.084   .     S
C587   C589    1.387   .     A
C588   C590    1.387   .     A
C588   H598    1.084   .     S
C589   F641    1.358   .     S
C589   C591    1.404   .     A
C590   F642    1.358   .     S
C590   C592    1.405   .     A
C591   C874    1.466   1_545 S
C592   C873    1.466   .     S
Cu593  O612    1.960   .     S
Cu593  O609    1.974   .     S
Cu593  Cu594   2.698   .     S
Cu593  O608    1.944   .     S
Cu593  O605    1.952   .     S
Cu593  N604    2.027   .     S
Cu594  O611    1.960   .     S
Cu594  O607    1.944   .     S
Cu594  O610    1.974   .     S
Cu594  N603    2.027   .     S
Cu594  O606    1.952   .     S
C613   H618    1.105   .     S
C613   H619    1.111   .     S
C613   C673    1.535   .     S
C613   C708    1.529   .     S
C614   H616    1.107   .     S
C614   H617    1.111   .     S
C614   H615    1.111   .     S
C614   C801    1.529   1_455 S
C620   C621    1.529   .     S
C620   H626    1.106   .     S
C620   C768    1.531   1_455 S
C620   H813    1.112   1_455 S
C621   H624    1.111   .     S
C621   H622    1.109   .     S
C621   H811    1.111   1_455 S
H623   C715    1.111   .     S
H625   C714    1.112   .     S
C627   H633    1.111   .     S
C627   C628    1.530   .     S
C627   H914    1.108   1_545 S
C628   H631    1.110   .     S
C628   H630    1.110   .     S
C628   H629    1.108   .     S
H632   C909    1.108   .     S
C634   C635    1.526   .     S
C634   H640    1.112   .     S
C634   H639    1.109   .     S
C635   H638    1.110   .     S
C635   H636    1.111   .     S
C635   H919    1.107   .     S
H637   C917    1.107   1_545 S
C643   H648    1.090   .     S
C643   C644    1.529   .     S
C643   H649    1.112   .     S
C644   H647    1.111   .     S
C644   H646    1.109   .     S
C644   H645    1.110   .     S
C650   H655    1.088   .     S
C650   C651    1.530   .     S
C650   H656    1.112   .     S
C651   H652    1.110   .     S
C651   H654    1.111   .     S
C651   H653    1.107   .     S
C659   C679    1.457   .     S
C659   O701    1.298   .     A
C659   O699    1.300   .     A
C660   O702    1.297   .     A
C660   C680    1.453   .     S
C660   O700    1.300   .     A
C661   H693    1.079   .     S
C661   C663    1.408   .     A
C661   C669    1.397   .     A
C662   H694    1.078   .     S
C662   C664    1.408   .     A
C662   C670    1.397   .     A
C663   C737    1.515   .     S
C663   N697    1.387   .     A
C664   N698    1.388   .     A
C664   C744    1.517   .     S
C665   F751    1.355   .     S
C665   C667    1.411   .     A
C665   N697    1.366   .     A
C666   F752    1.355   .     S
C666   C668    1.411   .     A
C666   N698    1.366   .     A
C667   H695    1.079   .     S
C667   C669    1.417   .     A
C668   C670    1.417   .     A
C668   H696    1.079   .     S
C670   C105    1.527   1_556 S
C671   C673    1.433   .     S
C671   O705    1.296   .     A
C671   O703    1.285   .     A
C672   O704    1.284   .     A
C672   O706    1.296   .     A
C672   C674    1.429   .     S
C674   C767    1.358   .     S
C674   C808    1.531   .     S
C675   C685    1.419   .     A
C675   C721    1.520   .     S
C675   C677    1.400   .     A
C676   C728    1.517   .     S
C676   C678    1.400   .     A
C676   C686    1.418   .     A
C677   H689    1.082   .     S
C677   C679    1.399   .     A
C678   C680    1.398   .     A
C678   H690    1.084   .     S
C679   C681    1.397   .     A
C680   C682    1.396   .     A
C681   H691    1.084   .     S
C681   C683    1.387   .     A
C682   C684    1.387   .     A
C682   H692    1.084   .     S
C683   F735    1.358   .     S
C683   C685    1.404   .     A
C684   F736    1.358   .     S
C684   C686    1.405   .     A
C685   C968    1.466   1_545 S
C686   C967    1.466   .     S
Cu687  O706    1.960   .     S
Cu687  O703    1.974   .     S
Cu687  Cu688   2.698   .     S
Cu687  O702    1.944   .     S
Cu687  O699    1.952   .     S
Cu687  N698    2.027   .     S
Cu688  O705    1.960   .     S
Cu688  O701    1.944   .     S
Cu688  O704    1.974   .     S
Cu688  N697    2.027   .     S
Cu688  O700    1.952   .     S
C707   H712    1.105   .     S
C707   H713    1.111   .     S
C707   C767    1.535   .     S
C707   C802    1.529   .     S
C708   H710    1.107   .     S
C708   H711    1.111   .     S
C708   H709    1.111   .     S
C714   C715    1.529   .     S
C714   H720    1.106   .     S
C715   H718    1.111   .     S
C715   H716    1.109   .     S
H717   C809    1.111   .     S
H719   C808    1.112   .     S
C721   H727    1.111   .     S
C721   C722    1.530   .     S
C721   H1008   1.108   1_545 S
C722   H725    1.110   .     S
C722   H724    1.110   .     S
C722   H723    1.108   .     S
H726   C1003   1.108   .     S
C728   C729    1.526   .     S
C728   H734    1.112   .     S
C728   H733    1.109   .     S
C729   H732    1.110   .     S
C729   H730    1.111   .     S
C729   H1013   1.107   .     S
H731   C1011   1.107   1_545 S
C737   H742    1.090   .     S
C737   C738    1.529   .     S
C737   H743    1.112   .     S
C738   H741    1.111   .     S
C738   H740    1.109   .     S
C738   H739    1.110   .     S
C744   H749    1.088   .     S
C744   C745    1.530   .     S
C744   H750    1.112   .     S
C745   H746    1.110   .     S
C745   H748    1.111   .     S
C745   H747    1.107   .     S
C753   C773    1.457   .     S
C753   O795    1.298   .     A
C753   O793    1.300   .     A
C754   O796    1.297   .     A
C754   C774    1.453   .     S
C754   O794    1.300   .     A
C755   H787    1.079   .     S
C755   C757    1.408   .     A
C755   C763    1.397   .     A
C756   H788    1.078   .     S
C756   C758    1.408   .     A
C756   C764    1.397   .     A
C757   C831    1.515   .     S
C757   N791    1.387   .     A
C758   N792    1.388   .     A
C758   C838    1.517   .     S
C759   F845    1.355   .     S
C759   C761    1.411   .     A
C759   N791    1.366   .     A
C760   F846    1.355   .     S
C760   C762    1.411   .     A
C760   N792    1.366   .     A
C761   H789    1.079   .     S
C761   C763    1.417   .     A
C762   C764    1.417   .     A
C762   H790    1.079   .     S
C764   C199    1.527   1_556 S
C765   C767    1.433   .     S
C765   O799    1.296   .     A
C765   O797    1.285   .     A
C766   O798    1.284   .     A
C766   O800    1.296   .     A
C766   C768    1.429   .     S
C768   C579    1.358   1_655 S
C768   C620    1.531   1_655 S
C769   C779    1.419   .     A
C769   C815    1.520   .     S
C769   C771    1.400   .     A
C770   C822    1.517   .     S
C770   C772    1.400   .     A
C770   C780    1.418   .     A
C771   H783    1.082   .     S
C771   C773    1.399   .     A
C772   C774    1.398   .     A
C772   H784    1.084   .     S
C773   C775    1.397   .     A
C774   C776    1.396   .     A
C775   H785    1.084   .     S
C775   C777    1.387   .     A
C776   C778    1.387   .     A
C776   H786    1.084   .     S
C777   F829    1.358   .     S
C777   C779    1.404   .     A
C778   F830    1.358   .     S
C778   C780    1.405   .     A
C779   C1062   1.466   1_545 S
C780   C1061   1.466   .     S
Cu781  O800    1.960   .     S
Cu781  O797    1.974   .     S
Cu781  Cu782   2.698   .     S
Cu781  O796    1.944   .     S
Cu781  O793    1.952   .     S
Cu781  N792    2.027   .     S
Cu782  O799    1.960   .     S
Cu782  O795    1.944   .     S
Cu782  O798    1.974   .     S
Cu782  N791    2.027   .     S
Cu782  O794    1.952   .     S
C801   H806    1.105   .     S
C801   H807    1.111   .     S
C801   C579    1.535   1_655 S
C801   C614    1.529   1_655 S
C802   H804    1.107   .     S
C802   H805    1.111   .     S
C802   H803    1.111   .     S
C808   C809    1.529   .     S
C808   H814    1.106   .     S
C809   H812    1.111   .     S
C809   H810    1.109   .     S
H811   C621    1.111   1_655 S
H813   C620    1.112   1_655 S
C815   H821    1.111   .     S
C815   C816    1.530   .     S
C815   H1102   1.108   1_545 S
C816   H819    1.110   .     S
C816   H818    1.110   .     S
C816   H817    1.108   .     S
H820   C1097   1.108   .     S
C822   C823    1.526   .     S
C822   H828    1.112   .     S
C822   H827    1.109   .     S
C823   H826    1.110   .     S
C823   H824    1.111   .     S
C823   H1107   1.107   .     S
H825   C1105   1.107   1_545 S
C831   H836    1.090   .     S
C831   C832    1.529   .     S
C831   H837    1.112   .     S
C832   H835    1.111   .     S
C832   H834    1.109   .     S
C832   H833    1.110   .     S
C838   H843    1.088   .     S
C838   C839    1.530   .     S
C838   H844    1.112   .     S
C839   H840    1.110   .     S
C839   H842    1.111   .     S
C839   H841    1.107   .     S
C847   C867    1.457   .     S
C847   O889    1.298   .     A
C847   O887    1.300   .     A
C848   O890    1.297   .     A
C848   C868    1.453   .     S
C848   O888    1.300   .     A
C849   H881    1.079   .     S
C849   C851    1.408   .     A
C849   C857    1.397   .     A
C850   H882    1.078   .     S
C850   C852    1.408   .     A
C850   C858    1.397   .     A
C851   C925    1.515   .     S
C851   N885    1.387   .     A
C852   N886    1.388   .     A
C852   C932    1.517   .     S
C853   F939    1.355   .     S
C853   C855    1.411   .     A
C853   N885    1.366   .     A
C854   F940    1.355   .     S
C854   C856    1.411   .     A
C854   N886    1.366   .     A
C855   H883    1.079   .     S
C855   C857    1.417   .     A
C856   C858    1.417   .     A
C856   H884    1.079   .     S
C858   C293    1.527   1_556 S
C859   C861    1.433   .     S
C859   O893    1.296   .     A
C859   O891    1.285   .     A
C860   O892    1.284   .     A
C860   O894    1.296   .     A
C860   C862    1.429   .     S
C861   C1050   1.358   1_455 S
C861   C1083   1.535   1_455 S
C862   C955    1.358   .     S
C862   C996    1.531   .     S
C863   C873    1.419   .     A
C863   C909    1.520   .     S
C863   C865    1.400   .     A
C864   C916    1.517   .     S
C864   C866    1.400   .     A
C864   C874    1.418   .     A
C865   H877    1.082   .     S
C865   C867    1.399   .     A
C866   C868    1.398   .     A
C866   H878    1.084   .     S
C867   C869    1.397   .     A
C868   C870    1.396   .     A
C869   H879    1.084   .     S
C869   C871    1.387   .     A
C870   C872    1.387   .     A
C870   H880    1.084   .     S
C871   F923    1.358   .     S
C871   C873    1.404   .     A
C872   F924    1.358   .     S
C872   C874    1.405   .     A
C874   C591    1.466   1_565 S
Cu875  O894    1.960   .     S
Cu875  O891    1.974   .     S
Cu875  Cu876   2.698   .     S
Cu875  O890    1.944   .     S
Cu875  O887    1.952   .     S
Cu875  N886    2.027   .     S
Cu876  O893    1.960   .     S
Cu876  O889    1.944   .     S
Cu876  O892    1.974   .     S
Cu876  N885    2.027   .     S
Cu876  O888    1.952   .     S
C895   H900    1.105   .     S
C895   H901    1.111   .     S
C895   C955    1.535   .     S
C895   C990    1.529   .     S
C896   H898    1.107   .     S
C896   H899    1.111   .     S
C896   H897    1.111   .     S
C896   C1083   1.529   1_455 S
C902   C903    1.529   .     S
C902   H908    1.106   .     S
C902   C1050   1.531   1_455 S
C902   H1095   1.112   1_455 S
C903   H906    1.111   .     S
C903   H904    1.109   .     S
C903   H1093   1.111   1_455 S
H905   C997    1.111   .     S
H907   C996    1.112   .     S
C909   H915    1.111   .     S
C909   C910    1.530   .     S
C910   H913    1.110   .     S
C910   H912    1.110   .     S
C910   H911    1.108   .     S
H914   C627    1.108   1_565 S
C916   C917    1.526   .     S
C916   H922    1.112   .     S
C916   H921    1.109   .     S
C917   H920    1.110   .     S
C917   H918    1.111   .     S
C917   H637    1.107   1_565 S
C925   H930    1.090   .     S
C925   C926    1.529   .     S
C925   H931    1.112   .     S
C926   H929    1.111   .     S
C926   H928    1.109   .     S
C926   H927    1.110   .     S
C932   H937    1.088   .     S
C932   C933    1.530   .     S
C932   H938    1.112   .     S
C933   H934    1.110   .     S
C933   H936    1.111   .     S
C933   H935    1.107   .     S
C941   C961    1.457   .     S
C941   O983    1.298   .     A
C941   O981    1.300   .     A
C942   O984    1.297   .     A
C942   C962    1.453   .     S
C942   O982    1.300   .     A
C943   H975    1.079   .     S
C943   C945    1.408   .     A
C943   C951    1.397   .     A
C944   H976    1.078   .     S
C944   C946    1.408   .     A
C944   C952    1.397   .     A
C945   C1019   1.515   .     S
C945   N979    1.387   .     A
C946   N980    1.388   .     A
C946   C1026   1.517   .     S
C947   F1033   1.355   .     S
C947   C949    1.411   .     A
C947   N979    1.366   .     A
C948   F1034   1.355   .     S
C948   C950    1.411   .     A
C948   N980    1.366   .     A
C949   H977    1.079   .     S
C949   C951    1.417   .     A
C950   C952    1.417   .     A
C950   H978    1.079   .     S
C952   C387    1.527   1_556 S
C953   C955    1.433   .     S
C953   O987    1.296   .     A
C953   O985    1.285   .     A
C954   O986    1.284   .     A
C954   O988    1.296   .     A
C954   C956    1.429   .     S
C956   C1049   1.358   .     S
C956   C1090   1.531   .     S
C957   C967    1.419   .     A
C957   C1003   1.520   .     S
C957   C959    1.400   .     A
C958   C1010   1.517   .     S
C958   C960    1.400   .     A
C958   C968    1.418   .     A
C959   H971    1.082   .     S
C959   C961    1.399   .     A
C960   C962    1.398   .     A
C960   H972    1.084   .     S
C961   C963    1.397   .     A
C962   C964    1.396   .     A
C963   H973    1.084   .     S
C963   C965    1.387   .     A
C964   C966    1.387   .     A
C964   H974    1.084   .     S
C965   F1017   1.358   .     S
C965   C967    1.404   .     A
C966   F1018   1.358   .     S
C966   C968    1.405   .     A
C968   C685    1.466   1_565 S
Cu969  O988    1.960   .     S
Cu969  O985    1.974   .     S
Cu969  Cu970   2.698   .     S
Cu969  O984    1.944   .     S
Cu969  O981    1.952   .     S
Cu969  N980    2.027   .     S
Cu970  O987    1.960   .     S
Cu970  O983    1.944   .     S
Cu970  O986    1.974   .     S
Cu970  N979    2.027   .     S
Cu970  O982    1.952   .     S
C989   H994    1.105   .     S
C989   H995    1.111   .     S
C989   C1049   1.535   .     S
C989   C1084   1.529   .     S
C990   H992    1.107   .     S
C990   H993    1.111   .     S
C990   H991    1.111   .     S
C996   C997    1.529   .     S
C996   H1002   1.106   .     S
C997   H1000   1.111   .     S
C997   H998    1.109   .     S
H999   C1091   1.111   .     S
H1001  C1090   1.112   .     S
C1003  H1009   1.111   .     S
C1003  C1004   1.530   .     S
C1004  H1007   1.110   .     S
C1004  H1006   1.110   .     S
C1004  H1005   1.108   .     S
H1008  C721    1.108   1_565 S
C1010  C1011   1.526   .     S
C1010  H1016   1.112   .     S
C1010  H1015   1.109   .     S
C1011  H1014   1.110   .     S
C1011  H1012   1.111   .     S
C1011  H731    1.107   1_565 S
C1019  H1024   1.090   .     S
C1019  C1020   1.529   .     S
C1019  H1025   1.112   .     S
C1020  H1023   1.111   .     S
C1020  H1022   1.109   .     S
C1020  H1021   1.110   .     S
C1026  H1031   1.088   .     S
C1026  C1027   1.530   .     S
C1026  H1032   1.112   .     S
C1027  H1028   1.110   .     S
C1027  H1030   1.111   .     S
C1027  H1029   1.107   .     S
C1035  C1055   1.457   .     S
C1035  O1077   1.298   .     A
C1035  O1075   1.300   .     A
C1036  O1078   1.297   .     A
C1036  C1056   1.453   .     S
C1036  O1076   1.300   .     A
C1037  H1069   1.079   .     S
C1037  C1039   1.408   .     A
C1037  C1045   1.397   .     A
C1038  H1070   1.078   .     S
C1038  C1040   1.408   .     A
C1038  C1046   1.397   .     A
C1039  C1113   1.515   .     S
C1039  N1073   1.387   .     A
C1040  N1074   1.388   .     A
C1040  C1120   1.517   .     S
C1041  F1127   1.355   .     S
C1041  C1043   1.411   .     A
C1041  N1073   1.366   .     A
C1042  F1128   1.355   .     S
C1042  C1044   1.411   .     A
C1042  N1074   1.366   .     A
C1043  H1071   1.079   .     S
C1043  C1045   1.417   .     A
C1044  C1046   1.417   .     A
C1044  H1072   1.079   .     S
C1046  C481    1.527   1_556 S
C1047  C1049   1.433   .     S
C1047  O1081   1.296   .     A
C1047  O1079   1.285   .     A
C1048  O1080   1.284   .     A
C1048  O1082   1.296   .     A
C1048  C1050   1.429   .     S
C1050  C861    1.358   1_655 S
C1050  C902    1.531   1_655 S
C1051  C1061   1.419   .     A
C1051  C1097   1.520   .     S
C1051  C1053   1.400   .     A
C1052  C1104   1.517   .     S
C1052  C1054   1.400   .     A
C1052  C1062   1.418   .     A
C1053  H1065   1.082   .     S
C1053  C1055   1.399   .     A
C1054  C1056   1.398   .     A
C1054  H1066   1.084   .     S
C1055  C1057   1.397   .     A
C1056  C1058   1.396   .     A
C1057  H1067   1.084   .     S
C1057  C1059   1.387   .     A
C1058  C1060   1.387   .     A
C1058  H1068   1.084   .     S
C1059  F1111   1.358   .     S
C1059  C1061   1.404   .     A
C1060  F1112   1.358   .     S
C1060  C1062   1.405   .     A
C1062  C779    1.466   1_565 S
Cu1063 O1082   1.960   .     S
Cu1063 O1079   1.974   .     S
Cu1063 Cu1064  2.698   .     S
Cu1063 O1078   1.944   .     S
Cu1063 O1075   1.952   .     S
Cu1063 N1074   2.027   .     S
Cu1064 O1081   1.960   .     S
Cu1064 O1077   1.944   .     S
Cu1064 O1080   1.974   .     S
Cu1064 N1073   2.027   .     S
Cu1064 O1076   1.952   .     S
C1083  H1088   1.105   .     S
C1083  H1089   1.111   .     S
C1083  C861    1.535   1_655 S
C1083  C896    1.529   1_655 S
C1084  H1086   1.107   .     S
C1084  H1087   1.111   .     S
C1084  H1085   1.111   .     S
C1090  C1091   1.529   .     S
C1090  H1096   1.106   .     S
C1091  H1094   1.111   .     S
C1091  H1092   1.109   .     S
H1093  C903    1.111   1_655 S
H1095  C902    1.112   1_655 S
C1097  H1103   1.111   .     S
C1097  C1098   1.530   .     S
C1098  H1101   1.110   .     S
C1098  H1100   1.110   .     S
C1098  H1099   1.108   .     S
H1102  C815    1.108   1_565 S
C1104  C1105   1.526   .     S
C1104  H1110   1.112   .     S
C1104  H1109   1.109   .     S
C1105  H1108   1.110   .     S
C1105  H1106   1.111   .     S
C1105  H825    1.107   1_565 S
C1113  H1118   1.090   .     S
C1113  C1114   1.529   .     S
C1113  H1119   1.112   .     S
C1114  H1117   1.111   .     S
C1114  H1116   1.109   .     S
C1114  H1115   1.110   .     S
C1120  H1125   1.088   .     S
C1120  C1121   1.530   .     S
C1120  H1126   1.112   .     S
C1121  H1122   1.110   .     S
C1121  H1124   1.111   .     S
C1121  H1123   1.107   .     S
