data_str_m2_o10_o18_pcu_sym.140
_audit_creation_date              2020-01-03
_audit_creation_method            'Materials Studio'
_symmetry_space_group_name_H-M    'P1'
_symmetry_Int_Tables_number       1
_symmetry_cell_setting            triclinic
loop_
_symmetry_equiv_pos_as_xyz
  x,y,z
_cell_length_a                    22.4576
_cell_length_b                    26.1516
_cell_length_c                    31.6978
_cell_angle_alpha                 94.6153
_cell_angle_beta                  76.0274
_cell_angle_gamma                 101.1060
loop_
_atom_site_label
_atom_site_type_symbol
_atom_site_fract_x
_atom_site_fract_y
_atom_site_fract_z
_atom_site_U_iso_or_equiv
_atom_site_adp_type
_atom_site_occupancy
C1     C     0.18136   0.26606   0.24929   0.00000  Uiso   1.00
C2     C     0.15197   0.06727   0.25071   0.00000  Uiso   1.00
C3     C     0.09974   0.12359   0.03512   0.00000  Uiso   1.00
C4     C     0.23361   0.20973   0.46487   0.00000  Uiso   1.00
C5     C     0.05552   0.11644   0.01031   0.00000  Uiso   1.00
C6     C     0.27782   0.21688   0.48969   0.00000  Uiso   1.00
C7     C     0.18954   0.32033   0.24009   0.00000  Uiso   1.00
C8     C     0.14379   0.01301   0.25991   0.00000  Uiso   1.00
C9     C     0.12849   0.16272   0.33292   0.00000  Uiso   1.00
C10    C     0.20484   0.17062   0.16708   0.00000  Uiso   1.00
C11    C     0.10556   0.15746   0.38028   0.00000  Uiso   1.00
C12    C     0.22777   0.17587   0.11972   0.00000  Uiso   1.00
C13    C     0.02646   0.12429   0.44309   0.00000  Uiso   1.00
C14    C     0.30689   0.20903   0.05691   0.00000  Uiso   1.00
C15    C     0.04344   0.13586   0.39922   0.00000  Uiso   1.00
C16    C     0.28990   0.19746   0.10078   0.00000  Uiso   1.00
C17    C     0.14851   0.17071   0.40654   0.00000  Uiso   1.00
C18    C     0.18483   0.16263   0.09346   0.00000  Uiso   1.00
C19    C     0.13153   0.16263   0.45142   0.00000  Uiso   1.00
C20    C     0.20181   0.17070   0.04858   0.00000  Uiso   1.00
C21    C     0.07053   0.13566   0.46877   0.00000  Uiso   1.00
C22    C     0.26282   0.19767   0.03123   0.00000  Uiso   1.00
C23    C     0.17483   0.17656   0.47861   0.00000  Uiso   1.00
C24    C     0.15852   0.15677   0.02139   0.00000  Uiso   1.00
Cu25   Cu    0.10737   0.16108   0.24517   0.00000  Uiso   1.00
Cu26   Cu    0.22596   0.17225   0.25484   0.00000  Uiso   1.00
H27    H     0.01037   0.09249   0.02261   0.00000  Uiso   1.00
H28    H     0.32298   0.24082   0.47738   0.00000  Uiso   1.00
H29    H     0.13708   0.14982   0.10938   0.00000  Uiso   1.00
H30    H     0.19625   0.18354   0.39062   0.00000  Uiso   1.00
H31    H     0.31266   0.10461   0.45663   0.00000  Uiso   1.00
H32    H     0.02068   0.22871   0.04336   0.00000  Uiso   1.00
N33    N     0.31506   0.18068   0.26212   0.00000  Uiso   1.00
N34    N     0.01827   0.15265   0.23788   0.00000  Uiso   1.00
O35    O     0.12815   0.23809   0.24686   0.00000  Uiso   1.00
O36    O     0.20518   0.09524   0.25314   0.00000  Uiso   1.00
O37    O     0.22829   0.24753   0.25503   0.00000  Uiso   1.00
O38    O     0.10504   0.08580   0.24498   0.00000  Uiso   1.00
O39    O     0.08851   0.15930   0.30855   0.00000  Uiso   1.00
O40    O     0.24482   0.17403   0.19146   0.00000  Uiso   1.00
O41    O     0.18866   0.16874   0.31671   0.00000  Uiso   1.00
O42    O     0.14468   0.16460   0.18329   0.00000  Uiso   1.00
F43    F     0.33301   0.21135   0.12502   0.00000  Uiso   1.00
F44    F     0.00033   0.12197   0.37498   0.00000  Uiso   1.00
F45    F     0.08545   0.09384   0.07051   0.00000  Uiso   1.00
F46    F     0.24791   0.23948   0.42948   0.00000  Uiso   1.00
O47    O     0.24178   0.01147   0.21022   0.00000  Uiso   1.00
C48    C     0.25930   0.31137   0.17382   0.00000  Uiso   1.00
H49    H     0.21831   0.28954   0.16204   0.00000  Uiso   1.00
H50    H     0.28737   0.28426   0.18143   0.00000  Uiso   1.00
H51    H     0.28917   0.00158   0.14652   0.00000  Uiso   1.00
O52    O     0.09155   0.32185   0.28977   0.00000  Uiso   1.00
C53    C     0.07399   0.02196   0.32616   0.00000  Uiso   1.00
H54    H     0.04592   0.04905   0.31854   0.00000  Uiso   1.00
H55    H     0.11495   0.04380   0.33795   0.00000  Uiso   1.00
H56    H     0.04411   0.33176   0.35347   0.00000  Uiso   1.00
O57    O     0.01089   0.22142   0.28246   0.00000  Uiso   1.00
C58    C     0.30870   0.22481   0.32518   0.00000  Uiso   1.00
H59    H     0.00620   0.24556   0.34590   0.00000  Uiso   1.00
H60    H     0.29011   0.18579   0.33931   0.00000  Uiso   1.00
H61    H     0.27113   0.24738   0.32666   0.00000  Uiso   1.00
O62    O     0.32244   0.11192   0.21754   0.00000  Uiso   1.00
C63    C     0.02464   0.10852   0.17482   0.00000  Uiso   1.00
H64    H     0.06221   0.08594   0.17335   0.00000  Uiso   1.00
H65    H     0.04324   0.14753   0.16069   0.00000  Uiso   1.00
H66    H     0.32714   0.08776   0.15410   0.00000  Uiso   1.00
C67    C     0.51470   0.26606   0.24929   0.00000  Uiso   1.00
C68    C     0.48530   0.06727   0.25071   0.00000  Uiso   1.00
C69    C     0.43308   0.12359   0.03512   0.00000  Uiso   1.00
C70    C     0.56694   0.20973   0.46487   0.00000  Uiso   1.00
C71    C     0.38886   0.11644   0.01031   0.00000  Uiso   1.00
C72    C     0.61116   0.21688   0.48969   0.00000  Uiso   1.00
C73    C     0.52287   0.32033   0.24009   0.00000  Uiso   1.00
C74    C     0.47713   0.01301   0.25991   0.00000  Uiso   1.00
C75    C     0.46182   0.16272   0.33292   0.00000  Uiso   1.00
C76    C     0.53818   0.17062   0.16708   0.00000  Uiso   1.00
C77    C     0.43890   0.15746   0.38028   0.00000  Uiso   1.00
C78    C     0.56111   0.17587   0.11972   0.00000  Uiso   1.00
C79    C     0.35979   0.12429   0.44309   0.00000  Uiso   1.00
C80    C     0.64022   0.20903   0.05691   0.00000  Uiso   1.00
C81    C     0.37678   0.13586   0.39922   0.00000  Uiso   1.00
C82    C     0.62323   0.19746   0.10078   0.00000  Uiso   1.00
C83    C     0.48184   0.17071   0.40654   0.00000  Uiso   1.00
C84    C     0.51816   0.16263   0.09346   0.00000  Uiso   1.00
C85    C     0.46487   0.16263   0.45142   0.00000  Uiso   1.00
C86    C     0.53514   0.17070   0.04858   0.00000  Uiso   1.00
C87    C     0.40386   0.13566   0.46877   0.00000  Uiso   1.00
C88    C     0.59615   0.19767   0.03123   0.00000  Uiso   1.00
C89    C     0.50816   0.17656   0.47861   0.00000  Uiso   1.00
C90    C     0.49185   0.15677   0.02139   0.00000  Uiso   1.00
Cu91   Cu    0.44071   0.16108   0.24517   0.00000  Uiso   1.00
Cu92   Cu    0.55929   0.17225   0.25484   0.00000  Uiso   1.00
H93    H     0.34370   0.09249   0.02261   0.00000  Uiso   1.00
H94    H     0.65632   0.24082   0.47738   0.00000  Uiso   1.00
H95    H     0.47041   0.14982   0.10938   0.00000  Uiso   1.00
H96    H     0.52959   0.18354   0.39062   0.00000  Uiso   1.00
H97    H     0.64600   0.10461   0.45663   0.00000  Uiso   1.00
H98    H     0.35402   0.22871   0.04336   0.00000  Uiso   1.00
N99    N     0.64839   0.18068   0.26212   0.00000  Uiso   1.00
N100   N     0.35161   0.15265   0.23788   0.00000  Uiso   1.00
O101   O     0.46148   0.23809   0.24686   0.00000  Uiso   1.00
O102   O     0.53852   0.09524   0.25314   0.00000  Uiso   1.00
O103   O     0.56163   0.24753   0.25503   0.00000  Uiso   1.00
O104   O     0.43837   0.08580   0.24498   0.00000  Uiso   1.00
O105   O     0.42185   0.15930   0.30855   0.00000  Uiso   1.00
O106   O     0.57815   0.17403   0.19146   0.00000  Uiso   1.00
O107   O     0.52199   0.16874   0.31671   0.00000  Uiso   1.00
O108   O     0.47801   0.16460   0.18329   0.00000  Uiso   1.00
F109   F     0.66635   0.21135   0.12502   0.00000  Uiso   1.00
F110   F     0.33366   0.12197   0.37498   0.00000  Uiso   1.00
F111   F     0.41878   0.09384   0.07051   0.00000  Uiso   1.00
F112   F     0.58124   0.23948   0.42948   0.00000  Uiso   1.00
O113   O     0.57511   0.01147   0.21022   0.00000  Uiso   1.00
C114   C     0.59263   0.31137   0.17382   0.00000  Uiso   1.00
H115   H     0.55164   0.28954   0.16204   0.00000  Uiso   1.00
H116   H     0.62070   0.28426   0.18143   0.00000  Uiso   1.00
H117   H     0.62250   0.00158   0.14652   0.00000  Uiso   1.00
O118   O     0.42488   0.32185   0.28977   0.00000  Uiso   1.00
C119   C     0.40732   0.02196   0.32616   0.00000  Uiso   1.00
H120   H     0.37926   0.04905   0.31854   0.00000  Uiso   1.00
H121   H     0.44829   0.04380   0.33795   0.00000  Uiso   1.00
H122   H     0.37744   0.33176   0.35347   0.00000  Uiso   1.00
O123   O     0.34422   0.22142   0.28246   0.00000  Uiso   1.00
C124   C     0.64204   0.22481   0.32518   0.00000  Uiso   1.00
H125   H     0.33954   0.24556   0.34590   0.00000  Uiso   1.00
H126   H     0.62344   0.18579   0.33931   0.00000  Uiso   1.00
H127   H     0.60446   0.24738   0.32666   0.00000  Uiso   1.00
O128   O     0.65578   0.11192   0.21754   0.00000  Uiso   1.00
C129   C     0.35797   0.10852   0.17482   0.00000  Uiso   1.00
H130   H     0.39554   0.08594   0.17335   0.00000  Uiso   1.00
H131   H     0.37657   0.14753   0.16069   0.00000  Uiso   1.00
H132   H     0.66048   0.08776   0.15410   0.00000  Uiso   1.00
C133   C     0.84803   0.26606   0.24929   0.00000  Uiso   1.00
C134   C     0.81864   0.06727   0.25071   0.00000  Uiso   1.00
C135   C     0.76641   0.12359   0.03512   0.00000  Uiso   1.00
C136   C     0.90027   0.20973   0.46487   0.00000  Uiso   1.00
C137   C     0.72219   0.11644   0.01031   0.00000  Uiso   1.00
C138   C     0.94449   0.21688   0.48969   0.00000  Uiso   1.00
C139   C     0.85620   0.32033   0.24009   0.00000  Uiso   1.00
C140   C     0.81046   0.01301   0.25991   0.00000  Uiso   1.00
C141   C     0.79516   0.16272   0.33292   0.00000  Uiso   1.00
C142   C     0.87151   0.17062   0.16708   0.00000  Uiso   1.00
C143   C     0.77223   0.15746   0.38028   0.00000  Uiso   1.00
C144   C     0.89444   0.17587   0.11972   0.00000  Uiso   1.00
C145   C     0.69312   0.12429   0.44309   0.00000  Uiso   1.00
C146   C     0.97355   0.20903   0.05691   0.00000  Uiso   1.00
C147   C     0.71011   0.13586   0.39922   0.00000  Uiso   1.00
C148   C     0.95656   0.19746   0.10078   0.00000  Uiso   1.00
C149   C     0.81517   0.17071   0.40654   0.00000  Uiso   1.00
C150   C     0.85149   0.16263   0.09346   0.00000  Uiso   1.00
C151   C     0.79820   0.16263   0.45142   0.00000  Uiso   1.00
C152   C     0.86847   0.17070   0.04858   0.00000  Uiso   1.00
C153   C     0.73719   0.13566   0.46877   0.00000  Uiso   1.00
C154   C     0.92948   0.19767   0.03123   0.00000  Uiso   1.00
C155   C     0.84149   0.17656   0.47861   0.00000  Uiso   1.00
C156   C     0.82518   0.15677   0.02139   0.00000  Uiso   1.00
Cu157  Cu    0.77404   0.16108   0.24517   0.00000  Uiso   1.00
Cu158  Cu    0.89263   0.17225   0.25484   0.00000  Uiso   1.00
H159   H     0.67704   0.09249   0.02261   0.00000  Uiso   1.00
H160   H     0.98965   0.24082   0.47738   0.00000  Uiso   1.00
H161   H     0.80374   0.14982   0.10938   0.00000  Uiso   1.00
H162   H     0.86292   0.18354   0.39062   0.00000  Uiso   1.00
H163   H     0.97933   0.10461   0.45663   0.00000  Uiso   1.00
H164   H     0.68735   0.22871   0.04336   0.00000  Uiso   1.00
N165   N     0.98173   0.18068   0.26212   0.00000  Uiso   1.00
N166   N     0.68494   0.15265   0.23788   0.00000  Uiso   1.00
O167   O     0.79482   0.23809   0.24686   0.00000  Uiso   1.00
O168   O     0.87185   0.09524   0.25314   0.00000  Uiso   1.00
O169   O     0.89496   0.24753   0.25503   0.00000  Uiso   1.00
O170   O     0.77171   0.08580   0.24498   0.00000  Uiso   1.00
O171   O     0.75518   0.15930   0.30855   0.00000  Uiso   1.00
O172   O     0.91149   0.17403   0.19146   0.00000  Uiso   1.00
O173   O     0.85532   0.16874   0.31671   0.00000  Uiso   1.00
O174   O     0.81134   0.16460   0.18329   0.00000  Uiso   1.00
F175   F     0.99968   0.21135   0.12502   0.00000  Uiso   1.00
F176   F     0.66699   0.12197   0.37498   0.00000  Uiso   1.00
F177   F     0.75211   0.09384   0.07051   0.00000  Uiso   1.00
F178   F     0.91457   0.23948   0.42948   0.00000  Uiso   1.00
O179   O     0.90845   0.01147   0.21022   0.00000  Uiso   1.00
C180   C     0.92597   0.31137   0.17382   0.00000  Uiso   1.00
H181   H     0.88497   0.28954   0.16204   0.00000  Uiso   1.00
H182   H     0.95403   0.28426   0.18143   0.00000  Uiso   1.00
H183   H     0.95583   0.00158   0.14652   0.00000  Uiso   1.00
O184   O     0.75821   0.32185   0.28977   0.00000  Uiso   1.00
C185   C     0.74065   0.02196   0.32616   0.00000  Uiso   1.00
H186   H     0.71259   0.04905   0.31854   0.00000  Uiso   1.00
H187   H     0.78162   0.04380   0.33795   0.00000  Uiso   1.00
H188   H     0.71078   0.33176   0.35347   0.00000  Uiso   1.00
O189   O     0.67756   0.22142   0.28246   0.00000  Uiso   1.00
C190   C     0.97537   0.22481   0.32518   0.00000  Uiso   1.00
H191   H     0.67287   0.24556   0.34590   0.00000  Uiso   1.00
H192   H     0.95677   0.18579   0.33931   0.00000  Uiso   1.00
H193   H     0.93780   0.24738   0.32666   0.00000  Uiso   1.00
O194   O     0.98911   0.11192   0.21754   0.00000  Uiso   1.00
C195   C     0.69131   0.10852   0.17482   0.00000  Uiso   1.00
H196   H     0.72888   0.08594   0.17335   0.00000  Uiso   1.00
H197   H     0.70991   0.14753   0.16069   0.00000  Uiso   1.00
H198   H     0.99381   0.08776   0.15410   0.00000  Uiso   1.00
C199   C     0.18136   0.59939   0.24929   0.00000  Uiso   1.00
C200   C     0.15197   0.40061   0.25071   0.00000  Uiso   1.00
C201   C     0.09974   0.45693   0.03512   0.00000  Uiso   1.00
C202   C     0.23361   0.54307   0.46487   0.00000  Uiso   1.00
C203   C     0.05552   0.44977   0.01031   0.00000  Uiso   1.00
C204   C     0.27782   0.55021   0.48969   0.00000  Uiso   1.00
C205   C     0.18954   0.65366   0.24009   0.00000  Uiso   1.00
C206   C     0.14379   0.34634   0.25991   0.00000  Uiso   1.00
C207   C     0.12849   0.49605   0.33292   0.00000  Uiso   1.00
C208   C     0.20484   0.50395   0.16708   0.00000  Uiso   1.00
C209   C     0.10556   0.49080   0.38028   0.00000  Uiso   1.00
C210   C     0.22777   0.50920   0.11972   0.00000  Uiso   1.00
C211   C     0.02646   0.45762   0.44309   0.00000  Uiso   1.00
C212   C     0.30689   0.54237   0.05691   0.00000  Uiso   1.00
C213   C     0.04344   0.46919   0.39922   0.00000  Uiso   1.00
C214   C     0.28990   0.53080   0.10078   0.00000  Uiso   1.00
C215   C     0.14851   0.50404   0.40654   0.00000  Uiso   1.00
C216   C     0.18483   0.49596   0.09346   0.00000  Uiso   1.00
C217   C     0.13153   0.49596   0.45142   0.00000  Uiso   1.00
C218   C     0.20181   0.50403   0.04858   0.00000  Uiso   1.00
C219   C     0.07053   0.46899   0.46877   0.00000  Uiso   1.00
C220   C     0.26282   0.53100   0.03123   0.00000  Uiso   1.00
C221   C     0.17483   0.50989   0.47861   0.00000  Uiso   1.00
C222   C     0.15852   0.49010   0.02139   0.00000  Uiso   1.00
Cu223  Cu    0.10737   0.49441   0.24517   0.00000  Uiso   1.00
Cu224  Cu    0.22596   0.50559   0.25484   0.00000  Uiso   1.00
H225   H     0.01037   0.42583   0.02261   0.00000  Uiso   1.00
H226   H     0.32298   0.57416   0.47738   0.00000  Uiso   1.00
H227   H     0.13708   0.48315   0.10938   0.00000  Uiso   1.00
H228   H     0.19625   0.51687   0.39062   0.00000  Uiso   1.00
H229   H     0.31266   0.43794   0.45663   0.00000  Uiso   1.00
H230   H     0.02068   0.56204   0.04336   0.00000  Uiso   1.00
N231   N     0.31506   0.51401   0.26212   0.00000  Uiso   1.00
N232   N     0.01827   0.48599   0.23788   0.00000  Uiso   1.00
O233   O     0.12815   0.57142   0.24686   0.00000  Uiso   1.00
O234   O     0.20518   0.42858   0.25314   0.00000  Uiso   1.00
O235   O     0.22829   0.58086   0.25503   0.00000  Uiso   1.00
O236   O     0.10504   0.41914   0.24498   0.00000  Uiso   1.00
O237   O     0.08851   0.49263   0.30855   0.00000  Uiso   1.00
O238   O     0.24482   0.50737   0.19146   0.00000  Uiso   1.00
O239   O     0.18866   0.50207   0.31671   0.00000  Uiso   1.00
O240   O     0.14468   0.49793   0.18329   0.00000  Uiso   1.00
F241   F     0.33301   0.54469   0.12502   0.00000  Uiso   1.00
F242   F     0.00033   0.45530   0.37498   0.00000  Uiso   1.00
F243   F     0.08545   0.42717   0.07051   0.00000  Uiso   1.00
F244   F     0.24791   0.57282   0.42948   0.00000  Uiso   1.00
O245   O     0.24178   0.34481   0.21022   0.00000  Uiso   1.00
C246   C     0.25930   0.64471   0.17382   0.00000  Uiso   1.00
H247   H     0.21831   0.62288   0.16204   0.00000  Uiso   1.00
H248   H     0.28737   0.61759   0.18143   0.00000  Uiso   1.00
H249   H     0.28917   0.33492   0.14652   0.00000  Uiso   1.00
O250   O     0.09155   0.65519   0.28977   0.00000  Uiso   1.00
C251   C     0.07399   0.35529   0.32616   0.00000  Uiso   1.00
H252   H     0.04592   0.38239   0.31854   0.00000  Uiso   1.00
H253   H     0.11495   0.37713   0.33795   0.00000  Uiso   1.00
H254   H     0.04411   0.66510   0.35347   0.00000  Uiso   1.00
O255   O     0.01089   0.55475   0.28246   0.00000  Uiso   1.00
C256   C     0.30870   0.55814   0.32518   0.00000  Uiso   1.00
H257   H     0.00620   0.57890   0.34590   0.00000  Uiso   1.00
H258   H     0.29011   0.51912   0.33931   0.00000  Uiso   1.00
H259   H     0.27113   0.58071   0.32666   0.00000  Uiso   1.00
O260   O     0.32244   0.44525   0.21754   0.00000  Uiso   1.00
C261   C     0.02464   0.44185   0.17482   0.00000  Uiso   1.00
H262   H     0.06221   0.41928   0.17335   0.00000  Uiso   1.00
H263   H     0.04324   0.48087   0.16069   0.00000  Uiso   1.00
H264   H     0.32714   0.42109   0.15410   0.00000  Uiso   1.00
C265   C     0.51470   0.59939   0.24929   0.00000  Uiso   1.00
C266   C     0.48530   0.40061   0.25071   0.00000  Uiso   1.00
C267   C     0.43308   0.45693   0.03512   0.00000  Uiso   1.00
C268   C     0.56694   0.54307   0.46487   0.00000  Uiso   1.00
C269   C     0.38886   0.44977   0.01031   0.00000  Uiso   1.00
C270   C     0.61116   0.55021   0.48969   0.00000  Uiso   1.00
C271   C     0.52287   0.65366   0.24009   0.00000  Uiso   1.00
C272   C     0.47713   0.34634   0.25991   0.00000  Uiso   1.00
C273   C     0.46182   0.49605   0.33292   0.00000  Uiso   1.00
C274   C     0.53818   0.50395   0.16708   0.00000  Uiso   1.00
C275   C     0.43890   0.49080   0.38028   0.00000  Uiso   1.00
C276   C     0.56111   0.50920   0.11972   0.00000  Uiso   1.00
C277   C     0.35979   0.45762   0.44309   0.00000  Uiso   1.00
C278   C     0.64022   0.54237   0.05691   0.00000  Uiso   1.00
C279   C     0.37678   0.46919   0.39922   0.00000  Uiso   1.00
C280   C     0.62323   0.53080   0.10078   0.00000  Uiso   1.00
C281   C     0.48184   0.50404   0.40654   0.00000  Uiso   1.00
C282   C     0.51816   0.49596   0.09346   0.00000  Uiso   1.00
C283   C     0.46487   0.49596   0.45142   0.00000  Uiso   1.00
C284   C     0.53514   0.50403   0.04858   0.00000  Uiso   1.00
C285   C     0.40386   0.46899   0.46877   0.00000  Uiso   1.00
C286   C     0.59615   0.53100   0.03123   0.00000  Uiso   1.00
C287   C     0.50816   0.50989   0.47861   0.00000  Uiso   1.00
C288   C     0.49185   0.49010   0.02139   0.00000  Uiso   1.00
Cu289  Cu    0.44071   0.49441   0.24517   0.00000  Uiso   1.00
Cu290  Cu    0.55929   0.50559   0.25484   0.00000  Uiso   1.00
H291   H     0.34370   0.42583   0.02261   0.00000  Uiso   1.00
H292   H     0.65632   0.57416   0.47738   0.00000  Uiso   1.00
H293   H     0.47041   0.48315   0.10938   0.00000  Uiso   1.00
H294   H     0.52959   0.51687   0.39062   0.00000  Uiso   1.00
H295   H     0.64600   0.43794   0.45663   0.00000  Uiso   1.00
H296   H     0.35402   0.56204   0.04336   0.00000  Uiso   1.00
N297   N     0.64839   0.51401   0.26212   0.00000  Uiso   1.00
N298   N     0.35161   0.48599   0.23788   0.00000  Uiso   1.00
O299   O     0.46148   0.57142   0.24686   0.00000  Uiso   1.00
O300   O     0.53852   0.42858   0.25314   0.00000  Uiso   1.00
O301   O     0.56163   0.58086   0.25503   0.00000  Uiso   1.00
O302   O     0.43837   0.41914   0.24498   0.00000  Uiso   1.00
O303   O     0.42185   0.49263   0.30855   0.00000  Uiso   1.00
O304   O     0.57815   0.50737   0.19146   0.00000  Uiso   1.00
O305   O     0.52199   0.50207   0.31671   0.00000  Uiso   1.00
O306   O     0.47801   0.49793   0.18329   0.00000  Uiso   1.00
F307   F     0.66635   0.54469   0.12502   0.00000  Uiso   1.00
F308   F     0.33366   0.45530   0.37498   0.00000  Uiso   1.00
F309   F     0.41878   0.42717   0.07051   0.00000  Uiso   1.00
F310   F     0.58124   0.57282   0.42948   0.00000  Uiso   1.00
O311   O     0.57511   0.34481   0.21022   0.00000  Uiso   1.00
C312   C     0.59263   0.64471   0.17382   0.00000  Uiso   1.00
H313   H     0.55164   0.62288   0.16204   0.00000  Uiso   1.00
H314   H     0.62070   0.61759   0.18143   0.00000  Uiso   1.00
H315   H     0.62250   0.33492   0.14652   0.00000  Uiso   1.00
O316   O     0.42488   0.65519   0.28977   0.00000  Uiso   1.00
C317   C     0.40732   0.35529   0.32616   0.00000  Uiso   1.00
H318   H     0.37926   0.38239   0.31854   0.00000  Uiso   1.00
H319   H     0.44829   0.37713   0.33795   0.00000  Uiso   1.00
H320   H     0.37744   0.66510   0.35347   0.00000  Uiso   1.00
O321   O     0.34422   0.55475   0.28246   0.00000  Uiso   1.00
C322   C     0.64204   0.55814   0.32518   0.00000  Uiso   1.00
H323   H     0.33954   0.57890   0.34590   0.00000  Uiso   1.00
H324   H     0.62344   0.51912   0.33931   0.00000  Uiso   1.00
H325   H     0.60446   0.58071   0.32666   0.00000  Uiso   1.00
O326   O     0.65578   0.44525   0.21754   0.00000  Uiso   1.00
C327   C     0.35797   0.44185   0.17482   0.00000  Uiso   1.00
H328   H     0.39554   0.41928   0.17335   0.00000  Uiso   1.00
H329   H     0.37657   0.48087   0.16069   0.00000  Uiso   1.00
H330   H     0.66048   0.42109   0.15410   0.00000  Uiso   1.00
C331   C     0.84803   0.59939   0.24929   0.00000  Uiso   1.00
C332   C     0.81864   0.40061   0.25071   0.00000  Uiso   1.00
C333   C     0.76641   0.45693   0.03512   0.00000  Uiso   1.00
C334   C     0.90027   0.54307   0.46487   0.00000  Uiso   1.00
C335   C     0.72219   0.44977   0.01031   0.00000  Uiso   1.00
C336   C     0.94449   0.55021   0.48969   0.00000  Uiso   1.00
C337   C     0.85620   0.65366   0.24009   0.00000  Uiso   1.00
C338   C     0.81046   0.34634   0.25991   0.00000  Uiso   1.00
C339   C     0.79516   0.49605   0.33292   0.00000  Uiso   1.00
C340   C     0.87151   0.50395   0.16708   0.00000  Uiso   1.00
C341   C     0.77223   0.49080   0.38028   0.00000  Uiso   1.00
C342   C     0.89444   0.50920   0.11972   0.00000  Uiso   1.00
C343   C     0.69312   0.45762   0.44309   0.00000  Uiso   1.00
C344   C     0.97355   0.54237   0.05691   0.00000  Uiso   1.00
C345   C     0.71011   0.46919   0.39922   0.00000  Uiso   1.00
C346   C     0.95656   0.53080   0.10078   0.00000  Uiso   1.00
C347   C     0.81517   0.50404   0.40654   0.00000  Uiso   1.00
C348   C     0.85149   0.49596   0.09346   0.00000  Uiso   1.00
C349   C     0.79820   0.49596   0.45142   0.00000  Uiso   1.00
C350   C     0.86847   0.50403   0.04858   0.00000  Uiso   1.00
C351   C     0.73719   0.46899   0.46877   0.00000  Uiso   1.00
C352   C     0.92948   0.53100   0.03123   0.00000  Uiso   1.00
C353   C     0.84149   0.50989   0.47861   0.00000  Uiso   1.00
C354   C     0.82518   0.49010   0.02139   0.00000  Uiso   1.00
Cu355  Cu    0.77404   0.49441   0.24517   0.00000  Uiso   1.00
Cu356  Cu    0.89263   0.50559   0.25484   0.00000  Uiso   1.00
H357   H     0.67704   0.42583   0.02261   0.00000  Uiso   1.00
H358   H     0.98965   0.57416   0.47738   0.00000  Uiso   1.00
H359   H     0.80374   0.48315   0.10938   0.00000  Uiso   1.00
H360   H     0.86292   0.51687   0.39062   0.00000  Uiso   1.00
H361   H     0.97933   0.43794   0.45663   0.00000  Uiso   1.00
H362   H     0.68735   0.56204   0.04336   0.00000  Uiso   1.00
N363   N     0.98173   0.51401   0.26212   0.00000  Uiso   1.00
N364   N     0.68494   0.48599   0.23788   0.00000  Uiso   1.00
O365   O     0.79482   0.57142   0.24686   0.00000  Uiso   1.00
O366   O     0.87185   0.42858   0.25314   0.00000  Uiso   1.00
O367   O     0.89496   0.58086   0.25503   0.00000  Uiso   1.00
O368   O     0.77171   0.41914   0.24498   0.00000  Uiso   1.00
O369   O     0.75518   0.49263   0.30855   0.00000  Uiso   1.00
O370   O     0.91149   0.50737   0.19146   0.00000  Uiso   1.00
O371   O     0.85532   0.50207   0.31671   0.00000  Uiso   1.00
O372   O     0.81134   0.49793   0.18329   0.00000  Uiso   1.00
F373   F     0.99968   0.54469   0.12502   0.00000  Uiso   1.00
F374   F     0.66699   0.45530   0.37498   0.00000  Uiso   1.00
F375   F     0.75211   0.42717   0.07051   0.00000  Uiso   1.00
F376   F     0.91457   0.57282   0.42948   0.00000  Uiso   1.00
O377   O     0.90845   0.34481   0.21022   0.00000  Uiso   1.00
C378   C     0.92597   0.64471   0.17382   0.00000  Uiso   1.00
H379   H     0.88497   0.62288   0.16204   0.00000  Uiso   1.00
H380   H     0.95403   0.61759   0.18143   0.00000  Uiso   1.00
H381   H     0.95583   0.33492   0.14652   0.00000  Uiso   1.00
O382   O     0.75821   0.65519   0.28977   0.00000  Uiso   1.00
C383   C     0.74065   0.35529   0.32616   0.00000  Uiso   1.00
H384   H     0.71259   0.38239   0.31854   0.00000  Uiso   1.00
H385   H     0.78162   0.37713   0.33795   0.00000  Uiso   1.00
H386   H     0.71078   0.66510   0.35347   0.00000  Uiso   1.00
O387   O     0.67756   0.55475   0.28246   0.00000  Uiso   1.00
C388   C     0.97537   0.55814   0.32518   0.00000  Uiso   1.00
H389   H     0.67287   0.57890   0.34590   0.00000  Uiso   1.00
H390   H     0.95677   0.51912   0.33931   0.00000  Uiso   1.00
H391   H     0.93780   0.58071   0.32666   0.00000  Uiso   1.00
O392   O     0.98911   0.44525   0.21754   0.00000  Uiso   1.00
C393   C     0.69131   0.44185   0.17482   0.00000  Uiso   1.00
H394   H     0.72888   0.41928   0.17335   0.00000  Uiso   1.00
H395   H     0.70991   0.48087   0.16069   0.00000  Uiso   1.00
H396   H     0.99381   0.42109   0.15410   0.00000  Uiso   1.00
C397   C     0.18136   0.93273   0.24929   0.00000  Uiso   1.00
C398   C     0.15197   0.73394   0.25071   0.00000  Uiso   1.00
C399   C     0.09974   0.79026   0.03512   0.00000  Uiso   1.00
C400   C     0.23361   0.87640   0.46487   0.00000  Uiso   1.00
C401   C     0.05552   0.78311   0.01031   0.00000  Uiso   1.00
C402   C     0.27782   0.88355   0.48969   0.00000  Uiso   1.00
C403   C     0.18954   0.98699   0.24009   0.00000  Uiso   1.00
C404   C     0.14379   0.67967   0.25991   0.00000  Uiso   1.00
C405   C     0.12849   0.82938   0.33292   0.00000  Uiso   1.00
C406   C     0.20484   0.83729   0.16708   0.00000  Uiso   1.00
C407   C     0.10556   0.82413   0.38028   0.00000  Uiso   1.00
C408   C     0.22777   0.84254   0.11972   0.00000  Uiso   1.00
C409   C     0.02646   0.79096   0.44309   0.00000  Uiso   1.00
C410   C     0.30689   0.87570   0.05691   0.00000  Uiso   1.00
C411   C     0.04344   0.80253   0.39922   0.00000  Uiso   1.00
C412   C     0.28990   0.86413   0.10078   0.00000  Uiso   1.00
C413   C     0.14851   0.83738   0.40654   0.00000  Uiso   1.00
C414   C     0.18483   0.82930   0.09346   0.00000  Uiso   1.00
C415   C     0.13153   0.82930   0.45142   0.00000  Uiso   1.00
C416   C     0.20181   0.83737   0.04858   0.00000  Uiso   1.00
C417   C     0.07053   0.80232   0.46877   0.00000  Uiso   1.00
C418   C     0.26282   0.86434   0.03123   0.00000  Uiso   1.00
C419   C     0.17483   0.84323   0.47861   0.00000  Uiso   1.00
C420   C     0.15852   0.82344   0.02139   0.00000  Uiso   1.00
Cu421  Cu    0.10737   0.82775   0.24517   0.00000  Uiso   1.00
Cu422  Cu    0.22596   0.83892   0.25484   0.00000  Uiso   1.00
H423   H     0.01037   0.75916   0.02261   0.00000  Uiso   1.00
H424   H     0.32298   0.90749   0.47738   0.00000  Uiso   1.00
H425   H     0.13708   0.81648   0.10938   0.00000  Uiso   1.00
H426   H     0.19625   0.85020   0.39062   0.00000  Uiso   1.00
H427   H     0.31266   0.77127   0.45663   0.00000  Uiso   1.00
H428   H     0.02068   0.89537   0.04336   0.00000  Uiso   1.00
N429   N     0.31506   0.84735   0.26212   0.00000  Uiso   1.00
N430   N     0.01827   0.81932   0.23788   0.00000  Uiso   1.00
O431   O     0.12815   0.90476   0.24686   0.00000  Uiso   1.00
O432   O     0.20518   0.76191   0.25314   0.00000  Uiso   1.00
O433   O     0.22829   0.91420   0.25503   0.00000  Uiso   1.00
O434   O     0.10504   0.75247   0.24498   0.00000  Uiso   1.00
O435   O     0.08851   0.82597   0.30855   0.00000  Uiso   1.00
O436   O     0.24482   0.84070   0.19146   0.00000  Uiso   1.00
O437   O     0.18866   0.83540   0.31671   0.00000  Uiso   1.00
O438   O     0.14468   0.83126   0.18329   0.00000  Uiso   1.00
F439   F     0.33301   0.87802   0.12502   0.00000  Uiso   1.00
F440   F     0.00033   0.78863   0.37498   0.00000  Uiso   1.00
F441   F     0.08545   0.76051   0.07051   0.00000  Uiso   1.00
F442   F     0.24791   0.90615   0.42948   0.00000  Uiso   1.00
O443   O     0.24178   0.67814   0.21022   0.00000  Uiso   1.00
C444   C     0.25930   0.97804   0.17382   0.00000  Uiso   1.00
H445   H     0.21831   0.95621   0.16204   0.00000  Uiso   1.00
H446   H     0.28737   0.95093   0.18143   0.00000  Uiso   1.00
H447   H     0.28917   0.66825   0.14652   0.00000  Uiso   1.00
O448   O     0.09155   0.98852   0.28977   0.00000  Uiso   1.00
C449   C     0.07399   0.68863   0.32616   0.00000  Uiso   1.00
H450   H     0.04592   0.71572   0.31854   0.00000  Uiso   1.00
H451   H     0.11495   0.71047   0.33795   0.00000  Uiso   1.00
H452   H     0.04411   0.99843   0.35347   0.00000  Uiso   1.00
O453   O     0.01089   0.88808   0.28246   0.00000  Uiso   1.00
C454   C     0.30870   0.89147   0.32518   0.00000  Uiso   1.00
H455   H     0.00620   0.91223   0.34590   0.00000  Uiso   1.00
H456   H     0.29011   0.85245   0.33931   0.00000  Uiso   1.00
H457   H     0.27113   0.91405   0.32666   0.00000  Uiso   1.00
O458   O     0.32244   0.77858   0.21754   0.00000  Uiso   1.00
C459   C     0.02464   0.77518   0.17482   0.00000  Uiso   1.00
H460   H     0.06221   0.75261   0.17335   0.00000  Uiso   1.00
H461   H     0.04324   0.81420   0.16069   0.00000  Uiso   1.00
H462   H     0.32714   0.75442   0.15410   0.00000  Uiso   1.00
C463   C     0.51470   0.93273   0.24929   0.00000  Uiso   1.00
C464   C     0.48530   0.73394   0.25071   0.00000  Uiso   1.00
C465   C     0.43308   0.79026   0.03512   0.00000  Uiso   1.00
C466   C     0.56694   0.87640   0.46487   0.00000  Uiso   1.00
C467   C     0.38886   0.78311   0.01031   0.00000  Uiso   1.00
C468   C     0.61116   0.88355   0.48969   0.00000  Uiso   1.00
C469   C     0.52287   0.98699   0.24009   0.00000  Uiso   1.00
C470   C     0.47713   0.67967   0.25991   0.00000  Uiso   1.00
C471   C     0.46182   0.82938   0.33292   0.00000  Uiso   1.00
C472   C     0.53818   0.83729   0.16708   0.00000  Uiso   1.00
C473   C     0.43890   0.82413   0.38028   0.00000  Uiso   1.00
C474   C     0.56111   0.84254   0.11972   0.00000  Uiso   1.00
C475   C     0.35979   0.79096   0.44309   0.00000  Uiso   1.00
C476   C     0.64022   0.87570   0.05691   0.00000  Uiso   1.00
C477   C     0.37678   0.80253   0.39922   0.00000  Uiso   1.00
C478   C     0.62323   0.86413   0.10078   0.00000  Uiso   1.00
C479   C     0.48184   0.83738   0.40654   0.00000  Uiso   1.00
C480   C     0.51816   0.82930   0.09346   0.00000  Uiso   1.00
C481   C     0.46487   0.82930   0.45142   0.00000  Uiso   1.00
C482   C     0.53514   0.83737   0.04858   0.00000  Uiso   1.00
C483   C     0.40386   0.80232   0.46877   0.00000  Uiso   1.00
C484   C     0.59615   0.86434   0.03123   0.00000  Uiso   1.00
C485   C     0.50816   0.84323   0.47861   0.00000  Uiso   1.00
C486   C     0.49185   0.82344   0.02139   0.00000  Uiso   1.00
Cu487  Cu    0.44071   0.82775   0.24517   0.00000  Uiso   1.00
Cu488  Cu    0.55929   0.83892   0.25484   0.00000  Uiso   1.00
H489   H     0.34370   0.75916   0.02261   0.00000  Uiso   1.00
H490   H     0.65632   0.90749   0.47738   0.00000  Uiso   1.00
H491   H     0.47041   0.81648   0.10938   0.00000  Uiso   1.00
H492   H     0.52959   0.85020   0.39062   0.00000  Uiso   1.00
H493   H     0.64600   0.77127   0.45663   0.00000  Uiso   1.00
H494   H     0.35402   0.89537   0.04336   0.00000  Uiso   1.00
N495   N     0.64839   0.84735   0.26212   0.00000  Uiso   1.00
N496   N     0.35161   0.81932   0.23788   0.00000  Uiso   1.00
O497   O     0.46148   0.90476   0.24686   0.00000  Uiso   1.00
O498   O     0.53852   0.76191   0.25314   0.00000  Uiso   1.00
O499   O     0.56163   0.91420   0.25503   0.00000  Uiso   1.00
O500   O     0.43837   0.75247   0.24498   0.00000  Uiso   1.00
O501   O     0.42185   0.82597   0.30855   0.00000  Uiso   1.00
O502   O     0.57815   0.84070   0.19146   0.00000  Uiso   1.00
O503   O     0.52199   0.83540   0.31671   0.00000  Uiso   1.00
O504   O     0.47801   0.83126   0.18329   0.00000  Uiso   1.00
F505   F     0.66635   0.87802   0.12502   0.00000  Uiso   1.00
F506   F     0.33366   0.78863   0.37498   0.00000  Uiso   1.00
F507   F     0.41878   0.76051   0.07051   0.00000  Uiso   1.00
F508   F     0.58124   0.90615   0.42948   0.00000  Uiso   1.00
O509   O     0.57511   0.67814   0.21022   0.00000  Uiso   1.00
C510   C     0.59263   0.97804   0.17382   0.00000  Uiso   1.00
H511   H     0.55164   0.95621   0.16204   0.00000  Uiso   1.00
H512   H     0.62070   0.95093   0.18143   0.00000  Uiso   1.00
H513   H     0.62250   0.66825   0.14652   0.00000  Uiso   1.00
O514   O     0.42488   0.98852   0.28977   0.00000  Uiso   1.00
C515   C     0.40732   0.68863   0.32616   0.00000  Uiso   1.00
H516   H     0.37926   0.71572   0.31854   0.00000  Uiso   1.00
H517   H     0.44829   0.71047   0.33795   0.00000  Uiso   1.00
H518   H     0.37744   0.99843   0.35347   0.00000  Uiso   1.00
O519   O     0.34422   0.88808   0.28246   0.00000  Uiso   1.00
C520   C     0.64204   0.89147   0.32518   0.00000  Uiso   1.00
H521   H     0.33954   0.91223   0.34590   0.00000  Uiso   1.00
H522   H     0.62344   0.85245   0.33931   0.00000  Uiso   1.00
H523   H     0.60446   0.91405   0.32666   0.00000  Uiso   1.00
O524   O     0.65578   0.77858   0.21754   0.00000  Uiso   1.00
C525   C     0.35797   0.77518   0.17482   0.00000  Uiso   1.00
H526   H     0.39554   0.75261   0.17335   0.00000  Uiso   1.00
H527   H     0.37657   0.81420   0.16069   0.00000  Uiso   1.00
H528   H     0.66048   0.75442   0.15410   0.00000  Uiso   1.00
C529   C     0.84803   0.93273   0.24929   0.00000  Uiso   1.00
C530   C     0.81864   0.73394   0.25071   0.00000  Uiso   1.00
C531   C     0.76641   0.79026   0.03512   0.00000  Uiso   1.00
C532   C     0.90027   0.87640   0.46487   0.00000  Uiso   1.00
C533   C     0.72219   0.78311   0.01031   0.00000  Uiso   1.00
C534   C     0.94449   0.88355   0.48969   0.00000  Uiso   1.00
C535   C     0.85620   0.98699   0.24009   0.00000  Uiso   1.00
C536   C     0.81046   0.67967   0.25991   0.00000  Uiso   1.00
C537   C     0.79516   0.82938   0.33292   0.00000  Uiso   1.00
C538   C     0.87151   0.83729   0.16708   0.00000  Uiso   1.00
C539   C     0.77223   0.82413   0.38028   0.00000  Uiso   1.00
C540   C     0.89444   0.84254   0.11972   0.00000  Uiso   1.00
C541   C     0.69312   0.79096   0.44309   0.00000  Uiso   1.00
C542   C     0.97355   0.87570   0.05691   0.00000  Uiso   1.00
C543   C     0.71011   0.80253   0.39922   0.00000  Uiso   1.00
C544   C     0.95656   0.86413   0.10078   0.00000  Uiso   1.00
C545   C     0.81517   0.83738   0.40654   0.00000  Uiso   1.00
C546   C     0.85149   0.82930   0.09346   0.00000  Uiso   1.00
C547   C     0.79820   0.82930   0.45142   0.00000  Uiso   1.00
C548   C     0.86847   0.83737   0.04858   0.00000  Uiso   1.00
C549   C     0.73719   0.80232   0.46877   0.00000  Uiso   1.00
C550   C     0.92948   0.86434   0.03123   0.00000  Uiso   1.00
C551   C     0.84149   0.84323   0.47861   0.00000  Uiso   1.00
C552   C     0.82518   0.82344   0.02139   0.00000  Uiso   1.00
Cu553  Cu    0.77404   0.82775   0.24517   0.00000  Uiso   1.00
Cu554  Cu    0.89263   0.83892   0.25484   0.00000  Uiso   1.00
H555   H     0.67704   0.75916   0.02261   0.00000  Uiso   1.00
H556   H     0.98965   0.90749   0.47738   0.00000  Uiso   1.00
H557   H     0.80374   0.81648   0.10938   0.00000  Uiso   1.00
H558   H     0.86292   0.85020   0.39062   0.00000  Uiso   1.00
H559   H     0.97933   0.77127   0.45663   0.00000  Uiso   1.00
H560   H     0.68735   0.89537   0.04336   0.00000  Uiso   1.00
N561   N     0.98173   0.84735   0.26212   0.00000  Uiso   1.00
N562   N     0.68494   0.81932   0.23788   0.00000  Uiso   1.00
O563   O     0.79482   0.90476   0.24686   0.00000  Uiso   1.00
O564   O     0.87185   0.76191   0.25314   0.00000  Uiso   1.00
O565   O     0.89496   0.91420   0.25503   0.00000  Uiso   1.00
O566   O     0.77171   0.75247   0.24498   0.00000  Uiso   1.00
O567   O     0.75518   0.82597   0.30855   0.00000  Uiso   1.00
O568   O     0.91149   0.84070   0.19146   0.00000  Uiso   1.00
O569   O     0.85532   0.83540   0.31671   0.00000  Uiso   1.00
O570   O     0.81134   0.83126   0.18329   0.00000  Uiso   1.00
F571   F     0.99968   0.87802   0.12502   0.00000  Uiso   1.00
F572   F     0.66699   0.78863   0.37498   0.00000  Uiso   1.00
F573   F     0.75211   0.76051   0.07051   0.00000  Uiso   1.00
F574   F     0.91457   0.90615   0.42948   0.00000  Uiso   1.00
O575   O     0.90845   0.67814   0.21022   0.00000  Uiso   1.00
C576   C     0.92597   0.97804   0.17382   0.00000  Uiso   1.00
H577   H     0.88497   0.95621   0.16204   0.00000  Uiso   1.00
H578   H     0.95403   0.95093   0.18143   0.00000  Uiso   1.00
H579   H     0.95583   0.66825   0.14652   0.00000  Uiso   1.00
O580   O     0.75821   0.98852   0.28977   0.00000  Uiso   1.00
C581   C     0.74065   0.68863   0.32616   0.00000  Uiso   1.00
H582   H     0.71259   0.71572   0.31854   0.00000  Uiso   1.00
H583   H     0.78162   0.71047   0.33795   0.00000  Uiso   1.00
H584   H     0.71078   0.99843   0.35347   0.00000  Uiso   1.00
O585   O     0.67756   0.88808   0.28246   0.00000  Uiso   1.00
C586   C     0.97537   0.89147   0.32518   0.00000  Uiso   1.00
H587   H     0.67287   0.91223   0.34590   0.00000  Uiso   1.00
H588   H     0.95677   0.85245   0.33931   0.00000  Uiso   1.00
H589   H     0.93780   0.91405   0.32666   0.00000  Uiso   1.00
O590   O     0.98911   0.77858   0.21754   0.00000  Uiso   1.00
C591   C     0.69131   0.77518   0.17482   0.00000  Uiso   1.00
H592   H     0.72888   0.75261   0.17335   0.00000  Uiso   1.00
H593   H     0.70991   0.81420   0.16069   0.00000  Uiso   1.00
H594   H     0.99381   0.75442   0.15410   0.00000  Uiso   1.00
C595   C     0.18136   0.26606   0.74929   0.00000  Uiso   1.00
C596   C     0.15197   0.06727   0.75071   0.00000  Uiso   1.00
C597   C     0.09974   0.12359   0.53512   0.00000  Uiso   1.00
C598   C     0.23361   0.20973   0.96487   0.00000  Uiso   1.00
C599   C     0.05552   0.11644   0.51031   0.00000  Uiso   1.00
C600   C     0.27782   0.21688   0.98969   0.00000  Uiso   1.00
C601   C     0.18954   0.32033   0.74009   0.00000  Uiso   1.00
C602   C     0.14379   0.01301   0.75991   0.00000  Uiso   1.00
C603   C     0.12849   0.16272   0.83292   0.00000  Uiso   1.00
C604   C     0.20484   0.17062   0.66708   0.00000  Uiso   1.00
C605   C     0.10556   0.15746   0.88028   0.00000  Uiso   1.00
C606   C     0.22777   0.17587   0.61972   0.00000  Uiso   1.00
C607   C     0.02646   0.12429   0.94309   0.00000  Uiso   1.00
C608   C     0.30689   0.20903   0.55691   0.00000  Uiso   1.00
C609   C     0.04344   0.13586   0.89922   0.00000  Uiso   1.00
C610   C     0.28990   0.19746   0.60078   0.00000  Uiso   1.00
C611   C     0.14851   0.17071   0.90654   0.00000  Uiso   1.00
C612   C     0.18483   0.16263   0.59346   0.00000  Uiso   1.00
C613   C     0.13153   0.16263   0.95142   0.00000  Uiso   1.00
C614   C     0.20181   0.17070   0.54858   0.00000  Uiso   1.00
C615   C     0.07053   0.13566   0.96877   0.00000  Uiso   1.00
C616   C     0.26282   0.19767   0.53123   0.00000  Uiso   1.00
C617   C     0.17483   0.17656   0.97861   0.00000  Uiso   1.00
C618   C     0.15852   0.15677   0.52139   0.00000  Uiso   1.00
Cu619  Cu    0.10737   0.16108   0.74517   0.00000  Uiso   1.00
Cu620  Cu    0.22596   0.17225   0.75484   0.00000  Uiso   1.00
H621   H     0.01037   0.09249   0.52261   0.00000  Uiso   1.00
H622   H     0.32298   0.24082   0.97738   0.00000  Uiso   1.00
H623   H     0.13708   0.14982   0.60938   0.00000  Uiso   1.00
H624   H     0.19625   0.18354   0.89062   0.00000  Uiso   1.00
H625   H     0.31266   0.10461   0.95663   0.00000  Uiso   1.00
H626   H     0.02068   0.22871   0.54336   0.00000  Uiso   1.00
N627   N     0.31506   0.18068   0.76212   0.00000  Uiso   1.00
N628   N     0.01827   0.15265   0.73788   0.00000  Uiso   1.00
O629   O     0.12815   0.23809   0.74686   0.00000  Uiso   1.00
O630   O     0.20518   0.09524   0.75314   0.00000  Uiso   1.00
O631   O     0.22829   0.24753   0.75503   0.00000  Uiso   1.00
O632   O     0.10504   0.08580   0.74498   0.00000  Uiso   1.00
O633   O     0.08851   0.15930   0.80855   0.00000  Uiso   1.00
O634   O     0.24482   0.17403   0.69146   0.00000  Uiso   1.00
O635   O     0.18866   0.16874   0.81671   0.00000  Uiso   1.00
O636   O     0.14468   0.16460   0.68329   0.00000  Uiso   1.00
F637   F     0.33301   0.21135   0.62502   0.00000  Uiso   1.00
F638   F     0.00033   0.12197   0.87498   0.00000  Uiso   1.00
F639   F     0.08545   0.09384   0.57051   0.00000  Uiso   1.00
F640   F     0.24791   0.23948   0.92948   0.00000  Uiso   1.00
O641   O     0.24178   0.01147   0.71022   0.00000  Uiso   1.00
C642   C     0.25930   0.31137   0.67382   0.00000  Uiso   1.00
H643   H     0.21831   0.28954   0.66204   0.00000  Uiso   1.00
H644   H     0.28737   0.28426   0.68143   0.00000  Uiso   1.00
H645   H     0.28917   0.00158   0.64652   0.00000  Uiso   1.00
O646   O     0.09155   0.32185   0.78977   0.00000  Uiso   1.00
C647   C     0.07399   0.02196   0.82616   0.00000  Uiso   1.00
H648   H     0.04592   0.04905   0.81854   0.00000  Uiso   1.00
H649   H     0.11495   0.04380   0.83795   0.00000  Uiso   1.00
H650   H     0.04411   0.33176   0.85347   0.00000  Uiso   1.00
O651   O     0.01089   0.22142   0.78246   0.00000  Uiso   1.00
C652   C     0.30870   0.22481   0.82518   0.00000  Uiso   1.00
H653   H     0.00620   0.24556   0.84590   0.00000  Uiso   1.00
H654   H     0.29011   0.18579   0.83931   0.00000  Uiso   1.00
H655   H     0.27113   0.24738   0.82666   0.00000  Uiso   1.00
O656   O     0.32244   0.11192   0.71754   0.00000  Uiso   1.00
C657   C     0.02464   0.10852   0.67482   0.00000  Uiso   1.00
H658   H     0.06221   0.08594   0.67335   0.00000  Uiso   1.00
H659   H     0.04324   0.14753   0.66069   0.00000  Uiso   1.00
H660   H     0.32714   0.08776   0.65410   0.00000  Uiso   1.00
C661   C     0.51470   0.26606   0.74929   0.00000  Uiso   1.00
C662   C     0.48530   0.06727   0.75071   0.00000  Uiso   1.00
C663   C     0.43308   0.12359   0.53512   0.00000  Uiso   1.00
C664   C     0.56694   0.20973   0.96487   0.00000  Uiso   1.00
C665   C     0.38886   0.11644   0.51031   0.00000  Uiso   1.00
C666   C     0.61116   0.21688   0.98969   0.00000  Uiso   1.00
C667   C     0.52287   0.32033   0.74009   0.00000  Uiso   1.00
C668   C     0.47713   0.01301   0.75991   0.00000  Uiso   1.00
C669   C     0.46182   0.16272   0.83292   0.00000  Uiso   1.00
C670   C     0.53818   0.17062   0.66708   0.00000  Uiso   1.00
C671   C     0.43890   0.15746   0.88028   0.00000  Uiso   1.00
C672   C     0.56111   0.17587   0.61972   0.00000  Uiso   1.00
C673   C     0.35979   0.12429   0.94309   0.00000  Uiso   1.00
C674   C     0.64022   0.20903   0.55691   0.00000  Uiso   1.00
C675   C     0.37678   0.13586   0.89922   0.00000  Uiso   1.00
C676   C     0.62323   0.19746   0.60078   0.00000  Uiso   1.00
C677   C     0.48184   0.17071   0.90654   0.00000  Uiso   1.00
C678   C     0.51816   0.16263   0.59346   0.00000  Uiso   1.00
C679   C     0.46487   0.16263   0.95142   0.00000  Uiso   1.00
C680   C     0.53514   0.17070   0.54858   0.00000  Uiso   1.00
C681   C     0.40386   0.13566   0.96877   0.00000  Uiso   1.00
C682   C     0.59615   0.19767   0.53123   0.00000  Uiso   1.00
C683   C     0.50816   0.17656   0.97861   0.00000  Uiso   1.00
C684   C     0.49185   0.15677   0.52139   0.00000  Uiso   1.00
Cu685  Cu    0.44071   0.16108   0.74517   0.00000  Uiso   1.00
Cu686  Cu    0.55929   0.17225   0.75484   0.00000  Uiso   1.00
H687   H     0.34370   0.09249   0.52261   0.00000  Uiso   1.00
H688   H     0.65632   0.24082   0.97738   0.00000  Uiso   1.00
H689   H     0.47041   0.14982   0.60938   0.00000  Uiso   1.00
H690   H     0.52959   0.18354   0.89062   0.00000  Uiso   1.00
H691   H     0.64600   0.10461   0.95663   0.00000  Uiso   1.00
H692   H     0.35402   0.22871   0.54336   0.00000  Uiso   1.00
N693   N     0.64839   0.18068   0.76212   0.00000  Uiso   1.00
N694   N     0.35161   0.15265   0.73788   0.00000  Uiso   1.00
O695   O     0.46148   0.23809   0.74686   0.00000  Uiso   1.00
O696   O     0.53852   0.09524   0.75314   0.00000  Uiso   1.00
O697   O     0.56163   0.24753   0.75503   0.00000  Uiso   1.00
O698   O     0.43837   0.08580   0.74498   0.00000  Uiso   1.00
O699   O     0.42185   0.15930   0.80855   0.00000  Uiso   1.00
O700   O     0.57815   0.17403   0.69146   0.00000  Uiso   1.00
O701   O     0.52199   0.16874   0.81671   0.00000  Uiso   1.00
O702   O     0.47801   0.16460   0.68329   0.00000  Uiso   1.00
F703   F     0.66635   0.21135   0.62502   0.00000  Uiso   1.00
F704   F     0.33366   0.12197   0.87498   0.00000  Uiso   1.00
F705   F     0.41878   0.09384   0.57051   0.00000  Uiso   1.00
F706   F     0.58124   0.23948   0.92948   0.00000  Uiso   1.00
O707   O     0.57511   0.01147   0.71022   0.00000  Uiso   1.00
C708   C     0.59263   0.31137   0.67382   0.00000  Uiso   1.00
H709   H     0.55164   0.28954   0.66204   0.00000  Uiso   1.00
H710   H     0.62070   0.28426   0.68143   0.00000  Uiso   1.00
H711   H     0.62250   0.00158   0.64652   0.00000  Uiso   1.00
O712   O     0.42488   0.32185   0.78977   0.00000  Uiso   1.00
C713   C     0.40732   0.02196   0.82616   0.00000  Uiso   1.00
H714   H     0.37926   0.04905   0.81854   0.00000  Uiso   1.00
H715   H     0.44829   0.04380   0.83795   0.00000  Uiso   1.00
H716   H     0.37744   0.33176   0.85347   0.00000  Uiso   1.00
O717   O     0.34422   0.22142   0.78246   0.00000  Uiso   1.00
C718   C     0.64204   0.22481   0.82518   0.00000  Uiso   1.00
H719   H     0.33954   0.24556   0.84590   0.00000  Uiso   1.00
H720   H     0.62344   0.18579   0.83931   0.00000  Uiso   1.00
H721   H     0.60446   0.24738   0.82666   0.00000  Uiso   1.00
O722   O     0.65578   0.11192   0.71754   0.00000  Uiso   1.00
C723   C     0.35797   0.10852   0.67482   0.00000  Uiso   1.00
H724   H     0.39554   0.08594   0.67335   0.00000  Uiso   1.00
H725   H     0.37657   0.14753   0.66069   0.00000  Uiso   1.00
H726   H     0.66048   0.08776   0.65410   0.00000  Uiso   1.00
C727   C     0.84803   0.26606   0.74929   0.00000  Uiso   1.00
C728   C     0.81864   0.06727   0.75071   0.00000  Uiso   1.00
C729   C     0.76641   0.12359   0.53512   0.00000  Uiso   1.00
C730   C     0.90027   0.20973   0.96487   0.00000  Uiso   1.00
C731   C     0.72219   0.11644   0.51031   0.00000  Uiso   1.00
C732   C     0.94449   0.21688   0.98969   0.00000  Uiso   1.00
C733   C     0.85620   0.32033   0.74009   0.00000  Uiso   1.00
C734   C     0.81046   0.01301   0.75991   0.00000  Uiso   1.00
C735   C     0.79516   0.16272   0.83292   0.00000  Uiso   1.00
C736   C     0.87151   0.17062   0.66708   0.00000  Uiso   1.00
C737   C     0.77223   0.15746   0.88028   0.00000  Uiso   1.00
C738   C     0.89444   0.17587   0.61972   0.00000  Uiso   1.00
C739   C     0.69312   0.12429   0.94309   0.00000  Uiso   1.00
C740   C     0.97355   0.20903   0.55691   0.00000  Uiso   1.00
C741   C     0.71011   0.13586   0.89922   0.00000  Uiso   1.00
C742   C     0.95656   0.19746   0.60078   0.00000  Uiso   1.00
C743   C     0.81517   0.17071   0.90654   0.00000  Uiso   1.00
C744   C     0.85149   0.16263   0.59346   0.00000  Uiso   1.00
C745   C     0.79820   0.16263   0.95142   0.00000  Uiso   1.00
C746   C     0.86847   0.17070   0.54858   0.00000  Uiso   1.00
C747   C     0.73719   0.13566   0.96877   0.00000  Uiso   1.00
C748   C     0.92948   0.19767   0.53123   0.00000  Uiso   1.00
C749   C     0.84149   0.17656   0.97861   0.00000  Uiso   1.00
C750   C     0.82518   0.15677   0.52139   0.00000  Uiso   1.00
Cu751  Cu    0.77404   0.16108   0.74517   0.00000  Uiso   1.00
Cu752  Cu    0.89263   0.17225   0.75484   0.00000  Uiso   1.00
H753   H     0.67704   0.09249   0.52261   0.00000  Uiso   1.00
H754   H     0.98965   0.24082   0.97738   0.00000  Uiso   1.00
H755   H     0.80374   0.14982   0.60938   0.00000  Uiso   1.00
H756   H     0.86292   0.18354   0.89062   0.00000  Uiso   1.00
H757   H     0.97933   0.10461   0.95663   0.00000  Uiso   1.00
H758   H     0.68735   0.22871   0.54336   0.00000  Uiso   1.00
N759   N     0.98173   0.18068   0.76212   0.00000  Uiso   1.00
N760   N     0.68494   0.15265   0.73788   0.00000  Uiso   1.00
O761   O     0.79482   0.23809   0.74686   0.00000  Uiso   1.00
O762   O     0.87185   0.09524   0.75314   0.00000  Uiso   1.00
O763   O     0.89496   0.24753   0.75503   0.00000  Uiso   1.00
O764   O     0.77171   0.08580   0.74498   0.00000  Uiso   1.00
O765   O     0.75518   0.15930   0.80855   0.00000  Uiso   1.00
O766   O     0.91149   0.17403   0.69146   0.00000  Uiso   1.00
O767   O     0.85532   0.16874   0.81671   0.00000  Uiso   1.00
O768   O     0.81134   0.16460   0.68329   0.00000  Uiso   1.00
F769   F     0.99968   0.21135   0.62502   0.00000  Uiso   1.00
F770   F     0.66699   0.12197   0.87498   0.00000  Uiso   1.00
F771   F     0.75211   0.09384   0.57051   0.00000  Uiso   1.00
F772   F     0.91457   0.23948   0.92948   0.00000  Uiso   1.00
O773   O     0.90845   0.01147   0.71022   0.00000  Uiso   1.00
C774   C     0.92597   0.31137   0.67382   0.00000  Uiso   1.00
H775   H     0.88497   0.28954   0.66204   0.00000  Uiso   1.00
H776   H     0.95403   0.28426   0.68143   0.00000  Uiso   1.00
H777   H     0.95583   0.00158   0.64652   0.00000  Uiso   1.00
O778   O     0.75821   0.32185   0.78977   0.00000  Uiso   1.00
C779   C     0.74065   0.02196   0.82616   0.00000  Uiso   1.00
H780   H     0.71259   0.04905   0.81854   0.00000  Uiso   1.00
H781   H     0.78162   0.04380   0.83795   0.00000  Uiso   1.00
H782   H     0.71078   0.33176   0.85347   0.00000  Uiso   1.00
O783   O     0.67756   0.22142   0.78246   0.00000  Uiso   1.00
C784   C     0.97537   0.22481   0.82518   0.00000  Uiso   1.00
H785   H     0.67287   0.24556   0.84590   0.00000  Uiso   1.00
H786   H     0.95677   0.18579   0.83931   0.00000  Uiso   1.00
H787   H     0.93780   0.24738   0.82666   0.00000  Uiso   1.00
O788   O     0.98911   0.11192   0.71754   0.00000  Uiso   1.00
C789   C     0.69131   0.10852   0.67482   0.00000  Uiso   1.00
H790   H     0.72888   0.08594   0.67335   0.00000  Uiso   1.00
H791   H     0.70991   0.14753   0.66069   0.00000  Uiso   1.00
H792   H     0.99381   0.08776   0.65410   0.00000  Uiso   1.00
C793   C     0.18136   0.59939   0.74929   0.00000  Uiso   1.00
C794   C     0.15197   0.40061   0.75071   0.00000  Uiso   1.00
C795   C     0.09974   0.45693   0.53512   0.00000  Uiso   1.00
C796   C     0.23361   0.54307   0.96487   0.00000  Uiso   1.00
C797   C     0.05552   0.44977   0.51031   0.00000  Uiso   1.00
C798   C     0.27782   0.55021   0.98969   0.00000  Uiso   1.00
C799   C     0.18954   0.65366   0.74009   0.00000  Uiso   1.00
C800   C     0.14379   0.34634   0.75991   0.00000  Uiso   1.00
C801   C     0.12849   0.49605   0.83292   0.00000  Uiso   1.00
C802   C     0.20484   0.50395   0.66708   0.00000  Uiso   1.00
C803   C     0.10556   0.49080   0.88028   0.00000  Uiso   1.00
C804   C     0.22777   0.50920   0.61972   0.00000  Uiso   1.00
C805   C     0.02646   0.45762   0.94309   0.00000  Uiso   1.00
C806   C     0.30689   0.54237   0.55691   0.00000  Uiso   1.00
C807   C     0.04344   0.46919   0.89922   0.00000  Uiso   1.00
C808   C     0.28990   0.53080   0.60078   0.00000  Uiso   1.00
C809   C     0.14851   0.50404   0.90654   0.00000  Uiso   1.00
C810   C     0.18483   0.49596   0.59346   0.00000  Uiso   1.00
C811   C     0.13153   0.49596   0.95142   0.00000  Uiso   1.00
C812   C     0.20181   0.50403   0.54858   0.00000  Uiso   1.00
C813   C     0.07053   0.46899   0.96877   0.00000  Uiso   1.00
C814   C     0.26282   0.53100   0.53123   0.00000  Uiso   1.00
C815   C     0.17483   0.50989   0.97861   0.00000  Uiso   1.00
C816   C     0.15852   0.49010   0.52139   0.00000  Uiso   1.00
Cu817  Cu    0.10737   0.49441   0.74517   0.00000  Uiso   1.00
Cu818  Cu    0.22596   0.50559   0.75484   0.00000  Uiso   1.00
H819   H     0.01037   0.42583   0.52261   0.00000  Uiso   1.00
H820   H     0.32298   0.57416   0.97738   0.00000  Uiso   1.00
H821   H     0.13708   0.48315   0.60938   0.00000  Uiso   1.00
H822   H     0.19625   0.51687   0.89062   0.00000  Uiso   1.00
H823   H     0.31266   0.43794   0.95663   0.00000  Uiso   1.00
H824   H     0.02068   0.56204   0.54336   0.00000  Uiso   1.00
N825   N     0.31506   0.51401   0.76212   0.00000  Uiso   1.00
N826   N     0.01827   0.48599   0.73788   0.00000  Uiso   1.00
O827   O     0.12815   0.57142   0.74686   0.00000  Uiso   1.00
O828   O     0.20518   0.42858   0.75314   0.00000  Uiso   1.00
O829   O     0.22829   0.58086   0.75503   0.00000  Uiso   1.00
O830   O     0.10504   0.41914   0.74498   0.00000  Uiso   1.00
O831   O     0.08851   0.49263   0.80855   0.00000  Uiso   1.00
O832   O     0.24482   0.50737   0.69146   0.00000  Uiso   1.00
O833   O     0.18866   0.50207   0.81671   0.00000  Uiso   1.00
O834   O     0.14468   0.49793   0.68329   0.00000  Uiso   1.00
F835   F     0.33301   0.54469   0.62502   0.00000  Uiso   1.00
F836   F     0.00033   0.45530   0.87498   0.00000  Uiso   1.00
F837   F     0.08545   0.42717   0.57051   0.00000  Uiso   1.00
F838   F     0.24791   0.57282   0.92948   0.00000  Uiso   1.00
O839   O     0.24178   0.34481   0.71022   0.00000  Uiso   1.00
C840   C     0.25930   0.64471   0.67382   0.00000  Uiso   1.00
H841   H     0.21831   0.62288   0.66204   0.00000  Uiso   1.00
H842   H     0.28737   0.61759   0.68143   0.00000  Uiso   1.00
H843   H     0.28917   0.33492   0.64652   0.00000  Uiso   1.00
O844   O     0.09155   0.65519   0.78977   0.00000  Uiso   1.00
C845   C     0.07399   0.35529   0.82616   0.00000  Uiso   1.00
H846   H     0.04592   0.38239   0.81854   0.00000  Uiso   1.00
H847   H     0.11495   0.37713   0.83795   0.00000  Uiso   1.00
H848   H     0.04411   0.66510   0.85347   0.00000  Uiso   1.00
O849   O     0.01089   0.55475   0.78246   0.00000  Uiso   1.00
C850   C     0.30870   0.55814   0.82518   0.00000  Uiso   1.00
H851   H     0.00620   0.57890   0.84590   0.00000  Uiso   1.00
H852   H     0.29011   0.51912   0.83931   0.00000  Uiso   1.00
H853   H     0.27113   0.58071   0.82666   0.00000  Uiso   1.00
O854   O     0.32244   0.44525   0.71754   0.00000  Uiso   1.00
C855   C     0.02464   0.44185   0.67482   0.00000  Uiso   1.00
H856   H     0.06221   0.41928   0.67335   0.00000  Uiso   1.00
H857   H     0.04324   0.48087   0.66069   0.00000  Uiso   1.00
H858   H     0.32714   0.42109   0.65410   0.00000  Uiso   1.00
C859   C     0.51470   0.59939   0.74929   0.00000  Uiso   1.00
C860   C     0.48530   0.40061   0.75071   0.00000  Uiso   1.00
C861   C     0.43308   0.45693   0.53512   0.00000  Uiso   1.00
C862   C     0.56694   0.54307   0.96487   0.00000  Uiso   1.00
C863   C     0.38886   0.44977   0.51031   0.00000  Uiso   1.00
C864   C     0.61116   0.55021   0.98969   0.00000  Uiso   1.00
C865   C     0.52287   0.65366   0.74009   0.00000  Uiso   1.00
C866   C     0.47713   0.34634   0.75991   0.00000  Uiso   1.00
C867   C     0.46182   0.49605   0.83292   0.00000  Uiso   1.00
C868   C     0.53818   0.50395   0.66708   0.00000  Uiso   1.00
C869   C     0.43890   0.49080   0.88028   0.00000  Uiso   1.00
C870   C     0.56111   0.50920   0.61972   0.00000  Uiso   1.00
C871   C     0.35979   0.45762   0.94309   0.00000  Uiso   1.00
C872   C     0.64022   0.54237   0.55691   0.00000  Uiso   1.00
C873   C     0.37678   0.46919   0.89922   0.00000  Uiso   1.00
C874   C     0.62323   0.53080   0.60078   0.00000  Uiso   1.00
C875   C     0.48184   0.50404   0.90654   0.00000  Uiso   1.00
C876   C     0.51816   0.49596   0.59346   0.00000  Uiso   1.00
C877   C     0.46487   0.49596   0.95142   0.00000  Uiso   1.00
C878   C     0.53514   0.50403   0.54858   0.00000  Uiso   1.00
C879   C     0.40386   0.46899   0.96877   0.00000  Uiso   1.00
C880   C     0.59615   0.53100   0.53123   0.00000  Uiso   1.00
C881   C     0.50816   0.50989   0.97861   0.00000  Uiso   1.00
C882   C     0.49185   0.49010   0.52139   0.00000  Uiso   1.00
Cu883  Cu    0.44071   0.49441   0.74517   0.00000  Uiso   1.00
Cu884  Cu    0.55929   0.50559   0.75484   0.00000  Uiso   1.00
H885   H     0.34370   0.42583   0.52261   0.00000  Uiso   1.00
H886   H     0.65632   0.57416   0.97738   0.00000  Uiso   1.00
H887   H     0.47041   0.48315   0.60938   0.00000  Uiso   1.00
H888   H     0.52959   0.51687   0.89062   0.00000  Uiso   1.00
H889   H     0.64600   0.43794   0.95663   0.00000  Uiso   1.00
H890   H     0.35402   0.56204   0.54336   0.00000  Uiso   1.00
N891   N     0.64839   0.51401   0.76212   0.00000  Uiso   1.00
N892   N     0.35161   0.48599   0.73788   0.00000  Uiso   1.00
O893   O     0.46148   0.57142   0.74686   0.00000  Uiso   1.00
O894   O     0.53852   0.42858   0.75314   0.00000  Uiso   1.00
O895   O     0.56163   0.58086   0.75503   0.00000  Uiso   1.00
O896   O     0.43837   0.41914   0.74498   0.00000  Uiso   1.00
O897   O     0.42185   0.49263   0.80855   0.00000  Uiso   1.00
O898   O     0.57815   0.50737   0.69146   0.00000  Uiso   1.00
O899   O     0.52199   0.50207   0.81671   0.00000  Uiso   1.00
O900   O     0.47801   0.49793   0.68329   0.00000  Uiso   1.00
F901   F     0.66635   0.54469   0.62502   0.00000  Uiso   1.00
F902   F     0.33366   0.45530   0.87498   0.00000  Uiso   1.00
F903   F     0.41878   0.42717   0.57051   0.00000  Uiso   1.00
F904   F     0.58124   0.57282   0.92948   0.00000  Uiso   1.00
O905   O     0.57511   0.34481   0.71022   0.00000  Uiso   1.00
C906   C     0.59263   0.64471   0.67382   0.00000  Uiso   1.00
H907   H     0.55164   0.62288   0.66204   0.00000  Uiso   1.00
H908   H     0.62070   0.61759   0.68143   0.00000  Uiso   1.00
H909   H     0.62250   0.33492   0.64652   0.00000  Uiso   1.00
O910   O     0.42488   0.65519   0.78977   0.00000  Uiso   1.00
C911   C     0.40732   0.35529   0.82616   0.00000  Uiso   1.00
H912   H     0.37926   0.38239   0.81854   0.00000  Uiso   1.00
H913   H     0.44829   0.37713   0.83795   0.00000  Uiso   1.00
H914   H     0.37744   0.66510   0.85347   0.00000  Uiso   1.00
O915   O     0.34422   0.55475   0.78246   0.00000  Uiso   1.00
C916   C     0.64204   0.55814   0.82518   0.00000  Uiso   1.00
H917   H     0.33954   0.57890   0.84590   0.00000  Uiso   1.00
H918   H     0.62344   0.51912   0.83931   0.00000  Uiso   1.00
H919   H     0.60446   0.58071   0.82666   0.00000  Uiso   1.00
O920   O     0.65578   0.44525   0.71754   0.00000  Uiso   1.00
C921   C     0.35797   0.44185   0.67482   0.00000  Uiso   1.00
H922   H     0.39554   0.41928   0.67335   0.00000  Uiso   1.00
H923   H     0.37657   0.48087   0.66069   0.00000  Uiso   1.00
H924   H     0.66048   0.42109   0.65410   0.00000  Uiso   1.00
C925   C     0.84803   0.59939   0.74929   0.00000  Uiso   1.00
C926   C     0.81864   0.40061   0.75071   0.00000  Uiso   1.00
C927   C     0.76641   0.45693   0.53512   0.00000  Uiso   1.00
C928   C     0.90027   0.54307   0.96487   0.00000  Uiso   1.00
C929   C     0.72219   0.44977   0.51031   0.00000  Uiso   1.00
C930   C     0.94449   0.55021   0.98969   0.00000  Uiso   1.00
C931   C     0.85620   0.65366   0.74009   0.00000  Uiso   1.00
C932   C     0.81046   0.34634   0.75991   0.00000  Uiso   1.00
C933   C     0.79516   0.49605   0.83292   0.00000  Uiso   1.00
C934   C     0.87151   0.50395   0.66708   0.00000  Uiso   1.00
C935   C     0.77223   0.49080   0.88028   0.00000  Uiso   1.00
C936   C     0.89444   0.50920   0.61972   0.00000  Uiso   1.00
C937   C     0.69312   0.45762   0.94309   0.00000  Uiso   1.00
C938   C     0.97355   0.54237   0.55691   0.00000  Uiso   1.00
C939   C     0.71011   0.46919   0.89922   0.00000  Uiso   1.00
C940   C     0.95656   0.53080   0.60078   0.00000  Uiso   1.00
C941   C     0.81517   0.50404   0.90654   0.00000  Uiso   1.00
C942   C     0.85149   0.49596   0.59346   0.00000  Uiso   1.00
C943   C     0.79820   0.49596   0.95142   0.00000  Uiso   1.00
C944   C     0.86847   0.50403   0.54858   0.00000  Uiso   1.00
C945   C     0.73719   0.46899   0.96877   0.00000  Uiso   1.00
C946   C     0.92948   0.53100   0.53123   0.00000  Uiso   1.00
C947   C     0.84149   0.50989   0.97861   0.00000  Uiso   1.00
C948   C     0.82518   0.49010   0.52139   0.00000  Uiso   1.00
Cu949  Cu    0.77404   0.49441   0.74517   0.00000  Uiso   1.00
Cu950  Cu    0.89263   0.50559   0.75484   0.00000  Uiso   1.00
H951   H     0.67704   0.42583   0.52261   0.00000  Uiso   1.00
H952   H     0.98965   0.57416   0.97738   0.00000  Uiso   1.00
H953   H     0.80374   0.48315   0.60938   0.00000  Uiso   1.00
H954   H     0.86292   0.51687   0.89062   0.00000  Uiso   1.00
H955   H     0.97933   0.43794   0.95663   0.00000  Uiso   1.00
H956   H     0.68735   0.56204   0.54336   0.00000  Uiso   1.00
N957   N     0.98173   0.51401   0.76212   0.00000  Uiso   1.00
N958   N     0.68494   0.48599   0.73788   0.00000  Uiso   1.00
O959   O     0.79482   0.57142   0.74686   0.00000  Uiso   1.00
O960   O     0.87185   0.42858   0.75314   0.00000  Uiso   1.00
O961   O     0.89496   0.58086   0.75503   0.00000  Uiso   1.00
O962   O     0.77171   0.41914   0.74498   0.00000  Uiso   1.00
O963   O     0.75518   0.49263   0.80855   0.00000  Uiso   1.00
O964   O     0.91149   0.50737   0.69146   0.00000  Uiso   1.00
O965   O     0.85532   0.50207   0.81671   0.00000  Uiso   1.00
O966   O     0.81134   0.49793   0.68329   0.00000  Uiso   1.00
F967   F     0.99968   0.54469   0.62502   0.00000  Uiso   1.00
F968   F     0.66699   0.45530   0.87498   0.00000  Uiso   1.00
F969   F     0.75211   0.42717   0.57051   0.00000  Uiso   1.00
F970   F     0.91457   0.57282   0.92948   0.00000  Uiso   1.00
O971   O     0.90845   0.34481   0.71022   0.00000  Uiso   1.00
C972   C     0.92597   0.64471   0.67382   0.00000  Uiso   1.00
H973   H     0.88497   0.62288   0.66204   0.00000  Uiso   1.00
H974   H     0.95403   0.61759   0.68143   0.00000  Uiso   1.00
H975   H     0.95583   0.33492   0.64652   0.00000  Uiso   1.00
O976   O     0.75821   0.65519   0.78977   0.00000  Uiso   1.00
C977   C     0.74065   0.35529   0.82616   0.00000  Uiso   1.00
H978   H     0.71259   0.38239   0.81854   0.00000  Uiso   1.00
H979   H     0.78162   0.37713   0.83795   0.00000  Uiso   1.00
H980   H     0.71078   0.66510   0.85347   0.00000  Uiso   1.00
O981   O     0.67756   0.55475   0.78246   0.00000  Uiso   1.00
C982   C     0.97537   0.55814   0.82518   0.00000  Uiso   1.00
H983   H     0.67287   0.57890   0.84590   0.00000  Uiso   1.00
H984   H     0.95677   0.51912   0.83931   0.00000  Uiso   1.00
H985   H     0.93780   0.58071   0.82666   0.00000  Uiso   1.00
O986   O     0.98911   0.44525   0.71754   0.00000  Uiso   1.00
C987   C     0.69131   0.44185   0.67482   0.00000  Uiso   1.00
H988   H     0.72888   0.41928   0.67335   0.00000  Uiso   1.00
H989   H     0.70991   0.48087   0.66069   0.00000  Uiso   1.00
H990   H     0.99381   0.42109   0.65410   0.00000  Uiso   1.00
C991   C     0.18136   0.93273   0.74929   0.00000  Uiso   1.00
C992   C     0.15197   0.73394   0.75071   0.00000  Uiso   1.00
C993   C     0.09974   0.79026   0.53512   0.00000  Uiso   1.00
C994   C     0.23361   0.87640   0.96487   0.00000  Uiso   1.00
C995   C     0.05552   0.78311   0.51031   0.00000  Uiso   1.00
C996   C     0.27782   0.88355   0.98969   0.00000  Uiso   1.00
C997   C     0.18954   0.98699   0.74009   0.00000  Uiso   1.00
C998   C     0.14379   0.67967   0.75991   0.00000  Uiso   1.00
C999   C     0.12849   0.82938   0.83292   0.00000  Uiso   1.00
C1000  C     0.20484   0.83729   0.66708   0.00000  Uiso   1.00
C1001  C     0.10556   0.82413   0.88028   0.00000  Uiso   1.00
C1002  C     0.22777   0.84254   0.61972   0.00000  Uiso   1.00
C1003  C     0.02646   0.79096   0.94309   0.00000  Uiso   1.00
C1004  C     0.30689   0.87570   0.55691   0.00000  Uiso   1.00
C1005  C     0.04344   0.80253   0.89922   0.00000  Uiso   1.00
C1006  C     0.28990   0.86413   0.60078   0.00000  Uiso   1.00
C1007  C     0.14851   0.83738   0.90654   0.00000  Uiso   1.00
C1008  C     0.18483   0.82930   0.59346   0.00000  Uiso   1.00
C1009  C     0.13153   0.82930   0.95142   0.00000  Uiso   1.00
C1010  C     0.20181   0.83737   0.54858   0.00000  Uiso   1.00
C1011  C     0.07053   0.80232   0.96877   0.00000  Uiso   1.00
C1012  C     0.26282   0.86434   0.53123   0.00000  Uiso   1.00
C1013  C     0.17483   0.84323   0.97861   0.00000  Uiso   1.00
C1014  C     0.15852   0.82344   0.52139   0.00000  Uiso   1.00
Cu1015 Cu    0.10737   0.82775   0.74517   0.00000  Uiso   1.00
Cu1016 Cu    0.22596   0.83892   0.75484   0.00000  Uiso   1.00
H1017  H     0.01037   0.75916   0.52261   0.00000  Uiso   1.00
H1018  H     0.32298   0.90749   0.97738   0.00000  Uiso   1.00
H1019  H     0.13708   0.81648   0.60938   0.00000  Uiso   1.00
H1020  H     0.19625   0.85020   0.89062   0.00000  Uiso   1.00
H1021  H     0.31266   0.77127   0.95663   0.00000  Uiso   1.00
H1022  H     0.02068   0.89537   0.54336   0.00000  Uiso   1.00
N1023  N     0.31506   0.84735   0.76212   0.00000  Uiso   1.00
N1024  N     0.01827   0.81932   0.73788   0.00000  Uiso   1.00
O1025  O     0.12815   0.90476   0.74686   0.00000  Uiso   1.00
O1026  O     0.20518   0.76191   0.75314   0.00000  Uiso   1.00
O1027  O     0.22829   0.91420   0.75503   0.00000  Uiso   1.00
O1028  O     0.10504   0.75247   0.74498   0.00000  Uiso   1.00
O1029  O     0.08851   0.82597   0.80855   0.00000  Uiso   1.00
O1030  O     0.24482   0.84070   0.69146   0.00000  Uiso   1.00
O1031  O     0.18866   0.83540   0.81671   0.00000  Uiso   1.00
O1032  O     0.14468   0.83126   0.68329   0.00000  Uiso   1.00
F1033  F     0.33301   0.87802   0.62502   0.00000  Uiso   1.00
F1034  F     0.00033   0.78863   0.87498   0.00000  Uiso   1.00
F1035  F     0.08545   0.76051   0.57051   0.00000  Uiso   1.00
F1036  F     0.24791   0.90615   0.92948   0.00000  Uiso   1.00
O1037  O     0.24178   0.67814   0.71022   0.00000  Uiso   1.00
C1038  C     0.25930   0.97804   0.67382   0.00000  Uiso   1.00
H1039  H     0.21831   0.95621   0.66204   0.00000  Uiso   1.00
H1040  H     0.28737   0.95093   0.68143   0.00000  Uiso   1.00
H1041  H     0.28917   0.66825   0.64652   0.00000  Uiso   1.00
O1042  O     0.09155   0.98852   0.78977   0.00000  Uiso   1.00
C1043  C     0.07399   0.68863   0.82616   0.00000  Uiso   1.00
H1044  H     0.04592   0.71572   0.81854   0.00000  Uiso   1.00
H1045  H     0.11495   0.71047   0.83795   0.00000  Uiso   1.00
H1046  H     0.04411   0.99843   0.85347   0.00000  Uiso   1.00
O1047  O     0.01089   0.88808   0.78246   0.00000  Uiso   1.00
C1048  C     0.30870   0.89147   0.82518   0.00000  Uiso   1.00
H1049  H     0.00620   0.91223   0.84590   0.00000  Uiso   1.00
H1050  H     0.29011   0.85245   0.83931   0.00000  Uiso   1.00
H1051  H     0.27113   0.91405   0.82666   0.00000  Uiso   1.00
O1052  O     0.32244   0.77858   0.71754   0.00000  Uiso   1.00
C1053  C     0.02464   0.77518   0.67482   0.00000  Uiso   1.00
H1054  H     0.06221   0.75261   0.67335   0.00000  Uiso   1.00
H1055  H     0.04324   0.81420   0.66069   0.00000  Uiso   1.00
H1056  H     0.32714   0.75442   0.65410   0.00000  Uiso   1.00
C1057  C     0.51470   0.93273   0.74929   0.00000  Uiso   1.00
C1058  C     0.48530   0.73394   0.75071   0.00000  Uiso   1.00
C1059  C     0.43308   0.79026   0.53512   0.00000  Uiso   1.00
C1060  C     0.56694   0.87640   0.96487   0.00000  Uiso   1.00
C1061  C     0.38886   0.78311   0.51031   0.00000  Uiso   1.00
C1062  C     0.61116   0.88355   0.98969   0.00000  Uiso   1.00
C1063  C     0.52287   0.98699   0.74009   0.00000  Uiso   1.00
C1064  C     0.47713   0.67967   0.75991   0.00000  Uiso   1.00
C1065  C     0.46182   0.82938   0.83292   0.00000  Uiso   1.00
C1066  C     0.53818   0.83729   0.66708   0.00000  Uiso   1.00
C1067  C     0.43890   0.82413   0.88028   0.00000  Uiso   1.00
C1068  C     0.56111   0.84254   0.61972   0.00000  Uiso   1.00
C1069  C     0.35979   0.79096   0.94309   0.00000  Uiso   1.00
C1070  C     0.64022   0.87570   0.55691   0.00000  Uiso   1.00
C1071  C     0.37678   0.80253   0.89922   0.00000  Uiso   1.00
C1072  C     0.62323   0.86413   0.60078   0.00000  Uiso   1.00
C1073  C     0.48184   0.83738   0.90654   0.00000  Uiso   1.00
C1074  C     0.51816   0.82930   0.59346   0.00000  Uiso   1.00
C1075  C     0.46487   0.82930   0.95142   0.00000  Uiso   1.00
C1076  C     0.53514   0.83737   0.54858   0.00000  Uiso   1.00
C1077  C     0.40386   0.80232   0.96877   0.00000  Uiso   1.00
C1078  C     0.59615   0.86434   0.53123   0.00000  Uiso   1.00
C1079  C     0.50816   0.84323   0.97861   0.00000  Uiso   1.00
C1080  C     0.49185   0.82344   0.52139   0.00000  Uiso   1.00
Cu1081 Cu    0.44071   0.82775   0.74517   0.00000  Uiso   1.00
Cu1082 Cu    0.55929   0.83892   0.75484   0.00000  Uiso   1.00
H1083  H     0.34370   0.75916   0.52261   0.00000  Uiso   1.00
H1084  H     0.65632   0.90749   0.97738   0.00000  Uiso   1.00
H1085  H     0.47041   0.81648   0.60938   0.00000  Uiso   1.00
H1086  H     0.52959   0.85020   0.89062   0.00000  Uiso   1.00
H1087  H     0.64600   0.77127   0.95663   0.00000  Uiso   1.00
H1088  H     0.35402   0.89537   0.54336   0.00000  Uiso   1.00
N1089  N     0.64839   0.84735   0.76212   0.00000  Uiso   1.00
N1090  N     0.35161   0.81932   0.73788   0.00000  Uiso   1.00
O1091  O     0.46148   0.90476   0.74686   0.00000  Uiso   1.00
O1092  O     0.53852   0.76191   0.75314   0.00000  Uiso   1.00
O1093  O     0.56163   0.91420   0.75503   0.00000  Uiso   1.00
O1094  O     0.43837   0.75247   0.74498   0.00000  Uiso   1.00
O1095  O     0.42185   0.82597   0.80855   0.00000  Uiso   1.00
O1096  O     0.57815   0.84070   0.69146   0.00000  Uiso   1.00
O1097  O     0.52199   0.83540   0.81671   0.00000  Uiso   1.00
O1098  O     0.47801   0.83126   0.68329   0.00000  Uiso   1.00
F1099  F     0.66635   0.87802   0.62502   0.00000  Uiso   1.00
F1100  F     0.33366   0.78863   0.87498   0.00000  Uiso   1.00
F1101  F     0.41878   0.76051   0.57051   0.00000  Uiso   1.00
F1102  F     0.58124   0.90615   0.92948   0.00000  Uiso   1.00
O1103  O     0.57511   0.67814   0.71022   0.00000  Uiso   1.00
C1104  C     0.59263   0.97804   0.67382   0.00000  Uiso   1.00
H1105  H     0.55164   0.95621   0.66204   0.00000  Uiso   1.00
H1106  H     0.62070   0.95093   0.68143   0.00000  Uiso   1.00
H1107  H     0.62250   0.66825   0.64652   0.00000  Uiso   1.00
O1108  O     0.42488   0.98852   0.78977   0.00000  Uiso   1.00
C1109  C     0.40732   0.68863   0.82616   0.00000  Uiso   1.00
H1110  H     0.37926   0.71572   0.81854   0.00000  Uiso   1.00
H1111  H     0.44829   0.71047   0.83795   0.00000  Uiso   1.00
H1112  H     0.37744   0.99843   0.85347   0.00000  Uiso   1.00
O1113  O     0.34422   0.88808   0.78246   0.00000  Uiso   1.00
C1114  C     0.64204   0.89147   0.82518   0.00000  Uiso   1.00
H1115  H     0.33954   0.91223   0.84590   0.00000  Uiso   1.00
H1116  H     0.62344   0.85245   0.83931   0.00000  Uiso   1.00
H1117  H     0.60446   0.91405   0.82666   0.00000  Uiso   1.00
O1118  O     0.65578   0.77858   0.71754   0.00000  Uiso   1.00
C1119  C     0.35797   0.77518   0.67482   0.00000  Uiso   1.00
H1120  H     0.39554   0.75261   0.67335   0.00000  Uiso   1.00
H1121  H     0.37657   0.81420   0.66069   0.00000  Uiso   1.00
H1122  H     0.66048   0.75442   0.65410   0.00000  Uiso   1.00
C1123  C     0.84803   0.93273   0.74929   0.00000  Uiso   1.00
C1124  C     0.81864   0.73394   0.75071   0.00000  Uiso   1.00
C1125  C     0.76641   0.79026   0.53512   0.00000  Uiso   1.00
C1126  C     0.90027   0.87640   0.96487   0.00000  Uiso   1.00
C1127  C     0.72219   0.78311   0.51031   0.00000  Uiso   1.00
C1128  C     0.94449   0.88355   0.98969   0.00000  Uiso   1.00
C1129  C     0.85620   0.98699   0.74009   0.00000  Uiso   1.00
C1130  C     0.81046   0.67967   0.75991   0.00000  Uiso   1.00
C1131  C     0.79516   0.82938   0.83292   0.00000  Uiso   1.00
C1132  C     0.87151   0.83729   0.66708   0.00000  Uiso   1.00
C1133  C     0.77223   0.82413   0.88028   0.00000  Uiso   1.00
C1134  C     0.89444   0.84254   0.61972   0.00000  Uiso   1.00
C1135  C     0.69312   0.79096   0.94309   0.00000  Uiso   1.00
C1136  C     0.97355   0.87570   0.55691   0.00000  Uiso   1.00
C1137  C     0.71011   0.80253   0.89922   0.00000  Uiso   1.00
C1138  C     0.95656   0.86413   0.60078   0.00000  Uiso   1.00
C1139  C     0.81517   0.83738   0.90654   0.00000  Uiso   1.00
C1140  C     0.85149   0.82930   0.59346   0.00000  Uiso   1.00
C1141  C     0.79820   0.82930   0.95142   0.00000  Uiso   1.00
C1142  C     0.86847   0.83737   0.54858   0.00000  Uiso   1.00
C1143  C     0.73719   0.80232   0.96877   0.00000  Uiso   1.00
C1144  C     0.92948   0.86434   0.53123   0.00000  Uiso   1.00
C1145  C     0.84149   0.84323   0.97861   0.00000  Uiso   1.00
C1146  C     0.82518   0.82344   0.52139   0.00000  Uiso   1.00
Cu1147 Cu    0.77404   0.82775   0.74517   0.00000  Uiso   1.00
Cu1148 Cu    0.89263   0.83892   0.75484   0.00000  Uiso   1.00
H1149  H     0.67704   0.75916   0.52261   0.00000  Uiso   1.00
H1150  H     0.98965   0.90749   0.97738   0.00000  Uiso   1.00
H1151  H     0.80374   0.81648   0.60938   0.00000  Uiso   1.00
H1152  H     0.86292   0.85020   0.89062   0.00000  Uiso   1.00
H1153  H     0.97933   0.77127   0.95663   0.00000  Uiso   1.00
H1154  H     0.68735   0.89537   0.54336   0.00000  Uiso   1.00
N1155  N     0.98173   0.84735   0.76212   0.00000  Uiso   1.00
N1156  N     0.68494   0.81932   0.73788   0.00000  Uiso   1.00
O1157  O     0.79482   0.90476   0.74686   0.00000  Uiso   1.00
O1158  O     0.87185   0.76191   0.75314   0.00000  Uiso   1.00
O1159  O     0.89496   0.91420   0.75503   0.00000  Uiso   1.00
O1160  O     0.77171   0.75247   0.74498   0.00000  Uiso   1.00
O1161  O     0.75518   0.82597   0.80855   0.00000  Uiso   1.00
O1162  O     0.91149   0.84070   0.69146   0.00000  Uiso   1.00
O1163  O     0.85532   0.83540   0.81671   0.00000  Uiso   1.00
O1164  O     0.81134   0.83126   0.68329   0.00000  Uiso   1.00
F1165  F     0.99968   0.87802   0.62502   0.00000  Uiso   1.00
F1166  F     0.66699   0.78863   0.87498   0.00000  Uiso   1.00
F1167  F     0.75211   0.76051   0.57051   0.00000  Uiso   1.00
F1168  F     0.91457   0.90615   0.92948   0.00000  Uiso   1.00
O1169  O     0.90845   0.67814   0.71022   0.00000  Uiso   1.00
C1170  C     0.92597   0.97804   0.67382   0.00000  Uiso   1.00
H1171  H     0.88497   0.95621   0.66204   0.00000  Uiso   1.00
H1172  H     0.95403   0.95093   0.68143   0.00000  Uiso   1.00
H1173  H     0.95583   0.66825   0.64652   0.00000  Uiso   1.00
O1174  O     0.75821   0.98852   0.78977   0.00000  Uiso   1.00
C1175  C     0.74065   0.68863   0.82616   0.00000  Uiso   1.00
H1176  H     0.71259   0.71572   0.81854   0.00000  Uiso   1.00
H1177  H     0.78162   0.71047   0.83795   0.00000  Uiso   1.00
H1178  H     0.71078   0.99843   0.85347   0.00000  Uiso   1.00
O1179  O     0.67756   0.88808   0.78246   0.00000  Uiso   1.00
C1180  C     0.97537   0.89147   0.82518   0.00000  Uiso   1.00
H1181  H     0.67287   0.91223   0.84590   0.00000  Uiso   1.00
H1182  H     0.95677   0.85245   0.83931   0.00000  Uiso   1.00
H1183  H     0.93780   0.91405   0.82666   0.00000  Uiso   1.00
O1184  O     0.98911   0.77858   0.71754   0.00000  Uiso   1.00
C1185  C     0.69131   0.77518   0.67482   0.00000  Uiso   1.00
H1186  H     0.72888   0.75261   0.67335   0.00000  Uiso   1.00
H1187  H     0.70991   0.81420   0.66069   0.00000  Uiso   1.00
H1188  H     0.99381   0.75442   0.65410   0.00000  Uiso   1.00
loop_
_geom_bond_atom_site_label_1
_geom_bond_atom_site_label_2
_geom_bond_distance
_geom_bond_site_symmetry_2
_ccdc_geom_bond_type
C1     O37     1.297   .     A
C1     C7      1.440   .     S
C1     O35     1.291   .     A
C2     O38     1.297   .     A
C2     O36     1.291   .     A
C2     C8      1.440   .     S
C3     C24     1.424   .     A
C3     F45     1.355   .     S
C3     C5      1.386   .     A
C4     F46     1.355   .     S
C4     C6      1.386   .     A
C4     C23     1.424   .     A
C5     H27     1.085   .     S
C5     C615    1.388   1_554 S
C6     H28     1.085   .     S
C6     C616    1.388   .     S
C7     C206    1.342   .     S
C7     O245    1.398   .     S
C8     C403    1.342   1_545 S
C8     O448    1.398   1_545 S
C9     O41     1.308   .     A
C9     C11     1.473   .     S
C9     O39     1.305   .     A
C10    O42     1.308   .     A
C10    C12     1.473   .     S
C10    O40     1.305   .     A
C11    C17     1.399   .     A
C11    C15     1.404   .     A
C12    C16     1.404   .     A
C12    C18     1.399   .     A
C13    C21     1.402   .     A
C13    C15     1.392   .     A
C13    H163    1.084   1_455 S
C14    C22     1.402   .     A
C14    C16     1.392   .     A
C14    H98     1.084   .     S
C15    F44     1.356   .     S
C16    F43     1.356   .     S
C17    H30     1.070   .     S
C17    C19     1.403   .     A
C18    H29     1.070   .     S
C18    C20     1.403   .     A
C19    C23     1.428   .     A
C19    C21     1.415   .     A
C20    C22     1.415   .     A
C20    C24     1.428   .     A
C21    C599    1.388   .     S
C22    C600    1.388   1_554 S
C23    C618    1.428   .     S
C24    C617    1.428   1_554 S
Cu25   O42     1.940   .     S
Cu25   O38     1.959   .     S
Cu25   N34     2.037   .     S
Cu25   Cu26    2.711   .     S
Cu25   O39     1.953   .     S
Cu25   O35     1.977   .     S
Cu26   O37     1.959   .     S
Cu26   N33     2.037   .     S
Cu26   O40     1.953   .     S
Cu26   O36     1.977   .     S
Cu26   O41     1.940   .     S
H31    C79     1.084   .     S
H32    C146    1.084   1_455 S
N33    N100    1.280   .     S
N33    O123    1.343   .     S
N34    N165    1.280   1_455 S
N34    O194    1.343   1_455 S
O47    C403    1.398   1_545 S
O47    C444    1.415   1_545 S
C48    H50     1.110   .     S
C48    H49     1.114   .     S
C48    O245    1.415   .     S
C48    H249    1.107   .     S
H51    C444    1.107   1_545 S
O52    C206    1.398   .     S
O52    C251    1.415   .     S
C53    H54     1.109   .     S
C53    H55     1.114   .     S
C53    O448    1.415   1_545 S
C53    H452    1.106   1_545 S
H56    C251    1.106   .     S
O57    N165    1.343   1_455 S
O57    C190    1.402   1_455 S
C58    H61     1.110   .     S
C58    H60     1.111   .     S
C58    O123    1.402   .     S
C58    H125    1.106   .     S
H59    C190    1.106   1_455 S
O62    N100    1.343   .     S
O62    C129    1.402   .     S
C63    H65     1.111   .     S
C63    H64     1.110   .     S
C63    O194    1.402   1_455 S
C63    H198    1.106   1_455 S
H66    C129    1.106   .     S
C67    O103    1.297   .     A
C67    C73     1.440   .     S
C67    O101    1.291   .     A
C68    O104    1.297   .     A
C68    O102    1.291   .     A
C68    C74     1.440   .     S
C69    C90     1.424   .     A
C69    F111    1.355   .     S
C69    C71     1.386   .     A
C70    F112    1.355   .     S
C70    C72     1.386   .     A
C70    C89     1.424   .     A
C71    H93     1.085   .     S
C71    C681    1.388   1_554 S
C72    H94     1.085   .     S
C72    C682    1.388   .     S
C73    C272    1.342   .     S
C73    O311    1.398   .     S
C74    C469    1.342   1_545 S
C74    O514    1.398   1_545 S
C75    O107    1.308   .     A
C75    C77     1.473   .     S
C75    O105    1.305   .     A
C76    O108    1.308   .     A
C76    C78     1.473   .     S
C76    O106    1.305   .     A
C77    C83     1.399   .     A
C77    C81     1.404   .     A
C78    C82     1.404   .     A
C78    C84     1.399   .     A
C79    C87     1.402   .     A
C79    C81     1.392   .     A
C80    C88     1.402   .     A
C80    C82     1.392   .     A
C80    H164    1.084   .     S
C81    F110    1.356   .     S
C82    F109    1.356   .     S
C83    H96     1.070   .     S
C83    C85     1.403   .     A
C84    H95     1.070   .     S
C84    C86     1.403   .     A
C85    C89     1.428   .     A
C85    C87     1.415   .     A
C86    C88     1.415   .     A
C86    C90     1.428   .     A
C87    C665    1.388   .     S
C88    C666    1.388   1_554 S
C89    C684    1.428   .     S
C90    C683    1.428   1_554 S
Cu91   O108    1.940   .     S
Cu91   O104    1.959   .     S
Cu91   N100    2.037   .     S
Cu91   Cu92    2.711   .     S
Cu91   O105    1.953   .     S
Cu91   O101    1.977   .     S
Cu92   O103    1.959   .     S
Cu92   N99     2.037   .     S
Cu92   O106    1.953   .     S
Cu92   O102    1.977   .     S
Cu92   O107    1.940   .     S
H97    C145    1.084   .     S
N99    N166    1.280   .     S
N99    O189    1.343   .     S
O113   C469    1.398   1_545 S
O113   C510    1.415   1_545 S
C114   H116    1.110   .     S
C114   H115    1.114   .     S
C114   O311    1.415   .     S
C114   H315    1.107   .     S
H117   C510    1.107   1_545 S
O118   C272    1.398   .     S
O118   C317    1.415   .     S
C119   H120    1.109   .     S
C119   H121    1.114   .     S
C119   O514    1.415   1_545 S
C119   H518    1.106   1_545 S
H122   C317    1.106   .     S
C124   H127    1.110   .     S
C124   H126    1.111   .     S
C124   O189    1.402   .     S
C124   H191    1.106   .     S
O128   N166    1.343   .     S
O128   C195    1.402   .     S
C129   H131    1.111   .     S
C129   H130    1.110   .     S
H132   C195    1.106   .     S
C133   O169    1.297   .     A
C133   C139    1.440   .     S
C133   O167    1.291   .     A
C134   O170    1.297   .     A
C134   O168    1.291   .     A
C134   C140    1.440   .     S
C135   C156    1.424   .     A
C135   F177    1.355   .     S
C135   C137    1.386   .     A
C136   F178    1.355   .     S
C136   C138    1.386   .     A
C136   C155    1.424   .     A
C137   H159    1.085   .     S
C137   C747    1.388   1_554 S
C138   H160    1.085   .     S
C138   C748    1.388   .     S
C139   C338    1.342   .     S
C139   O377    1.398   .     S
C140   C535    1.342   1_545 S
C140   O580    1.398   1_545 S
C141   O173    1.308   .     A
C141   C143    1.473   .     S
C141   O171    1.305   .     A
C142   O174    1.308   .     A
C142   C144    1.473   .     S
C142   O172    1.305   .     A
C143   C149    1.399   .     A
C143   C147    1.404   .     A
C144   C148    1.404   .     A
C144   C150    1.399   .     A
C145   C153    1.402   .     A
C145   C147    1.392   .     A
C146   C154    1.402   .     A
C146   C148    1.392   .     A
C146   H32     1.084   1_655 S
C147   F176    1.356   .     S
C148   F175    1.356   .     S
C149   H162    1.070   .     S
C149   C151    1.403   .     A
C150   H161    1.070   .     S
C150   C152    1.403   .     A
C151   C155    1.428   .     A
C151   C153    1.415   .     A
C152   C154    1.415   .     A
C152   C156    1.428   .     A
C153   C731    1.388   .     S
C154   C732    1.388   1_554 S
C155   C750    1.428   .     S
C156   C749    1.428   1_554 S
Cu157  O174    1.940   .     S
Cu157  O170    1.959   .     S
Cu157  N166    2.037   .     S
Cu157  Cu158   2.711   .     S
Cu157  O171    1.953   .     S
Cu157  O167    1.977   .     S
Cu158  O169    1.959   .     S
Cu158  N165    2.037   .     S
Cu158  O172    1.953   .     S
Cu158  O168    1.977   .     S
Cu158  O173    1.940   .     S
H163   C13     1.084   1_655 S
N165   N34     1.280   1_655 S
N165   O57     1.343   1_655 S
O179   C535    1.398   1_545 S
O179   C576    1.415   1_545 S
C180   H182    1.110   .     S
C180   H181    1.114   .     S
C180   O377    1.415   .     S
C180   H381    1.107   .     S
H183   C576    1.107   1_545 S
O184   C338    1.398   .     S
O184   C383    1.415   .     S
C185   H186    1.109   .     S
C185   H187    1.114   .     S
C185   O580    1.415   1_545 S
C185   H584    1.106   1_545 S
H188   C383    1.106   .     S
C190   H193    1.110   .     S
C190   H192    1.111   .     S
C190   O57     1.402   1_655 S
C190   H59     1.106   1_655 S
O194   N34     1.343   1_655 S
O194   C63     1.402   1_655 S
C195   H197    1.111   .     S
C195   H196    1.110   .     S
H198   C63     1.106   1_655 S
C199   O235    1.297   .     A
C199   C205    1.440   .     S
C199   O233    1.291   .     A
C200   O236    1.297   .     A
C200   O234    1.291   .     A
C200   C206    1.440   .     S
C201   C222    1.424   .     A
C201   F243    1.355   .     S
C201   C203    1.386   .     A
C202   F244    1.355   .     S
C202   C204    1.386   .     A
C202   C221    1.424   .     A
C203   H225    1.085   .     S
C203   C813    1.388   1_554 S
C204   H226    1.085   .     S
C204   C814    1.388   .     S
C205   C404    1.342   .     S
C205   O443    1.398   .     S
C207   O239    1.308   .     A
C207   C209    1.473   .     S
C207   O237    1.305   .     A
C208   O240    1.308   .     A
C208   C210    1.473   .     S
C208   O238    1.305   .     A
C209   C215    1.399   .     A
C209   C213    1.404   .     A
C210   C214    1.404   .     A
C210   C216    1.399   .     A
C211   C219    1.402   .     A
C211   C213    1.392   .     A
C211   H361    1.084   1_455 S
C212   C220    1.402   .     A
C212   C214    1.392   .     A
C212   H296    1.084   .     S
C213   F242    1.356   .     S
C214   F241    1.356   .     S
C215   H228    1.070   .     S
C215   C217    1.403   .     A
C216   H227    1.070   .     S
C216   C218    1.403   .     A
C217   C221    1.428   .     A
C217   C219    1.415   .     A
C218   C220    1.415   .     A
C218   C222    1.428   .     A
C219   C797    1.388   .     S
C220   C798    1.388   1_554 S
C221   C816    1.428   .     S
C222   C815    1.428   1_554 S
Cu223  O240    1.940   .     S
Cu223  O236    1.959   .     S
Cu223  N232    2.037   .     S
Cu223  Cu224   2.711   .     S
Cu223  O237    1.953   .     S
Cu223  O233    1.977   .     S
Cu224  O235    1.959   .     S
Cu224  N231    2.037   .     S
Cu224  O238    1.953   .     S
Cu224  O234    1.977   .     S
Cu224  O239    1.940   .     S
H229   C277    1.084   .     S
H230   C344    1.084   1_455 S
N231   N298    1.280   .     S
N231   O321    1.343   .     S
N232   N363    1.280   1_455 S
N232   O392    1.343   1_455 S
C246   H248    1.110   .     S
C246   H247    1.114   .     S
C246   O443    1.415   .     S
C246   H447    1.107   .     S
O250   C404    1.398   .     S
O250   C449    1.415   .     S
C251   H252    1.109   .     S
C251   H253    1.114   .     S
H254   C449    1.106   .     S
O255   N363    1.343   1_455 S
O255   C388    1.402   1_455 S
C256   H259    1.110   .     S
C256   H258    1.111   .     S
C256   O321    1.402   .     S
C256   H323    1.106   .     S
H257   C388    1.106   1_455 S
O260   N298    1.343   .     S
O260   C327    1.402   .     S
C261   H263    1.111   .     S
C261   H262    1.110   .     S
C261   O392    1.402   1_455 S
C261   H396    1.106   1_455 S
H264   C327    1.106   .     S
C265   O301    1.297   .     A
C265   C271    1.440   .     S
C265   O299    1.291   .     A
C266   O302    1.297   .     A
C266   O300    1.291   .     A
C266   C272    1.440   .     S
C267   C288    1.424   .     A
C267   F309    1.355   .     S
C267   C269    1.386   .     A
C268   F310    1.355   .     S
C268   C270    1.386   .     A
C268   C287    1.424   .     A
C269   H291    1.085   .     S
C269   C879    1.388   1_554 S
C270   H292    1.085   .     S
C270   C880    1.388   .     S
C271   C470    1.342   .     S
C271   O509    1.398   .     S
C273   O305    1.308   .     A
C273   C275    1.473   .     S
C273   O303    1.305   .     A
C274   O306    1.308   .     A
C274   C276    1.473   .     S
C274   O304    1.305   .     A
C275   C281    1.399   .     A
C275   C279    1.404   .     A
C276   C280    1.404   .     A
C276   C282    1.399   .     A
C277   C285    1.402   .     A
C277   C279    1.392   .     A
C278   C286    1.402   .     A
C278   C280    1.392   .     A
C278   H362    1.084   .     S
C279   F308    1.356   .     S
C280   F307    1.356   .     S
C281   H294    1.070   .     S
C281   C283    1.403   .     A
C282   H293    1.070   .     S
C282   C284    1.403   .     A
C283   C287    1.428   .     A
C283   C285    1.415   .     A
C284   C286    1.415   .     A
C284   C288    1.428   .     A
C285   C863    1.388   .     S
C286   C864    1.388   1_554 S
C287   C882    1.428   .     S
C288   C881    1.428   1_554 S
Cu289  O306    1.940   .     S
Cu289  O302    1.959   .     S
Cu289  N298    2.037   .     S
Cu289  Cu290   2.711   .     S
Cu289  O303    1.953   .     S
Cu289  O299    1.977   .     S
Cu290  O301    1.959   .     S
Cu290  N297    2.037   .     S
Cu290  O304    1.953   .     S
Cu290  O300    1.977   .     S
Cu290  O305    1.940   .     S
H295   C343    1.084   .     S
N297   N364    1.280   .     S
N297   O387    1.343   .     S
C312   H314    1.110   .     S
C312   H313    1.114   .     S
C312   O509    1.415   .     S
C312   H513    1.107   .     S
O316   C470    1.398   .     S
O316   C515    1.415   .     S
C317   H318    1.109   .     S
C317   H319    1.114   .     S
H320   C515    1.106   .     S
C322   H325    1.110   .     S
C322   H324    1.111   .     S
C322   O387    1.402   .     S
C322   H389    1.106   .     S
O326   N364    1.343   .     S
O326   C393    1.402   .     S
C327   H329    1.111   .     S
C327   H328    1.110   .     S
H330   C393    1.106   .     S
C331   O367    1.297   .     A
C331   C337    1.440   .     S
C331   O365    1.291   .     A
C332   O368    1.297   .     A
C332   O366    1.291   .     A
C332   C338    1.440   .     S
C333   C354    1.424   .     A
C333   F375    1.355   .     S
C333   C335    1.386   .     A
C334   F376    1.355   .     S
C334   C336    1.386   .     A
C334   C353    1.424   .     A
C335   H357    1.085   .     S
C335   C945    1.388   1_554 S
C336   H358    1.085   .     S
C336   C946    1.388   .     S
C337   C536    1.342   .     S
C337   O575    1.398   .     S
C339   O371    1.308   .     A
C339   C341    1.473   .     S
C339   O369    1.305   .     A
C340   O372    1.308   .     A
C340   C342    1.473   .     S
C340   O370    1.305   .     A
C341   C347    1.399   .     A
C341   C345    1.404   .     A
C342   C346    1.404   .     A
C342   C348    1.399   .     A
C343   C351    1.402   .     A
C343   C345    1.392   .     A
C344   C352    1.402   .     A
C344   C346    1.392   .     A
C344   H230    1.084   1_655 S
C345   F374    1.356   .     S
C346   F373    1.356   .     S
C347   H360    1.070   .     S
C347   C349    1.403   .     A
C348   H359    1.070   .     S
C348   C350    1.403   .     A
C349   C353    1.428   .     A
C349   C351    1.415   .     A
C350   C352    1.415   .     A
C350   C354    1.428   .     A
C351   C929    1.388   .     S
C352   C930    1.388   1_554 S
C353   C948    1.428   .     S
C354   C947    1.428   1_554 S
Cu355  O372    1.940   .     S
Cu355  O368    1.959   .     S
Cu355  N364    2.037   .     S
Cu355  Cu356   2.711   .     S
Cu355  O369    1.953   .     S
Cu355  O365    1.977   .     S
Cu356  O367    1.959   .     S
Cu356  N363    2.037   .     S
Cu356  O370    1.953   .     S
Cu356  O366    1.977   .     S
Cu356  O371    1.940   .     S
H361   C211    1.084   1_655 S
N363   N232    1.280   1_655 S
N363   O255    1.343   1_655 S
C378   H380    1.110   .     S
C378   H379    1.114   .     S
C378   O575    1.415   .     S
C378   H579    1.107   .     S
O382   C536    1.398   .     S
O382   C581    1.415   .     S
C383   H384    1.109   .     S
C383   H385    1.114   .     S
H386   C581    1.106   .     S
C388   H391    1.110   .     S
C388   H390    1.111   .     S
C388   O255    1.402   1_655 S
C388   H257    1.106   1_655 S
O392   N232    1.343   1_655 S
O392   C261    1.402   1_655 S
C393   H395    1.111   .     S
C393   H394    1.110   .     S
H396   C261    1.106   1_655 S
C397   O433    1.297   .     A
C397   C403    1.440   .     S
C397   O431    1.291   .     A
C398   O434    1.297   .     A
C398   O432    1.291   .     A
C398   C404    1.440   .     S
C399   C420    1.424   .     A
C399   F441    1.355   .     S
C399   C401    1.386   .     A
C400   F442    1.355   .     S
C400   C402    1.386   .     A
C400   C419    1.424   .     A
C401   H423    1.085   .     S
C401   C1011   1.388   1_554 S
C402   H424    1.085   .     S
C402   C1012   1.388   .     S
C403   C8      1.342   1_565 S
C403   O47     1.398   1_565 S
C405   O437    1.308   .     A
C405   C407    1.473   .     S
C405   O435    1.305   .     A
C406   O438    1.308   .     A
C406   C408    1.473   .     S
C406   O436    1.305   .     A
C407   C413    1.399   .     A
C407   C411    1.404   .     A
C408   C412    1.404   .     A
C408   C414    1.399   .     A
C409   C417    1.402   .     A
C409   C411    1.392   .     A
C409   H559    1.084   1_455 S
C410   C418    1.402   .     A
C410   C412    1.392   .     A
C410   H494    1.084   .     S
C411   F440    1.356   .     S
C412   F439    1.356   .     S
C413   H426    1.070   .     S
C413   C415    1.403   .     A
C414   H425    1.070   .     S
C414   C416    1.403   .     A
C415   C419    1.428   .     A
C415   C417    1.415   .     A
C416   C418    1.415   .     A
C416   C420    1.428   .     A
C417   C995    1.388   .     S
C418   C996    1.388   1_554 S
C419   C1014   1.428   .     S
C420   C1013   1.428   1_554 S
Cu421  O438    1.940   .     S
Cu421  O434    1.959   .     S
Cu421  N430    2.037   .     S
Cu421  Cu422   2.711   .     S
Cu421  O435    1.953   .     S
Cu421  O431    1.977   .     S
Cu422  O433    1.959   .     S
Cu422  N429    2.037   .     S
Cu422  O436    1.953   .     S
Cu422  O432    1.977   .     S
Cu422  O437    1.940   .     S
H427   C475    1.084   .     S
H428   C542    1.084   1_455 S
N429   N496    1.280   .     S
N429   O519    1.343   .     S
N430   N561    1.280   1_455 S
N430   O590    1.343   1_455 S
C444   H446    1.110   .     S
C444   H445    1.114   .     S
C444   O47     1.415   1_565 S
C444   H51     1.107   1_565 S
O448   C8      1.398   1_565 S
O448   C53     1.415   1_565 S
C449   H450    1.109   .     S
C449   H451    1.114   .     S
H452   C53     1.106   1_565 S
O453   N561    1.343   1_455 S
O453   C586    1.402   1_455 S
C454   H457    1.110   .     S
C454   H456    1.111   .     S
C454   O519    1.402   .     S
C454   H521    1.106   .     S
H455   C586    1.106   1_455 S
O458   N496    1.343   .     S
O458   C525    1.402   .     S
C459   H461    1.111   .     S
C459   H460    1.110   .     S
C459   O590    1.402   1_455 S
C459   H594    1.106   1_455 S
H462   C525    1.106   .     S
C463   O499    1.297   .     A
C463   C469    1.440   .     S
C463   O497    1.291   .     A
C464   O500    1.297   .     A
C464   O498    1.291   .     A
C464   C470    1.440   .     S
C465   C486    1.424   .     A
C465   F507    1.355   .     S
C465   C467    1.386   .     A
C466   F508    1.355   .     S
C466   C468    1.386   .     A
C466   C485    1.424   .     A
C467   H489    1.085   .     S
C467   C1077   1.388   1_554 S
C468   H490    1.085   .     S
C468   C1078   1.388   .     S
C469   C74     1.342   1_565 S
C469   O113    1.398   1_565 S
C471   O503    1.308   .     A
C471   C473    1.473   .     S
C471   O501    1.305   .     A
C472   O504    1.308   .     A
C472   C474    1.473   .     S
C472   O502    1.305   .     A
C473   C479    1.399   .     A
C473   C477    1.404   .     A
C474   C478    1.404   .     A
C474   C480    1.399   .     A
C475   C483    1.402   .     A
C475   C477    1.392   .     A
C476   C484    1.402   .     A
C476   C478    1.392   .     A
C476   H560    1.084   .     S
C477   F506    1.356   .     S
C478   F505    1.356   .     S
C479   H492    1.070   .     S
C479   C481    1.403   .     A
C480   H491    1.070   .     S
C480   C482    1.403   .     A
C481   C485    1.428   .     A
C481   C483    1.415   .     A
C482   C484    1.415   .     A
C482   C486    1.428   .     A
C483   C1061   1.388   .     S
C484   C1062   1.388   1_554 S
C485   C1080   1.428   .     S
C486   C1079   1.428   1_554 S
Cu487  O504    1.940   .     S
Cu487  O500    1.959   .     S
Cu487  N496    2.037   .     S
Cu487  Cu488   2.711   .     S
Cu487  O501    1.953   .     S
Cu487  O497    1.977   .     S
Cu488  O499    1.959   .     S
Cu488  N495    2.037   .     S
Cu488  O502    1.953   .     S
Cu488  O498    1.977   .     S
Cu488  O503    1.940   .     S
H493   C541    1.084   .     S
N495   N562    1.280   .     S
N495   O585    1.343   .     S
C510   H512    1.110   .     S
C510   H511    1.114   .     S
C510   O113    1.415   1_565 S
C510   H117    1.107   1_565 S
O514   C74     1.398   1_565 S
O514   C119    1.415   1_565 S
C515   H516    1.109   .     S
C515   H517    1.114   .     S
H518   C119    1.106   1_565 S
C520   H523    1.110   .     S
C520   H522    1.111   .     S
C520   O585    1.402   .     S
C520   H587    1.106   .     S
O524   N562    1.343   .     S
O524   C591    1.402   .     S
C525   H527    1.111   .     S
C525   H526    1.110   .     S
H528   C591    1.106   .     S
C529   O565    1.297   .     A
C529   C535    1.440   .     S
C529   O563    1.291   .     A
C530   O566    1.297   .     A
C530   O564    1.291   .     A
C530   C536    1.440   .     S
C531   C552    1.424   .     A
C531   F573    1.355   .     S
C531   C533    1.386   .     A
C532   F574    1.355   .     S
C532   C534    1.386   .     A
C532   C551    1.424   .     A
C533   H555    1.085   .     S
C533   C1143   1.388   1_554 S
C534   H556    1.085   .     S
C534   C1144   1.388   .     S
C535   C140    1.342   1_565 S
C535   O179    1.398   1_565 S
C537   O569    1.308   .     A
C537   C539    1.473   .     S
C537   O567    1.305   .     A
C538   O570    1.308   .     A
C538   C540    1.473   .     S
C538   O568    1.305   .     A
C539   C545    1.399   .     A
C539   C543    1.404   .     A
C540   C544    1.404   .     A
C540   C546    1.399   .     A
C541   C549    1.402   .     A
C541   C543    1.392   .     A
C542   C550    1.402   .     A
C542   C544    1.392   .     A
C542   H428    1.084   1_655 S
C543   F572    1.356   .     S
C544   F571    1.356   .     S
C545   H558    1.070   .     S
C545   C547    1.403   .     A
C546   H557    1.070   .     S
C546   C548    1.403   .     A
C547   C551    1.428   .     A
C547   C549    1.415   .     A
C548   C550    1.415   .     A
C548   C552    1.428   .     A
C549   C1127   1.388   .     S
C550   C1128   1.388   1_554 S
C551   C1146   1.428   .     S
C552   C1145   1.428   1_554 S
Cu553  O570    1.940   .     S
Cu553  O566    1.959   .     S
Cu553  N562    2.037   .     S
Cu553  Cu554   2.711   .     S
Cu553  O567    1.953   .     S
Cu553  O563    1.977   .     S
Cu554  O565    1.959   .     S
Cu554  N561    2.037   .     S
Cu554  O568    1.953   .     S
Cu554  O564    1.977   .     S
Cu554  O569    1.940   .     S
H559   C409    1.084   1_655 S
N561   N430    1.280   1_655 S
N561   O453    1.343   1_655 S
C576   H578    1.110   .     S
C576   H577    1.114   .     S
C576   O179    1.415   1_565 S
C576   H183    1.107   1_565 S
O580   C140    1.398   1_565 S
O580   C185    1.415   1_565 S
C581   H582    1.109   .     S
C581   H583    1.114   .     S
H584   C185    1.106   1_565 S
C586   H589    1.110   .     S
C586   H588    1.111   .     S
C586   O453    1.402   1_655 S
C586   H455    1.106   1_655 S
O590   N430    1.343   1_655 S
O590   C459    1.402   1_655 S
C591   H593    1.111   .     S
C591   H592    1.110   .     S
H594   C459    1.106   1_655 S
C595   O631    1.297   .     A
C595   C601    1.440   .     S
C595   O629    1.291   .     A
C596   O632    1.297   .     A
C596   O630    1.291   .     A
C596   C602    1.440   .     S
C597   C618    1.424   .     A
C597   F639    1.355   .     S
C597   C599    1.386   .     A
C598   F640    1.355   .     S
C598   C600    1.386   .     A
C598   C617    1.424   .     A
C599   H621    1.085   .     S
C600   H622    1.085   .     S
C600   C22     1.388   1_556 S
C601   C800    1.342   .     S
C601   O839    1.398   .     S
C602   C997    1.342   1_545 S
C602   O1042   1.398   1_545 S
C603   O635    1.308   .     A
C603   C605    1.473   .     S
C603   O633    1.305   .     A
C604   O636    1.308   .     A
C604   C606    1.473   .     S
C604   O634    1.305   .     A
C605   C611    1.399   .     A
C605   C609    1.404   .     A
C606   C610    1.404   .     A
C606   C612    1.399   .     A
C607   C615    1.402   .     A
C607   C609    1.392   .     A
C607   H757    1.084   1_455 S
C608   C616    1.402   .     A
C608   C610    1.392   .     A
C608   H692    1.084   .     S
C609   F638    1.356   .     S
C610   F637    1.356   .     S
C611   H624    1.070   .     S
C611   C613    1.403   .     A
C612   H623    1.070   .     S
C612   C614    1.403   .     A
C613   C617    1.428   .     A
C613   C615    1.415   .     A
C614   C616    1.415   .     A
C614   C618    1.428   .     A
C615   C5      1.388   1_556 S
C617   C24     1.428   1_556 S
Cu619  O636    1.940   .     S
Cu619  O632    1.959   .     S
Cu619  N628    2.037   .     S
Cu619  Cu620   2.711   .     S
Cu619  O633    1.953   .     S
Cu619  O629    1.977   .     S
Cu620  O631    1.959   .     S
Cu620  N627    2.037   .     S
Cu620  O634    1.953   .     S
Cu620  O630    1.977   .     S
Cu620  O635    1.940   .     S
H625   C673    1.084   .     S
H626   C740    1.084   1_455 S
N627   N694    1.280   .     S
N627   O717    1.343   .     S
N628   N759    1.280   1_455 S
N628   O788    1.343   1_455 S
O641   C997    1.398   1_545 S
O641   C1038   1.415   1_545 S
C642   H644    1.110   .     S
C642   H643    1.114   .     S
C642   O839    1.415   .     S
C642   H843    1.107   .     S
H645   C1038   1.107   1_545 S
O646   C800    1.398   .     S
O646   C845    1.415   .     S
C647   H648    1.109   .     S
C647   H649    1.114   .     S
C647   O1042   1.415   1_545 S
C647   H1046   1.106   1_545 S
H650   C845    1.106   .     S
O651   N759    1.343   1_455 S
O651   C784    1.402   1_455 S
C652   H655    1.110   .     S
C652   H654    1.111   .     S
C652   O717    1.402   .     S
C652   H719    1.106   .     S
H653   C784    1.106   1_455 S
O656   N694    1.343   .     S
O656   C723    1.402   .     S
C657   H659    1.111   .     S
C657   H658    1.110   .     S
C657   O788    1.402   1_455 S
C657   H792    1.106   1_455 S
H660   C723    1.106   .     S
C661   O697    1.297   .     A
C661   C667    1.440   .     S
C661   O695    1.291   .     A
C662   O698    1.297   .     A
C662   O696    1.291   .     A
C662   C668    1.440   .     S
C663   C684    1.424   .     A
C663   F705    1.355   .     S
C663   C665    1.386   .     A
C664   F706    1.355   .     S
C664   C666    1.386   .     A
C664   C683    1.424   .     A
C665   H687    1.085   .     S
C666   H688    1.085   .     S
C666   C88     1.388   1_556 S
C667   C866    1.342   .     S
C667   O905    1.398   .     S
C668   C1063   1.342   1_545 S
C668   O1108   1.398   1_545 S
C669   O701    1.308   .     A
C669   C671    1.473   .     S
C669   O699    1.305   .     A
C670   O702    1.308   .     A
C670   C672    1.473   .     S
C670   O700    1.305   .     A
C671   C677    1.399   .     A
C671   C675    1.404   .     A
C672   C676    1.404   .     A
C672   C678    1.399   .     A
C673   C681    1.402   .     A
C673   C675    1.392   .     A
C674   C682    1.402   .     A
C674   C676    1.392   .     A
C674   H758    1.084   .     S
C675   F704    1.356   .     S
C676   F703    1.356   .     S
C677   H690    1.070   .     S
C677   C679    1.403   .     A
C678   H689    1.070   .     S
C678   C680    1.403   .     A
C679   C683    1.428   .     A
C679   C681    1.415   .     A
C680   C682    1.415   .     A
C680   C684    1.428   .     A
C681   C71     1.388   1_556 S
C683   C90     1.428   1_556 S
Cu685  O702    1.940   .     S
Cu685  O698    1.959   .     S
Cu685  N694    2.037   .     S
Cu685  Cu686   2.711   .     S
Cu685  O699    1.953   .     S
Cu685  O695    1.977   .     S
Cu686  O697    1.959   .     S
Cu686  N693    2.037   .     S
Cu686  O700    1.953   .     S
Cu686  O696    1.977   .     S
Cu686  O701    1.940   .     S
H691   C739    1.084   .     S
N693   N760    1.280   .     S
N693   O783    1.343   .     S
O707   C1063   1.398   1_545 S
O707   C1104   1.415   1_545 S
C708   H710    1.110   .     S
C708   H709    1.114   .     S
C708   O905    1.415   .     S
C708   H909    1.107   .     S
H711   C1104   1.107   1_545 S
O712   C866    1.398   .     S
O712   C911    1.415   .     S
C713   H714    1.109   .     S
C713   H715    1.114   .     S
C713   O1108   1.415   1_545 S
C713   H1112   1.106   1_545 S
H716   C911    1.106   .     S
C718   H721    1.110   .     S
C718   H720    1.111   .     S
C718   O783    1.402   .     S
C718   H785    1.106   .     S
O722   N760    1.343   .     S
O722   C789    1.402   .     S
C723   H725    1.111   .     S
C723   H724    1.110   .     S
H726   C789    1.106   .     S
C727   O763    1.297   .     A
C727   C733    1.440   .     S
C727   O761    1.291   .     A
C728   O764    1.297   .     A
C728   O762    1.291   .     A
C728   C734    1.440   .     S
C729   C750    1.424   .     A
C729   F771    1.355   .     S
C729   C731    1.386   .     A
C730   F772    1.355   .     S
C730   C732    1.386   .     A
C730   C749    1.424   .     A
C731   H753    1.085   .     S
C732   H754    1.085   .     S
C732   C154    1.388   1_556 S
C733   C932    1.342   .     S
C733   O971    1.398   .     S
C734   C1129   1.342   1_545 S
C734   O1174   1.398   1_545 S
C735   O767    1.308   .     A
C735   C737    1.473   .     S
C735   O765    1.305   .     A
C736   O768    1.308   .     A
C736   C738    1.473   .     S
C736   O766    1.305   .     A
C737   C743    1.399   .     A
C737   C741    1.404   .     A
C738   C742    1.404   .     A
C738   C744    1.399   .     A
C739   C747    1.402   .     A
C739   C741    1.392   .     A
C740   C748    1.402   .     A
C740   C742    1.392   .     A
C740   H626    1.084   1_655 S
C741   F770    1.356   .     S
C742   F769    1.356   .     S
C743   H756    1.070   .     S
C743   C745    1.403   .     A
C744   H755    1.070   .     S
C744   C746    1.403   .     A
C745   C749    1.428   .     A
C745   C747    1.415   .     A
C746   C748    1.415   .     A
C746   C750    1.428   .     A
C747   C137    1.388   1_556 S
C749   C156    1.428   1_556 S
Cu751  O768    1.940   .     S
Cu751  O764    1.959   .     S
Cu751  N760    2.037   .     S
Cu751  Cu752   2.711   .     S
Cu751  O765    1.953   .     S
Cu751  O761    1.977   .     S
Cu752  O763    1.959   .     S
Cu752  N759    2.037   .     S
Cu752  O766    1.953   .     S
Cu752  O762    1.977   .     S
Cu752  O767    1.940   .     S
H757   C607    1.084   1_655 S
N759   N628    1.280   1_655 S
N759   O651    1.343   1_655 S
O773   C1129   1.398   1_545 S
O773   C1170   1.415   1_545 S
C774   H776    1.110   .     S
C774   H775    1.114   .     S
C774   O971    1.415   .     S
C774   H975    1.107   .     S
H777   C1170   1.107   1_545 S
O778   C932    1.398   .     S
O778   C977    1.415   .     S
C779   H780    1.109   .     S
C779   H781    1.114   .     S
C779   O1174   1.415   1_545 S
C779   H1178   1.106   1_545 S
H782   C977    1.106   .     S
C784   H787    1.110   .     S
C784   H786    1.111   .     S
C784   O651    1.402   1_655 S
C784   H653    1.106   1_655 S
O788   N628    1.343   1_655 S
O788   C657    1.402   1_655 S
C789   H791    1.111   .     S
C789   H790    1.110   .     S
H792   C657    1.106   1_655 S
C793   O829    1.297   .     A
C793   C799    1.440   .     S
C793   O827    1.291   .     A
C794   O830    1.297   .     A
C794   O828    1.291   .     A
C794   C800    1.440   .     S
C795   C816    1.424   .     A
C795   F837    1.355   .     S
C795   C797    1.386   .     A
C796   F838    1.355   .     S
C796   C798    1.386   .     A
C796   C815    1.424   .     A
C797   H819    1.085   .     S
C798   H820    1.085   .     S
C798   C220    1.388   1_556 S
C799   C998    1.342   .     S
C799   O1037   1.398   .     S
C801   O833    1.308   .     A
C801   C803    1.473   .     S
C801   O831    1.305   .     A
C802   O834    1.308   .     A
C802   C804    1.473   .     S
C802   O832    1.305   .     A
C803   C809    1.399   .     A
C803   C807    1.404   .     A
C804   C808    1.404   .     A
C804   C810    1.399   .     A
C805   C813    1.402   .     A
C805   C807    1.392   .     A
C805   H955    1.084   1_455 S
C806   C814    1.402   .     A
C806   C808    1.392   .     A
C806   H890    1.084   .     S
C807   F836    1.356   .     S
C808   F835    1.356   .     S
C809   H822    1.070   .     S
C809   C811    1.403   .     A
C810   H821    1.070   .     S
C810   C812    1.403   .     A
C811   C815    1.428   .     A
C811   C813    1.415   .     A
C812   C814    1.415   .     A
C812   C816    1.428   .     A
C813   C203    1.388   1_556 S
C815   C222    1.428   1_556 S
Cu817  O834    1.940   .     S
Cu817  O830    1.959   .     S
Cu817  N826    2.037   .     S
Cu817  Cu818   2.711   .     S
Cu817  O831    1.953   .     S
Cu817  O827    1.977   .     S
Cu818  O829    1.959   .     S
Cu818  N825    2.037   .     S
Cu818  O832    1.953   .     S
Cu818  O828    1.977   .     S
Cu818  O833    1.940   .     S
H823   C871    1.084   .     S
H824   C938    1.084   1_455 S
N825   N892    1.280   .     S
N825   O915    1.343   .     S
N826   N957    1.280   1_455 S
N826   O986    1.343   1_455 S
C840   H842    1.110   .     S
C840   H841    1.114   .     S
C840   O1037   1.415   .     S
C840   H1041   1.107   .     S
O844   C998    1.398   .     S
O844   C1043   1.415   .     S
C845   H846    1.109   .     S
C845   H847    1.114   .     S
H848   C1043   1.106   .     S
O849   N957    1.343   1_455 S
O849   C982    1.402   1_455 S
C850   H853    1.110   .     S
C850   H852    1.111   .     S
C850   O915    1.402   .     S
C850   H917    1.106   .     S
H851   C982    1.106   1_455 S
O854   N892    1.343   .     S
O854   C921    1.402   .     S
C855   H857    1.111   .     S
C855   H856    1.110   .     S
C855   O986    1.402   1_455 S
C855   H990    1.106   1_455 S
H858   C921    1.106   .     S
C859   O895    1.297   .     A
C859   C865    1.440   .     S
C859   O893    1.291   .     A
C860   O896    1.297   .     A
C860   O894    1.291   .     A
C860   C866    1.440   .     S
C861   C882    1.424   .     A
C861   F903    1.355   .     S
C861   C863    1.386   .     A
C862   F904    1.355   .     S
C862   C864    1.386   .     A
C862   C881    1.424   .     A
C863   H885    1.085   .     S
C864   H886    1.085   .     S
C864   C286    1.388   1_556 S
C865   C1064   1.342   .     S
C865   O1103   1.398   .     S
C867   O899    1.308   .     A
C867   C869    1.473   .     S
C867   O897    1.305   .     A
C868   O900    1.308   .     A
C868   C870    1.473   .     S
C868   O898    1.305   .     A
C869   C875    1.399   .     A
C869   C873    1.404   .     A
C870   C874    1.404   .     A
C870   C876    1.399   .     A
C871   C879    1.402   .     A
C871   C873    1.392   .     A
C872   C880    1.402   .     A
C872   C874    1.392   .     A
C872   H956    1.084   .     S
C873   F902    1.356   .     S
C874   F901    1.356   .     S
C875   H888    1.070   .     S
C875   C877    1.403   .     A
C876   H887    1.070   .     S
C876   C878    1.403   .     A
C877   C881    1.428   .     A
C877   C879    1.415   .     A
C878   C880    1.415   .     A
C878   C882    1.428   .     A
C879   C269    1.388   1_556 S
C881   C288    1.428   1_556 S
Cu883  O900    1.940   .     S
Cu883  O896    1.959   .     S
Cu883  N892    2.037   .     S
Cu883  Cu884   2.711   .     S
Cu883  O897    1.953   .     S
Cu883  O893    1.977   .     S
Cu884  O895    1.959   .     S
Cu884  N891    2.037   .     S
Cu884  O898    1.953   .     S
Cu884  O894    1.977   .     S
Cu884  O899    1.940   .     S
H889   C937    1.084   .     S
N891   N958    1.280   .     S
N891   O981    1.343   .     S
C906   H908    1.110   .     S
C906   H907    1.114   .     S
C906   O1103   1.415   .     S
C906   H1107   1.107   .     S
O910   C1064   1.398   .     S
O910   C1109   1.415   .     S
C911   H912    1.109   .     S
C911   H913    1.114   .     S
H914   C1109   1.106   .     S
C916   H919    1.110   .     S
C916   H918    1.111   .     S
C916   O981    1.402   .     S
C916   H983    1.106   .     S
O920   N958    1.343   .     S
O920   C987    1.402   .     S
C921   H923    1.111   .     S
C921   H922    1.110   .     S
H924   C987    1.106   .     S
C925   O961    1.297   .     A
C925   C931    1.440   .     S
C925   O959    1.291   .     A
C926   O962    1.297   .     A
C926   O960    1.291   .     A
C926   C932    1.440   .     S
C927   C948    1.424   .     A
C927   F969    1.355   .     S
C927   C929    1.386   .     A
C928   F970    1.355   .     S
C928   C930    1.386   .     A
C928   C947    1.424   .     A
C929   H951    1.085   .     S
C930   H952    1.085   .     S
C930   C352    1.388   1_556 S
C931   C1130   1.342   .     S
C931   O1169   1.398   .     S
C933   O965    1.308   .     A
C933   C935    1.473   .     S
C933   O963    1.305   .     A
C934   O966    1.308   .     A
C934   C936    1.473   .     S
C934   O964    1.305   .     A
C935   C941    1.399   .     A
C935   C939    1.404   .     A
C936   C940    1.404   .     A
C936   C942    1.399   .     A
C937   C945    1.402   .     A
C937   C939    1.392   .     A
C938   C946    1.402   .     A
C938   C940    1.392   .     A
C938   H824    1.084   1_655 S
C939   F968    1.356   .     S
C940   F967    1.356   .     S
C941   H954    1.070   .     S
C941   C943    1.403   .     A
C942   H953    1.070   .     S
C942   C944    1.403   .     A
C943   C947    1.428   .     A
C943   C945    1.415   .     A
C944   C946    1.415   .     A
C944   C948    1.428   .     A
C945   C335    1.388   1_556 S
C947   C354    1.428   1_556 S
Cu949  O966    1.940   .     S
Cu949  O962    1.959   .     S
Cu949  N958    2.037   .     S
Cu949  Cu950   2.711   .     S
Cu949  O963    1.953   .     S
Cu949  O959    1.977   .     S
Cu950  O961    1.959   .     S
Cu950  N957    2.037   .     S
Cu950  O964    1.953   .     S
Cu950  O960    1.977   .     S
Cu950  O965    1.940   .     S
H955   C805    1.084   1_655 S
N957   N826    1.280   1_655 S
N957   O849    1.343   1_655 S
C972   H974    1.110   .     S
C972   H973    1.114   .     S
C972   O1169   1.415   .     S
C972   H1173   1.107   .     S
O976   C1130   1.398   .     S
O976   C1175   1.415   .     S
C977   H978    1.109   .     S
C977   H979    1.114   .     S
H980   C1175   1.106   .     S
C982   H985    1.110   .     S
C982   H984    1.111   .     S
C982   O849    1.402   1_655 S
C982   H851    1.106   1_655 S
O986   N826    1.343   1_655 S
O986   C855    1.402   1_655 S
C987   H989    1.111   .     S
C987   H988    1.110   .     S
H990   C855    1.106   1_655 S
C991   O1027   1.297   .     A
C991   C997    1.440   .     S
C991   O1025   1.291   .     A
C992   O1028   1.297   .     A
C992   O1026   1.291   .     A
C992   C998    1.440   .     S
C993   C1014   1.424   .     A
C993   F1035   1.355   .     S
C993   C995    1.386   .     A
C994   F1036   1.355   .     S
C994   C996    1.386   .     A
C994   C1013   1.424   .     A
C995   H1017   1.085   .     S
C996   H1018   1.085   .     S
C996   C418    1.388   1_556 S
C997   C602    1.342   1_565 S
C997   O641    1.398   1_565 S
C999   O1031   1.308   .     A
C999   C1001   1.473   .     S
C999   O1029   1.305   .     A
C1000  O1032   1.308   .     A
C1000  C1002   1.473   .     S
C1000  O1030   1.305   .     A
C1001  C1007   1.399   .     A
C1001  C1005   1.404   .     A
C1002  C1006   1.404   .     A
C1002  C1008   1.399   .     A
C1003  C1011   1.402   .     A
C1003  C1005   1.392   .     A
C1003  H1153   1.084   1_455 S
C1004  C1012   1.402   .     A
C1004  C1006   1.392   .     A
C1004  H1088   1.084   .     S
C1005  F1034   1.356   .     S
C1006  F1033   1.356   .     S
C1007  H1020   1.070   .     S
C1007  C1009   1.403   .     A
C1008  H1019   1.070   .     S
C1008  C1010   1.403   .     A
C1009  C1013   1.428   .     A
C1009  C1011   1.415   .     A
C1010  C1012   1.415   .     A
C1010  C1014   1.428   .     A
C1011  C401    1.388   1_556 S
C1013  C420    1.428   1_556 S
Cu1015 O1032   1.940   .     S
Cu1015 O1028   1.959   .     S
Cu1015 N1024   2.037   .     S
Cu1015 Cu1016  2.711   .     S
Cu1015 O1029   1.953   .     S
Cu1015 O1025   1.977   .     S
Cu1016 O1027   1.959   .     S
Cu1016 N1023   2.037   .     S
Cu1016 O1030   1.953   .     S
Cu1016 O1026   1.977   .     S
Cu1016 O1031   1.940   .     S
H1021  C1069   1.084   .     S
H1022  C1136   1.084   1_455 S
N1023  N1090   1.280   .     S
N1023  O1113   1.343   .     S
N1024  N1155   1.280   1_455 S
N1024  O1184   1.343   1_455 S
C1038  H1040   1.110   .     S
C1038  H1039   1.114   .     S
C1038  O641    1.415   1_565 S
C1038  H645    1.107   1_565 S
O1042  C602    1.398   1_565 S
O1042  C647    1.415   1_565 S
C1043  H1044   1.109   .     S
C1043  H1045   1.114   .     S
H1046  C647    1.106   1_565 S
O1047  N1155   1.343   1_455 S
O1047  C1180   1.402   1_455 S
C1048  H1051   1.110   .     S
C1048  H1050   1.111   .     S
C1048  O1113   1.402   .     S
C1048  H1115   1.106   .     S
H1049  C1180   1.106   1_455 S
O1052  N1090   1.343   .     S
O1052  C1119   1.402   .     S
C1053  H1055   1.111   .     S
C1053  H1054   1.110   .     S
C1053  O1184   1.402   1_455 S
C1053  H1188   1.106   1_455 S
H1056  C1119   1.106   .     S
C1057  O1093   1.297   .     A
C1057  C1063   1.440   .     S
C1057  O1091   1.291   .     A
C1058  O1094   1.297   .     A
C1058  O1092   1.291   .     A
C1058  C1064   1.440   .     S
C1059  C1080   1.424   .     A
C1059  F1101   1.355   .     S
C1059  C1061   1.386   .     A
C1060  F1102   1.355   .     S
C1060  C1062   1.386   .     A
C1060  C1079   1.424   .     A
C1061  H1083   1.085   .     S
C1062  H1084   1.085   .     S
C1062  C484    1.388   1_556 S
C1063  C668    1.342   1_565 S
C1063  O707    1.398   1_565 S
C1065  O1097   1.308   .     A
C1065  C1067   1.473   .     S
C1065  O1095   1.305   .     A
C1066  O1098   1.308   .     A
C1066  C1068   1.473   .     S
C1066  O1096   1.305   .     A
C1067  C1073   1.399   .     A
C1067  C1071   1.404   .     A
C1068  C1072   1.404   .     A
C1068  C1074   1.399   .     A
C1069  C1077   1.402   .     A
C1069  C1071   1.392   .     A
C1070  C1078   1.402   .     A
C1070  C1072   1.392   .     A
C1070  H1154   1.084   .     S
C1071  F1100   1.356   .     S
C1072  F1099   1.356   .     S
C1073  H1086   1.070   .     S
C1073  C1075   1.403   .     A
C1074  H1085   1.070   .     S
C1074  C1076   1.403   .     A
C1075  C1079   1.428   .     A
C1075  C1077   1.415   .     A
C1076  C1078   1.415   .     A
C1076  C1080   1.428   .     A
C1077  C467    1.388   1_556 S
C1079  C486    1.428   1_556 S
Cu1081 O1098   1.940   .     S
Cu1081 O1094   1.959   .     S
Cu1081 N1090   2.037   .     S
Cu1081 Cu1082  2.711   .     S
Cu1081 O1095   1.953   .     S
Cu1081 O1091   1.977   .     S
Cu1082 O1093   1.959   .     S
Cu1082 N1089   2.037   .     S
Cu1082 O1096   1.953   .     S
Cu1082 O1092   1.977   .     S
Cu1082 O1097   1.940   .     S
H1087  C1135   1.084   .     S
N1089  N1156   1.280   .     S
N1089  O1179   1.343   .     S
C1104  H1106   1.110   .     S
C1104  H1105   1.114   .     S
C1104  O707    1.415   1_565 S
C1104  H711    1.107   1_565 S
O1108  C668    1.398   1_565 S
O1108  C713    1.415   1_565 S
C1109  H1110   1.109   .     S
C1109  H1111   1.114   .     S
H1112  C713    1.106   1_565 S
C1114  H1117   1.110   .     S
C1114  H1116   1.111   .     S
C1114  O1179   1.402   .     S
C1114  H1181   1.106   .     S
O1118  N1156   1.343   .     S
O1118  C1185   1.402   .     S
C1119  H1121   1.111   .     S
C1119  H1120   1.110   .     S
H1122  C1185   1.106   .     S
C1123  O1159   1.297   .     A
C1123  C1129   1.440   .     S
C1123  O1157   1.291   .     A
C1124  O1160   1.297   .     A
C1124  O1158   1.291   .     A
C1124  C1130   1.440   .     S
C1125  C1146   1.424   .     A
C1125  F1167   1.355   .     S
C1125  C1127   1.386   .     A
C1126  F1168   1.355   .     S
C1126  C1128   1.386   .     A
C1126  C1145   1.424   .     A
C1127  H1149   1.085   .     S
C1128  H1150   1.085   .     S
C1128  C550    1.388   1_556 S
C1129  C734    1.342   1_565 S
C1129  O773    1.398   1_565 S
C1131  O1163   1.308   .     A
C1131  C1133   1.473   .     S
C1131  O1161   1.305   .     A
C1132  O1164   1.308   .     A
C1132  C1134   1.473   .     S
C1132  O1162   1.305   .     A
C1133  C1139   1.399   .     A
C1133  C1137   1.404   .     A
C1134  C1138   1.404   .     A
C1134  C1140   1.399   .     A
C1135  C1143   1.402   .     A
C1135  C1137   1.392   .     A
C1136  C1144   1.402   .     A
C1136  C1138   1.392   .     A
C1136  H1022   1.084   1_655 S
C1137  F1166   1.356   .     S
C1138  F1165   1.356   .     S
C1139  H1152   1.070   .     S
C1139  C1141   1.403   .     A
C1140  H1151   1.070   .     S
C1140  C1142   1.403   .     A
C1141  C1145   1.428   .     A
C1141  C1143   1.415   .     A
C1142  C1144   1.415   .     A
C1142  C1146   1.428   .     A
C1143  C533    1.388   1_556 S
C1145  C552    1.428   1_556 S
Cu1147 O1164   1.940   .     S
Cu1147 O1160   1.959   .     S
Cu1147 N1156   2.037   .     S
Cu1147 Cu1148  2.711   .     S
Cu1147 O1161   1.953   .     S
Cu1147 O1157   1.977   .     S
Cu1148 O1159   1.959   .     S
Cu1148 N1155   2.037   .     S
Cu1148 O1162   1.953   .     S
Cu1148 O1158   1.977   .     S
Cu1148 O1163   1.940   .     S
H1153  C1003   1.084   1_655 S
N1155  N1024   1.280   1_655 S
N1155  O1047   1.343   1_655 S
C1170  H1172   1.110   .     S
C1170  H1171   1.114   .     S
C1170  O773    1.415   1_565 S
C1170  H777    1.107   1_565 S
O1174  C734    1.398   1_565 S
O1174  C779    1.415   1_565 S
C1175  H1176   1.109   .     S
C1175  H1177   1.114   .     S
H1178  C779    1.106   1_565 S
C1180  H1183   1.110   .     S
C1180  H1182   1.111   .     S
C1180  O1047   1.402   1_655 S
C1180  H1049   1.106   1_655 S
O1184  N1024   1.343   1_655 S
O1184  C1053   1.402   1_655 S
C1185  H1187   1.111   .     S
C1185  H1186   1.110   .     S
H1188  C1053   1.106   1_655 S
