data_str_m3_o10_o18_pcu_sym.138
_audit_creation_date              2020-01-03
_audit_creation_method            'Materials Studio'
_symmetry_space_group_name_H-M    'P1'
_symmetry_Int_Tables_number       1
_symmetry_cell_setting            triclinic
loop_
_symmetry_equiv_pos_as_xyz
  x,y,z
_cell_length_a                    23.8381
_cell_length_b                    25.6637
_cell_length_c                    27.5834
_cell_angle_alpha                 93.7770
_cell_angle_beta                  93.8510
_cell_angle_gamma                 93.8655
loop_
_atom_site_label
_atom_site_type_symbol
_atom_site_fract_x
_atom_site_fract_y
_atom_site_fract_z
_atom_site_U_iso_or_equiv
_atom_site_adp_type
_atom_site_occupancy
O1     O     0.29719   0.24631   0.25309   0.00000  Uiso   1.00
O2     O     0.03614   0.08702   0.24690   0.00000  Uiso   1.00
O3     O     0.05822   0.23702   0.24502   0.00000  Uiso   1.00
O4     O     0.27512   0.09632   0.25498   0.00000  Uiso   1.00
C5     C     0.01476   0.26465   0.24851   0.00000  Uiso   1.00
C6     C     0.31844   0.06863   0.25082   0.00000  Uiso   1.00
O7     O     0.30328   0.17397   0.32247   0.00000  Uiso   1.00
O8     O     0.03005   0.15937   0.17753   0.00000  Uiso   1.00
O9     O     0.06431   0.16467   0.31439   0.00000  Uiso   1.00
O10    O     0.26902   0.16866   0.18561   0.00000  Uiso   1.00
C11    C     0.02128   0.17221   0.34135   0.00000  Uiso   1.00
C12    C     0.31170   0.16072   0.15922   0.00000  Uiso   1.00
Zn13   Zn    0.27033   0.17287   0.25539   0.00000  Uiso   1.00
Zn14   Zn    0.06300   0.16046   0.24460   0.00000  Uiso   1.00
C15    C     0.03140   0.17853   0.39509   0.00000  Uiso   1.00
C16    C     0.29859   0.14889   0.10716   0.00000  Uiso   1.00
C17    C     0.00711   0.20129   0.47812   0.00000  Uiso   1.00
C18    C     0.29674   0.08942   0.03494   0.00000  Uiso   1.00
C19    C     0.32401   0.19279   0.42818   0.00000  Uiso   1.00
C20    C     0.32068   0.10623   0.08140   0.00000  Uiso   1.00
C21    C     0.08693   0.17605   0.41396   0.00000  Uiso   1.00
C22    C     0.25349   0.17384   0.08621   0.00000  Uiso   1.00
C23    C     0.09783   0.16997   0.46335   0.00000  Uiso   1.00
C24    C     0.22300   0.15000   0.04432   0.00000  Uiso   1.00
C25    C     0.06054   0.18965   0.49595   0.00000  Uiso   1.00
C26    C     0.24804   0.11070   0.01632   0.00000  Uiso   1.00
C27    C     0.14801   0.15032   0.48081   0.00000  Uiso   1.00
C28    C     0.16857   0.16395   0.02927   0.00000  Uiso   1.00
C29    C     0.13234   0.18753   0.06152   0.00000  Uiso   1.00
C30    C     0.17503   0.11367   0.45208   0.00000  Uiso   1.00
C31    C     0.07818   0.19864   0.04519   0.00000  Uiso   1.00
C32    C     0.22351   0.09257   0.47045   0.00000  Uiso   1.00
H33    H     0.05065   0.21490   0.07094   0.00000  Uiso   1.00
H34    H     0.24243   0.06294   0.44837   0.00000  Uiso   1.00
H35    H     0.31103   0.21570   0.00304   0.00000  Uiso   1.00
H36    H     0.31474   0.05802   0.01431   0.00000  Uiso   1.00
H37    H     0.14303   0.19351   0.10022   0.00000  Uiso   1.00
H38    H     0.15733   0.09955   0.41603   0.00000  Uiso   1.00
C39    C     0.02226   0.31920   0.24719   0.00000  Uiso   1.00
C40    C     0.31064   0.01396   0.25078   0.00000  Uiso   1.00
H41    H     0.06468   0.00272   0.24356   0.00000  Uiso   1.00
H42    H     0.26812   0.33041   0.25399   0.00000  Uiso   1.00
N43    N     0.14695   0.15216   0.23739   0.00000  Uiso   1.00
N44    N     0.18638   0.18117   0.26260   0.00000  Uiso   1.00
O45    O     0.23775   0.21970   0.10930   0.00000  Uiso   1.00
C46    C     0.25712   0.26250   0.08396   0.00000  Uiso   1.00
H47    H     0.23686   0.26083   0.04631   0.00000  Uiso   1.00
H48    H     0.30377   0.26480   0.08331   0.00000  Uiso   1.00
H49    H     0.24561   0.29906   0.10336   0.00000  Uiso   1.00
O50    O     0.13077   0.19610   0.38877   0.00000  Uiso   1.00
C51    C     0.12886   0.25140   0.39106   0.00000  Uiso   1.00
H52    H     0.12375   0.26844   0.42863   0.00000  Uiso   1.00
H53    H     0.09479   0.26318   0.36541   0.00000  Uiso   1.00
H54    H     0.16893   0.26950   0.38036   0.00000  Uiso   1.00
N55    N     0.03140   0.07763   0.10252   0.00000  Uiso   1.00
O56    O     0.08077   0.10105   0.11499   0.00000  Uiso   1.00
O57    O     0.02603   0.02674   0.09975   0.00000  Uiso   1.00
N58    N     0.26837   0.20466   0.41228   0.00000  Uiso   1.00
O59    O     0.24632   0.24402   0.43408   0.00000  Uiso   1.00
O60    O     0.23555   0.16977   0.38592   0.00000  Uiso   1.00
N61    N     0.16095   0.10101   0.22899   0.00000  Uiso   1.00
O62    O     0.15608   0.06836   0.26283   0.00000  Uiso   1.00
O63    O     0.17312   0.08415   0.18574   0.00000  Uiso   1.00
N64    N     0.17639   0.23386   0.26398   0.00000  Uiso   1.00
O65    O     0.16358   0.25474   0.22327   0.00000  Uiso   1.00
O66    O     0.19950   0.26452   0.30016   0.00000  Uiso   1.00
O67    O     0.63052   0.24631   0.25309   0.00000  Uiso   1.00
O68    O     0.36948   0.08702   0.24690   0.00000  Uiso   1.00
O69    O     0.39155   0.23702   0.24502   0.00000  Uiso   1.00
O70    O     0.60845   0.09632   0.25498   0.00000  Uiso   1.00
C71    C     0.34809   0.26465   0.24851   0.00000  Uiso   1.00
C72    C     0.65177   0.06863   0.25082   0.00000  Uiso   1.00
O73    O     0.63662   0.17397   0.32247   0.00000  Uiso   1.00
O74    O     0.36338   0.15937   0.17753   0.00000  Uiso   1.00
O75    O     0.39764   0.16467   0.31439   0.00000  Uiso   1.00
O76    O     0.60236   0.16866   0.18561   0.00000  Uiso   1.00
C77    C     0.35461   0.17221   0.34135   0.00000  Uiso   1.00
C78    C     0.64503   0.16072   0.15922   0.00000  Uiso   1.00
Zn79   Zn    0.60366   0.17287   0.25539   0.00000  Uiso   1.00
Zn80   Zn    0.39634   0.16046   0.24460   0.00000  Uiso   1.00
C81    C     0.36474   0.17853   0.39509   0.00000  Uiso   1.00
C82    C     0.63192   0.14889   0.10716   0.00000  Uiso   1.00
C83    C     0.34045   0.20129   0.47812   0.00000  Uiso   1.00
C84    C     0.63007   0.08942   0.03494   0.00000  Uiso   1.00
C85    C     0.65734   0.19279   0.42818   0.00000  Uiso   1.00
C86    C     0.65402   0.10623   0.08140   0.00000  Uiso   1.00
C87    C     0.42026   0.17605   0.41396   0.00000  Uiso   1.00
C88    C     0.58683   0.17384   0.08621   0.00000  Uiso   1.00
C89    C     0.43117   0.16997   0.46335   0.00000  Uiso   1.00
C90    C     0.55633   0.15000   0.04432   0.00000  Uiso   1.00
C91    C     0.39387   0.18965   0.49595   0.00000  Uiso   1.00
C92    C     0.58137   0.11070   0.01632   0.00000  Uiso   1.00
C93    C     0.48134   0.15032   0.48081   0.00000  Uiso   1.00
C94    C     0.50190   0.16395   0.02927   0.00000  Uiso   1.00
C95    C     0.46567   0.18753   0.06152   0.00000  Uiso   1.00
C96    C     0.50837   0.11367   0.45208   0.00000  Uiso   1.00
C97    C     0.41151   0.19864   0.04519   0.00000  Uiso   1.00
C98    C     0.55684   0.09257   0.47045   0.00000  Uiso   1.00
H99    H     0.38399   0.21490   0.07094   0.00000  Uiso   1.00
H100   H     0.57576   0.06294   0.44837   0.00000  Uiso   1.00
H101   H     0.64437   0.21570   0.00304   0.00000  Uiso   1.00
H102   H     0.64808   0.05802   0.01431   0.00000  Uiso   1.00
H103   H     0.47637   0.19351   0.10022   0.00000  Uiso   1.00
H104   H     0.49066   0.09955   0.41603   0.00000  Uiso   1.00
C105   C     0.35560   0.31920   0.24719   0.00000  Uiso   1.00
C106   C     0.64397   0.01396   0.25078   0.00000  Uiso   1.00
H107   H     0.39801   0.00272   0.24356   0.00000  Uiso   1.00
H108   H     0.60145   0.33041   0.25399   0.00000  Uiso   1.00
N109   N     0.48029   0.15216   0.23739   0.00000  Uiso   1.00
N110   N     0.51971   0.18117   0.26260   0.00000  Uiso   1.00
O111   O     0.57108   0.21970   0.10930   0.00000  Uiso   1.00
C112   C     0.59045   0.26250   0.08396   0.00000  Uiso   1.00
H113   H     0.57019   0.26083   0.04631   0.00000  Uiso   1.00
H114   H     0.63711   0.26480   0.08331   0.00000  Uiso   1.00
H115   H     0.57895   0.29906   0.10336   0.00000  Uiso   1.00
O116   O     0.46411   0.19610   0.38877   0.00000  Uiso   1.00
C117   C     0.46219   0.25140   0.39106   0.00000  Uiso   1.00
H118   H     0.45708   0.26844   0.42863   0.00000  Uiso   1.00
H119   H     0.42812   0.26318   0.36541   0.00000  Uiso   1.00
H120   H     0.50226   0.26950   0.38036   0.00000  Uiso   1.00
N121   N     0.36474   0.07763   0.10252   0.00000  Uiso   1.00
O122   O     0.41411   0.10105   0.11499   0.00000  Uiso   1.00
O123   O     0.35936   0.02674   0.09975   0.00000  Uiso   1.00
N124   N     0.60170   0.20466   0.41228   0.00000  Uiso   1.00
O125   O     0.57965   0.24402   0.43408   0.00000  Uiso   1.00
O126   O     0.56888   0.16977   0.38592   0.00000  Uiso   1.00
N127   N     0.49428   0.10101   0.22899   0.00000  Uiso   1.00
O128   O     0.48941   0.06836   0.26283   0.00000  Uiso   1.00
O129   O     0.50645   0.08415   0.18574   0.00000  Uiso   1.00
N130   N     0.50972   0.23386   0.26398   0.00000  Uiso   1.00
O131   O     0.49691   0.25474   0.22327   0.00000  Uiso   1.00
O132   O     0.53283   0.26452   0.30016   0.00000  Uiso   1.00
O133   O     0.96386   0.24631   0.25309   0.00000  Uiso   1.00
O134   O     0.70281   0.08702   0.24690   0.00000  Uiso   1.00
O135   O     0.72488   0.23702   0.24502   0.00000  Uiso   1.00
O136   O     0.94178   0.09632   0.25498   0.00000  Uiso   1.00
C137   C     0.68142   0.26465   0.24851   0.00000  Uiso   1.00
C138   C     0.98510   0.06863   0.25082   0.00000  Uiso   1.00
O139   O     0.96995   0.17397   0.32247   0.00000  Uiso   1.00
O140   O     0.69672   0.15937   0.17753   0.00000  Uiso   1.00
O141   O     0.73098   0.16467   0.31439   0.00000  Uiso   1.00
O142   O     0.93569   0.16866   0.18561   0.00000  Uiso   1.00
C143   C     0.68794   0.17221   0.34135   0.00000  Uiso   1.00
C144   C     0.97836   0.16072   0.15922   0.00000  Uiso   1.00
Zn145  Zn    0.93700   0.17287   0.25539   0.00000  Uiso   1.00
Zn146  Zn    0.72967   0.16046   0.24460   0.00000  Uiso   1.00
C147   C     0.69807   0.17853   0.39509   0.00000  Uiso   1.00
C148   C     0.96525   0.14889   0.10716   0.00000  Uiso   1.00
C149   C     0.67378   0.20129   0.47812   0.00000  Uiso   1.00
C150   C     0.96340   0.08942   0.03494   0.00000  Uiso   1.00
C151   C     0.99068   0.19279   0.42818   0.00000  Uiso   1.00
C152   C     0.98735   0.10623   0.08140   0.00000  Uiso   1.00
C153   C     0.75360   0.17605   0.41396   0.00000  Uiso   1.00
C154   C     0.92016   0.17384   0.08621   0.00000  Uiso   1.00
C155   C     0.76450   0.16997   0.46335   0.00000  Uiso   1.00
C156   C     0.88967   0.15000   0.04432   0.00000  Uiso   1.00
C157   C     0.72720   0.18965   0.49595   0.00000  Uiso   1.00
C158   C     0.91471   0.11070   0.01632   0.00000  Uiso   1.00
C159   C     0.81468   0.15032   0.48081   0.00000  Uiso   1.00
C160   C     0.83523   0.16395   0.02927   0.00000  Uiso   1.00
C161   C     0.79900   0.18753   0.06152   0.00000  Uiso   1.00
C162   C     0.84170   0.11367   0.45208   0.00000  Uiso   1.00
C163   C     0.74484   0.19864   0.04519   0.00000  Uiso   1.00
C164   C     0.89018   0.09257   0.47045   0.00000  Uiso   1.00
H165   H     0.71732   0.21490   0.07094   0.00000  Uiso   1.00
H166   H     0.90909   0.06294   0.44837   0.00000  Uiso   1.00
H167   H     0.97770   0.21570   0.00304   0.00000  Uiso   1.00
H168   H     0.98141   0.05802   0.01431   0.00000  Uiso   1.00
H169   H     0.80970   0.19351   0.10022   0.00000  Uiso   1.00
H170   H     0.82400   0.09955   0.41603   0.00000  Uiso   1.00
C171   C     0.68893   0.31920   0.24719   0.00000  Uiso   1.00
C172   C     0.97731   0.01396   0.25078   0.00000  Uiso   1.00
H173   H     0.73135   0.00272   0.24356   0.00000  Uiso   1.00
H174   H     0.93479   0.33041   0.25399   0.00000  Uiso   1.00
N175   N     0.81362   0.15216   0.23739   0.00000  Uiso   1.00
N176   N     0.85305   0.18117   0.26260   0.00000  Uiso   1.00
O177   O     0.90442   0.21970   0.10930   0.00000  Uiso   1.00
C178   C     0.92379   0.26250   0.08396   0.00000  Uiso   1.00
H179   H     0.90353   0.26083   0.04631   0.00000  Uiso   1.00
H180   H     0.97044   0.26480   0.08331   0.00000  Uiso   1.00
H181   H     0.91228   0.29906   0.10336   0.00000  Uiso   1.00
O182   O     0.79744   0.19610   0.38877   0.00000  Uiso   1.00
C183   C     0.79553   0.25140   0.39106   0.00000  Uiso   1.00
H184   H     0.79041   0.26844   0.42863   0.00000  Uiso   1.00
H185   H     0.76146   0.26318   0.36541   0.00000  Uiso   1.00
H186   H     0.83559   0.26950   0.38036   0.00000  Uiso   1.00
N187   N     0.69807   0.07763   0.10252   0.00000  Uiso   1.00
O188   O     0.74744   0.10105   0.11499   0.00000  Uiso   1.00
O189   O     0.69269   0.02674   0.09975   0.00000  Uiso   1.00
N190   N     0.93503   0.20466   0.41228   0.00000  Uiso   1.00
O191   O     0.91298   0.24402   0.43408   0.00000  Uiso   1.00
O192   O     0.90222   0.16977   0.38592   0.00000  Uiso   1.00
N193   N     0.82761   0.10101   0.22899   0.00000  Uiso   1.00
O194   O     0.82274   0.06836   0.26283   0.00000  Uiso   1.00
O195   O     0.83979   0.08415   0.18574   0.00000  Uiso   1.00
N196   N     0.84305   0.23386   0.26398   0.00000  Uiso   1.00
O197   O     0.83025   0.25474   0.22327   0.00000  Uiso   1.00
O198   O     0.86616   0.26452   0.30016   0.00000  Uiso   1.00
O199   O     0.29719   0.57964   0.25309   0.00000  Uiso   1.00
O200   O     0.03614   0.42036   0.24690   0.00000  Uiso   1.00
O201   O     0.05822   0.57035   0.24502   0.00000  Uiso   1.00
O202   O     0.27512   0.42965   0.25498   0.00000  Uiso   1.00
C203   C     0.01476   0.59798   0.24851   0.00000  Uiso   1.00
C204   C     0.31844   0.40196   0.25082   0.00000  Uiso   1.00
O205   O     0.30328   0.50730   0.32247   0.00000  Uiso   1.00
O206   O     0.03005   0.49270   0.17753   0.00000  Uiso   1.00
O207   O     0.06431   0.49801   0.31439   0.00000  Uiso   1.00
O208   O     0.26902   0.50199   0.18561   0.00000  Uiso   1.00
C209   C     0.02128   0.50554   0.34135   0.00000  Uiso   1.00
C210   C     0.31170   0.49405   0.15922   0.00000  Uiso   1.00
Zn211  Zn    0.27033   0.50621   0.25539   0.00000  Uiso   1.00
Zn212  Zn    0.06300   0.49379   0.24460   0.00000  Uiso   1.00
C213   C     0.03140   0.51187   0.39509   0.00000  Uiso   1.00
C214   C     0.29859   0.48223   0.10716   0.00000  Uiso   1.00
C215   C     0.00711   0.53462   0.47812   0.00000  Uiso   1.00
C216   C     0.29674   0.42275   0.03494   0.00000  Uiso   1.00
C217   C     0.32401   0.52612   0.42818   0.00000  Uiso   1.00
C218   C     0.32068   0.43956   0.08140   0.00000  Uiso   1.00
C219   C     0.08693   0.50938   0.41396   0.00000  Uiso   1.00
C220   C     0.25349   0.50718   0.08621   0.00000  Uiso   1.00
C221   C     0.09783   0.50331   0.46335   0.00000  Uiso   1.00
C222   C     0.22300   0.48334   0.04432   0.00000  Uiso   1.00
C223   C     0.06054   0.52298   0.49595   0.00000  Uiso   1.00
C224   C     0.24804   0.44404   0.01632   0.00000  Uiso   1.00
C225   C     0.14801   0.48366   0.48081   0.00000  Uiso   1.00
C226   C     0.16857   0.49729   0.02927   0.00000  Uiso   1.00
C227   C     0.13234   0.52086   0.06152   0.00000  Uiso   1.00
C228   C     0.17503   0.44700   0.45208   0.00000  Uiso   1.00
C229   C     0.07818   0.53197   0.04519   0.00000  Uiso   1.00
C230   C     0.22351   0.42590   0.47045   0.00000  Uiso   1.00
H231   H     0.05065   0.54823   0.07094   0.00000  Uiso   1.00
H232   H     0.24243   0.39627   0.44837   0.00000  Uiso   1.00
H233   H     0.31103   0.54903   0.00304   0.00000  Uiso   1.00
H234   H     0.31474   0.39136   0.01431   0.00000  Uiso   1.00
H235   H     0.14303   0.52685   0.10022   0.00000  Uiso   1.00
H236   H     0.15733   0.43288   0.41603   0.00000  Uiso   1.00
C237   C     0.02226   0.65254   0.24719   0.00000  Uiso   1.00
C238   C     0.31064   0.34729   0.25078   0.00000  Uiso   1.00
H239   H     0.06468   0.33605   0.24356   0.00000  Uiso   1.00
H240   H     0.26812   0.66374   0.25399   0.00000  Uiso   1.00
N241   N     0.14695   0.48550   0.23739   0.00000  Uiso   1.00
N242   N     0.18638   0.51450   0.26260   0.00000  Uiso   1.00
O243   O     0.23775   0.55303   0.10930   0.00000  Uiso   1.00
C244   C     0.25712   0.59583   0.08396   0.00000  Uiso   1.00
H245   H     0.23686   0.59417   0.04631   0.00000  Uiso   1.00
H246   H     0.30377   0.59813   0.08331   0.00000  Uiso   1.00
H247   H     0.24561   0.63240   0.10336   0.00000  Uiso   1.00
O248   O     0.13077   0.52943   0.38877   0.00000  Uiso   1.00
C249   C     0.12886   0.58473   0.39106   0.00000  Uiso   1.00
H250   H     0.12375   0.60177   0.42863   0.00000  Uiso   1.00
H251   H     0.09479   0.59651   0.36541   0.00000  Uiso   1.00
H252   H     0.16893   0.60284   0.38036   0.00000  Uiso   1.00
N253   N     0.03140   0.41097   0.10252   0.00000  Uiso   1.00
O254   O     0.08077   0.43439   0.11499   0.00000  Uiso   1.00
O255   O     0.02603   0.36007   0.09975   0.00000  Uiso   1.00
N256   N     0.26837   0.53799   0.41228   0.00000  Uiso   1.00
O257   O     0.24632   0.57735   0.43408   0.00000  Uiso   1.00
O258   O     0.23555   0.50310   0.38592   0.00000  Uiso   1.00
N259   N     0.16095   0.43434   0.22899   0.00000  Uiso   1.00
O260   O     0.15608   0.40169   0.26283   0.00000  Uiso   1.00
O261   O     0.17312   0.41749   0.18574   0.00000  Uiso   1.00
N262   N     0.17639   0.56719   0.26398   0.00000  Uiso   1.00
O263   O     0.16358   0.58807   0.22327   0.00000  Uiso   1.00
O264   O     0.19950   0.59785   0.30016   0.00000  Uiso   1.00
O265   O     0.63052   0.57964   0.25309   0.00000  Uiso   1.00
O266   O     0.36948   0.42036   0.24690   0.00000  Uiso   1.00
O267   O     0.39155   0.57035   0.24502   0.00000  Uiso   1.00
O268   O     0.60845   0.42965   0.25498   0.00000  Uiso   1.00
C269   C     0.34809   0.59798   0.24851   0.00000  Uiso   1.00
C270   C     0.65177   0.40196   0.25082   0.00000  Uiso   1.00
O271   O     0.63662   0.50730   0.32247   0.00000  Uiso   1.00
O272   O     0.36338   0.49270   0.17753   0.00000  Uiso   1.00
O273   O     0.39764   0.49801   0.31439   0.00000  Uiso   1.00
O274   O     0.60236   0.50199   0.18561   0.00000  Uiso   1.00
C275   C     0.35461   0.50554   0.34135   0.00000  Uiso   1.00
C276   C     0.64503   0.49405   0.15922   0.00000  Uiso   1.00
Zn277  Zn    0.60366   0.50621   0.25539   0.00000  Uiso   1.00
Zn278  Zn    0.39634   0.49379   0.24460   0.00000  Uiso   1.00
C279   C     0.36474   0.51187   0.39509   0.00000  Uiso   1.00
C280   C     0.63192   0.48223   0.10716   0.00000  Uiso   1.00
C281   C     0.34045   0.53462   0.47812   0.00000  Uiso   1.00
C282   C     0.63007   0.42275   0.03494   0.00000  Uiso   1.00
C283   C     0.65734   0.52612   0.42818   0.00000  Uiso   1.00
C284   C     0.65402   0.43956   0.08140   0.00000  Uiso   1.00
C285   C     0.42026   0.50938   0.41396   0.00000  Uiso   1.00
C286   C     0.58683   0.50718   0.08621   0.00000  Uiso   1.00
C287   C     0.43117   0.50331   0.46335   0.00000  Uiso   1.00
C288   C     0.55633   0.48334   0.04432   0.00000  Uiso   1.00
C289   C     0.39387   0.52298   0.49595   0.00000  Uiso   1.00
C290   C     0.58137   0.44404   0.01632   0.00000  Uiso   1.00
C291   C     0.48134   0.48366   0.48081   0.00000  Uiso   1.00
C292   C     0.50190   0.49729   0.02927   0.00000  Uiso   1.00
C293   C     0.46567   0.52086   0.06152   0.00000  Uiso   1.00
C294   C     0.50837   0.44700   0.45208   0.00000  Uiso   1.00
C295   C     0.41151   0.53197   0.04519   0.00000  Uiso   1.00
C296   C     0.55684   0.42590   0.47045   0.00000  Uiso   1.00
H297   H     0.38399   0.54823   0.07094   0.00000  Uiso   1.00
H298   H     0.57576   0.39627   0.44837   0.00000  Uiso   1.00
H299   H     0.64437   0.54903   0.00304   0.00000  Uiso   1.00
H300   H     0.64808   0.39136   0.01431   0.00000  Uiso   1.00
H301   H     0.47637   0.52685   0.10022   0.00000  Uiso   1.00
H302   H     0.49066   0.43288   0.41603   0.00000  Uiso   1.00
C303   C     0.35560   0.65254   0.24719   0.00000  Uiso   1.00
C304   C     0.64397   0.34729   0.25078   0.00000  Uiso   1.00
H305   H     0.39801   0.33605   0.24356   0.00000  Uiso   1.00
H306   H     0.60145   0.66374   0.25399   0.00000  Uiso   1.00
N307   N     0.48029   0.48550   0.23739   0.00000  Uiso   1.00
N308   N     0.51971   0.51450   0.26260   0.00000  Uiso   1.00
O309   O     0.57108   0.55303   0.10930   0.00000  Uiso   1.00
C310   C     0.59045   0.59583   0.08396   0.00000  Uiso   1.00
H311   H     0.57019   0.59417   0.04631   0.00000  Uiso   1.00
H312   H     0.63711   0.59813   0.08331   0.00000  Uiso   1.00
H313   H     0.57895   0.63240   0.10336   0.00000  Uiso   1.00
O314   O     0.46411   0.52943   0.38877   0.00000  Uiso   1.00
C315   C     0.46219   0.58473   0.39106   0.00000  Uiso   1.00
H316   H     0.45708   0.60177   0.42863   0.00000  Uiso   1.00
H317   H     0.42812   0.59651   0.36541   0.00000  Uiso   1.00
H318   H     0.50226   0.60284   0.38036   0.00000  Uiso   1.00
N319   N     0.36474   0.41097   0.10252   0.00000  Uiso   1.00
O320   O     0.41411   0.43439   0.11499   0.00000  Uiso   1.00
O321   O     0.35936   0.36007   0.09975   0.00000  Uiso   1.00
N322   N     0.60170   0.53799   0.41228   0.00000  Uiso   1.00
O323   O     0.57965   0.57735   0.43408   0.00000  Uiso   1.00
O324   O     0.56888   0.50310   0.38592   0.00000  Uiso   1.00
N325   N     0.49428   0.43434   0.22899   0.00000  Uiso   1.00
O326   O     0.48941   0.40169   0.26283   0.00000  Uiso   1.00
O327   O     0.50645   0.41749   0.18574   0.00000  Uiso   1.00
N328   N     0.50972   0.56719   0.26398   0.00000  Uiso   1.00
O329   O     0.49691   0.58807   0.22327   0.00000  Uiso   1.00
O330   O     0.53283   0.59785   0.30016   0.00000  Uiso   1.00
O331   O     0.96386   0.57964   0.25309   0.00000  Uiso   1.00
O332   O     0.70281   0.42036   0.24690   0.00000  Uiso   1.00
O333   O     0.72488   0.57035   0.24502   0.00000  Uiso   1.00
O334   O     0.94178   0.42965   0.25498   0.00000  Uiso   1.00
C335   C     0.68142   0.59798   0.24851   0.00000  Uiso   1.00
C336   C     0.98510   0.40196   0.25082   0.00000  Uiso   1.00
O337   O     0.96995   0.50730   0.32247   0.00000  Uiso   1.00
O338   O     0.69672   0.49270   0.17753   0.00000  Uiso   1.00
O339   O     0.73098   0.49801   0.31439   0.00000  Uiso   1.00
O340   O     0.93569   0.50199   0.18561   0.00000  Uiso   1.00
C341   C     0.68794   0.50554   0.34135   0.00000  Uiso   1.00
C342   C     0.97836   0.49405   0.15922   0.00000  Uiso   1.00
Zn343  Zn    0.93700   0.50621   0.25539   0.00000  Uiso   1.00
Zn344  Zn    0.72967   0.49379   0.24460   0.00000  Uiso   1.00
C345   C     0.69807   0.51187   0.39509   0.00000  Uiso   1.00
C346   C     0.96525   0.48223   0.10716   0.00000  Uiso   1.00
C347   C     0.67378   0.53462   0.47812   0.00000  Uiso   1.00
C348   C     0.96340   0.42275   0.03494   0.00000  Uiso   1.00
C349   C     0.99068   0.52612   0.42818   0.00000  Uiso   1.00
C350   C     0.98735   0.43956   0.08140   0.00000  Uiso   1.00
C351   C     0.75360   0.50938   0.41396   0.00000  Uiso   1.00
C352   C     0.92016   0.50718   0.08621   0.00000  Uiso   1.00
C353   C     0.76450   0.50331   0.46335   0.00000  Uiso   1.00
C354   C     0.88967   0.48334   0.04432   0.00000  Uiso   1.00
C355   C     0.72720   0.52298   0.49595   0.00000  Uiso   1.00
C356   C     0.91471   0.44404   0.01632   0.00000  Uiso   1.00
C357   C     0.81468   0.48366   0.48081   0.00000  Uiso   1.00
C358   C     0.83523   0.49729   0.02927   0.00000  Uiso   1.00
C359   C     0.79900   0.52086   0.06152   0.00000  Uiso   1.00
C360   C     0.84170   0.44700   0.45208   0.00000  Uiso   1.00
C361   C     0.74484   0.53197   0.04519   0.00000  Uiso   1.00
C362   C     0.89018   0.42590   0.47045   0.00000  Uiso   1.00
H363   H     0.71732   0.54823   0.07094   0.00000  Uiso   1.00
H364   H     0.90909   0.39627   0.44837   0.00000  Uiso   1.00
H365   H     0.97770   0.54903   0.00304   0.00000  Uiso   1.00
H366   H     0.98141   0.39136   0.01431   0.00000  Uiso   1.00
H367   H     0.80970   0.52685   0.10022   0.00000  Uiso   1.00
H368   H     0.82400   0.43288   0.41603   0.00000  Uiso   1.00
C369   C     0.68893   0.65254   0.24719   0.00000  Uiso   1.00
C370   C     0.97731   0.34729   0.25078   0.00000  Uiso   1.00
H371   H     0.73135   0.33605   0.24356   0.00000  Uiso   1.00
H372   H     0.93479   0.66374   0.25399   0.00000  Uiso   1.00
N373   N     0.81362   0.48550   0.23739   0.00000  Uiso   1.00
N374   N     0.85305   0.51450   0.26260   0.00000  Uiso   1.00
O375   O     0.90442   0.55303   0.10930   0.00000  Uiso   1.00
C376   C     0.92379   0.59583   0.08396   0.00000  Uiso   1.00
H377   H     0.90353   0.59417   0.04631   0.00000  Uiso   1.00
H378   H     0.97044   0.59813   0.08331   0.00000  Uiso   1.00
H379   H     0.91228   0.63240   0.10336   0.00000  Uiso   1.00
O380   O     0.79744   0.52943   0.38877   0.00000  Uiso   1.00
C381   C     0.79553   0.58473   0.39106   0.00000  Uiso   1.00
H382   H     0.79041   0.60177   0.42863   0.00000  Uiso   1.00
H383   H     0.76146   0.59651   0.36541   0.00000  Uiso   1.00
H384   H     0.83559   0.60284   0.38036   0.00000  Uiso   1.00
N385   N     0.69807   0.41097   0.10252   0.00000  Uiso   1.00
O386   O     0.74744   0.43439   0.11499   0.00000  Uiso   1.00
O387   O     0.69269   0.36007   0.09975   0.00000  Uiso   1.00
N388   N     0.93503   0.53799   0.41228   0.00000  Uiso   1.00
O389   O     0.91298   0.57735   0.43408   0.00000  Uiso   1.00
O390   O     0.90222   0.50310   0.38592   0.00000  Uiso   1.00
N391   N     0.82761   0.43434   0.22899   0.00000  Uiso   1.00
O392   O     0.82274   0.40169   0.26283   0.00000  Uiso   1.00
O393   O     0.83979   0.41749   0.18574   0.00000  Uiso   1.00
N394   N     0.84305   0.56719   0.26398   0.00000  Uiso   1.00
O395   O     0.83025   0.58807   0.22327   0.00000  Uiso   1.00
O396   O     0.86616   0.59785   0.30016   0.00000  Uiso   1.00
O397   O     0.29719   0.91298   0.25309   0.00000  Uiso   1.00
O398   O     0.03614   0.75369   0.24690   0.00000  Uiso   1.00
O399   O     0.05822   0.90368   0.24502   0.00000  Uiso   1.00
O400   O     0.27512   0.76298   0.25498   0.00000  Uiso   1.00
C401   C     0.01476   0.93132   0.24851   0.00000  Uiso   1.00
C402   C     0.31844   0.73529   0.25082   0.00000  Uiso   1.00
O403   O     0.30328   0.84063   0.32247   0.00000  Uiso   1.00
O404   O     0.03005   0.82603   0.17753   0.00000  Uiso   1.00
O405   O     0.06431   0.83134   0.31439   0.00000  Uiso   1.00
O406   O     0.26902   0.83533   0.18561   0.00000  Uiso   1.00
C407   C     0.02128   0.83888   0.34135   0.00000  Uiso   1.00
C408   C     0.31170   0.82739   0.15922   0.00000  Uiso   1.00
Zn409  Zn    0.27033   0.83954   0.25539   0.00000  Uiso   1.00
Zn410  Zn    0.06300   0.82713   0.24460   0.00000  Uiso   1.00
C411   C     0.03140   0.84520   0.39509   0.00000  Uiso   1.00
C412   C     0.29859   0.81556   0.10716   0.00000  Uiso   1.00
C413   C     0.00711   0.86795   0.47812   0.00000  Uiso   1.00
C414   C     0.29674   0.75608   0.03494   0.00000  Uiso   1.00
C415   C     0.32401   0.85945   0.42818   0.00000  Uiso   1.00
C416   C     0.32068   0.77289   0.08140   0.00000  Uiso   1.00
C417   C     0.08693   0.84271   0.41396   0.00000  Uiso   1.00
C418   C     0.25349   0.84051   0.08621   0.00000  Uiso   1.00
C419   C     0.09783   0.83664   0.46335   0.00000  Uiso   1.00
C420   C     0.22300   0.81667   0.04432   0.00000  Uiso   1.00
C421   C     0.06054   0.85632   0.49595   0.00000  Uiso   1.00
C422   C     0.24804   0.77737   0.01632   0.00000  Uiso   1.00
C423   C     0.14801   0.81699   0.48081   0.00000  Uiso   1.00
C424   C     0.16857   0.83062   0.02927   0.00000  Uiso   1.00
C425   C     0.13234   0.85419   0.06152   0.00000  Uiso   1.00
C426   C     0.17503   0.78034   0.45208   0.00000  Uiso   1.00
C427   C     0.07818   0.86530   0.04519   0.00000  Uiso   1.00
C428   C     0.22351   0.75924   0.47045   0.00000  Uiso   1.00
H429   H     0.05065   0.88156   0.07094   0.00000  Uiso   1.00
H430   H     0.24243   0.72960   0.44837   0.00000  Uiso   1.00
H431   H     0.31103   0.88237   0.00304   0.00000  Uiso   1.00
H432   H     0.31474   0.72469   0.01431   0.00000  Uiso   1.00
H433   H     0.14303   0.86018   0.10022   0.00000  Uiso   1.00
H434   H     0.15733   0.76621   0.41603   0.00000  Uiso   1.00
C435   C     0.02226   0.98587   0.24719   0.00000  Uiso   1.00
C436   C     0.31064   0.68062   0.25078   0.00000  Uiso   1.00
H437   H     0.06468   0.66938   0.24356   0.00000  Uiso   1.00
H438   H     0.26812   0.99708   0.25399   0.00000  Uiso   1.00
N439   N     0.14695   0.81883   0.23739   0.00000  Uiso   1.00
N440   N     0.18638   0.84784   0.26260   0.00000  Uiso   1.00
O441   O     0.23775   0.88637   0.10930   0.00000  Uiso   1.00
C442   C     0.25712   0.92916   0.08396   0.00000  Uiso   1.00
H443   H     0.23686   0.92750   0.04631   0.00000  Uiso   1.00
H444   H     0.30377   0.93146   0.08331   0.00000  Uiso   1.00
H445   H     0.24561   0.96573   0.10336   0.00000  Uiso   1.00
O446   O     0.13077   0.86277   0.38877   0.00000  Uiso   1.00
C447   C     0.12886   0.91807   0.39106   0.00000  Uiso   1.00
H448   H     0.12375   0.93510   0.42863   0.00000  Uiso   1.00
H449   H     0.09479   0.92984   0.36541   0.00000  Uiso   1.00
H450   H     0.16893   0.93617   0.38036   0.00000  Uiso   1.00
N451   N     0.03140   0.74430   0.10252   0.00000  Uiso   1.00
O452   O     0.08077   0.76772   0.11499   0.00000  Uiso   1.00
O453   O     0.02603   0.69340   0.09975   0.00000  Uiso   1.00
N454   N     0.26837   0.87132   0.41228   0.00000  Uiso   1.00
O455   O     0.24632   0.91068   0.43408   0.00000  Uiso   1.00
O456   O     0.23555   0.83643   0.38592   0.00000  Uiso   1.00
N457   N     0.16095   0.76767   0.22899   0.00000  Uiso   1.00
O458   O     0.15608   0.73503   0.26283   0.00000  Uiso   1.00
O459   O     0.17312   0.75082   0.18574   0.00000  Uiso   1.00
N460   N     0.17639   0.90053   0.26398   0.00000  Uiso   1.00
O461   O     0.16358   0.92140   0.22327   0.00000  Uiso   1.00
O462   O     0.19950   0.93118   0.30016   0.00000  Uiso   1.00
O463   O     0.63052   0.91298   0.25309   0.00000  Uiso   1.00
O464   O     0.36948   0.75369   0.24690   0.00000  Uiso   1.00
O465   O     0.39155   0.90368   0.24502   0.00000  Uiso   1.00
O466   O     0.60845   0.76298   0.25498   0.00000  Uiso   1.00
C467   C     0.34809   0.93132   0.24851   0.00000  Uiso   1.00
C468   C     0.65177   0.73529   0.25082   0.00000  Uiso   1.00
O469   O     0.63662   0.84063   0.32247   0.00000  Uiso   1.00
O470   O     0.36338   0.82603   0.17753   0.00000  Uiso   1.00
O471   O     0.39764   0.83134   0.31439   0.00000  Uiso   1.00
O472   O     0.60236   0.83533   0.18561   0.00000  Uiso   1.00
C473   C     0.35461   0.83888   0.34135   0.00000  Uiso   1.00
C474   C     0.64503   0.82739   0.15922   0.00000  Uiso   1.00
Zn475  Zn    0.60366   0.83954   0.25539   0.00000  Uiso   1.00
Zn476  Zn    0.39634   0.82713   0.24460   0.00000  Uiso   1.00
C477   C     0.36474   0.84520   0.39509   0.00000  Uiso   1.00
C478   C     0.63192   0.81556   0.10716   0.00000  Uiso   1.00
C479   C     0.34045   0.86795   0.47812   0.00000  Uiso   1.00
C480   C     0.63007   0.75608   0.03494   0.00000  Uiso   1.00
C481   C     0.65734   0.85945   0.42818   0.00000  Uiso   1.00
C482   C     0.65402   0.77289   0.08140   0.00000  Uiso   1.00
C483   C     0.42026   0.84271   0.41396   0.00000  Uiso   1.00
C484   C     0.58683   0.84051   0.08621   0.00000  Uiso   1.00
C485   C     0.43117   0.83664   0.46335   0.00000  Uiso   1.00
C486   C     0.55633   0.81667   0.04432   0.00000  Uiso   1.00
C487   C     0.39387   0.85632   0.49595   0.00000  Uiso   1.00
C488   C     0.58137   0.77737   0.01632   0.00000  Uiso   1.00
C489   C     0.48134   0.81699   0.48081   0.00000  Uiso   1.00
C490   C     0.50190   0.83062   0.02927   0.00000  Uiso   1.00
C491   C     0.46567   0.85419   0.06152   0.00000  Uiso   1.00
C492   C     0.50837   0.78034   0.45208   0.00000  Uiso   1.00
C493   C     0.41151   0.86530   0.04519   0.00000  Uiso   1.00
C494   C     0.55684   0.75924   0.47045   0.00000  Uiso   1.00
H495   H     0.38399   0.88156   0.07094   0.00000  Uiso   1.00
H496   H     0.57576   0.72960   0.44837   0.00000  Uiso   1.00
H497   H     0.64437   0.88237   0.00304   0.00000  Uiso   1.00
H498   H     0.64808   0.72469   0.01431   0.00000  Uiso   1.00
H499   H     0.47637   0.86018   0.10022   0.00000  Uiso   1.00
H500   H     0.49066   0.76621   0.41603   0.00000  Uiso   1.00
C501   C     0.35560   0.98587   0.24719   0.00000  Uiso   1.00
C502   C     0.64397   0.68062   0.25078   0.00000  Uiso   1.00
H503   H     0.39801   0.66938   0.24356   0.00000  Uiso   1.00
H504   H     0.60145   0.99708   0.25399   0.00000  Uiso   1.00
N505   N     0.48029   0.81883   0.23739   0.00000  Uiso   1.00
N506   N     0.51971   0.84784   0.26260   0.00000  Uiso   1.00
O507   O     0.57108   0.88637   0.10930   0.00000  Uiso   1.00
C508   C     0.59045   0.92916   0.08396   0.00000  Uiso   1.00
H509   H     0.57019   0.92750   0.04631   0.00000  Uiso   1.00
H510   H     0.63711   0.93146   0.08331   0.00000  Uiso   1.00
H511   H     0.57895   0.96573   0.10336   0.00000  Uiso   1.00
O512   O     0.46411   0.86277   0.38877   0.00000  Uiso   1.00
C513   C     0.46219   0.91807   0.39106   0.00000  Uiso   1.00
H514   H     0.45708   0.93510   0.42863   0.00000  Uiso   1.00
H515   H     0.42812   0.92984   0.36541   0.00000  Uiso   1.00
H516   H     0.50226   0.93617   0.38036   0.00000  Uiso   1.00
N517   N     0.36474   0.74430   0.10252   0.00000  Uiso   1.00
O518   O     0.41411   0.76772   0.11499   0.00000  Uiso   1.00
O519   O     0.35936   0.69340   0.09975   0.00000  Uiso   1.00
N520   N     0.60170   0.87132   0.41228   0.00000  Uiso   1.00
O521   O     0.57965   0.91068   0.43408   0.00000  Uiso   1.00
O522   O     0.56888   0.83643   0.38592   0.00000  Uiso   1.00
N523   N     0.49428   0.76767   0.22899   0.00000  Uiso   1.00
O524   O     0.48941   0.73503   0.26283   0.00000  Uiso   1.00
O525   O     0.50645   0.75082   0.18574   0.00000  Uiso   1.00
N526   N     0.50972   0.90053   0.26398   0.00000  Uiso   1.00
O527   O     0.49691   0.92140   0.22327   0.00000  Uiso   1.00
O528   O     0.53283   0.93118   0.30016   0.00000  Uiso   1.00
O529   O     0.96386   0.91298   0.25309   0.00000  Uiso   1.00
O530   O     0.70281   0.75369   0.24690   0.00000  Uiso   1.00
O531   O     0.72488   0.90368   0.24502   0.00000  Uiso   1.00
O532   O     0.94178   0.76298   0.25498   0.00000  Uiso   1.00
C533   C     0.68142   0.93132   0.24851   0.00000  Uiso   1.00
C534   C     0.98510   0.73529   0.25082   0.00000  Uiso   1.00
O535   O     0.96995   0.84063   0.32247   0.00000  Uiso   1.00
O536   O     0.69672   0.82603   0.17753   0.00000  Uiso   1.00
O537   O     0.73098   0.83134   0.31439   0.00000  Uiso   1.00
O538   O     0.93569   0.83533   0.18561   0.00000  Uiso   1.00
C539   C     0.68794   0.83888   0.34135   0.00000  Uiso   1.00
C540   C     0.97836   0.82739   0.15922   0.00000  Uiso   1.00
Zn541  Zn    0.93700   0.83954   0.25539   0.00000  Uiso   1.00
Zn542  Zn    0.72967   0.82713   0.24460   0.00000  Uiso   1.00
C543   C     0.69807   0.84520   0.39509   0.00000  Uiso   1.00
C544   C     0.96525   0.81556   0.10716   0.00000  Uiso   1.00
C545   C     0.67378   0.86795   0.47812   0.00000  Uiso   1.00
C546   C     0.96340   0.75608   0.03494   0.00000  Uiso   1.00
C547   C     0.99068   0.85945   0.42818   0.00000  Uiso   1.00
C548   C     0.98735   0.77289   0.08140   0.00000  Uiso   1.00
C549   C     0.75360   0.84271   0.41396   0.00000  Uiso   1.00
C550   C     0.92016   0.84051   0.08621   0.00000  Uiso   1.00
C551   C     0.76450   0.83664   0.46335   0.00000  Uiso   1.00
C552   C     0.88967   0.81667   0.04432   0.00000  Uiso   1.00
C553   C     0.72720   0.85632   0.49595   0.00000  Uiso   1.00
C554   C     0.91471   0.77737   0.01632   0.00000  Uiso   1.00
C555   C     0.81468   0.81699   0.48081   0.00000  Uiso   1.00
C556   C     0.83523   0.83062   0.02927   0.00000  Uiso   1.00
C557   C     0.79900   0.85419   0.06152   0.00000  Uiso   1.00
C558   C     0.84170   0.78034   0.45208   0.00000  Uiso   1.00
C559   C     0.74484   0.86530   0.04519   0.00000  Uiso   1.00
C560   C     0.89018   0.75924   0.47045   0.00000  Uiso   1.00
H561   H     0.71732   0.88156   0.07094   0.00000  Uiso   1.00
H562   H     0.90909   0.72960   0.44837   0.00000  Uiso   1.00
H563   H     0.97770   0.88237   0.00304   0.00000  Uiso   1.00
H564   H     0.98141   0.72469   0.01431   0.00000  Uiso   1.00
H565   H     0.80970   0.86018   0.10022   0.00000  Uiso   1.00
H566   H     0.82400   0.76621   0.41603   0.00000  Uiso   1.00
C567   C     0.68893   0.98587   0.24719   0.00000  Uiso   1.00
C568   C     0.97731   0.68062   0.25078   0.00000  Uiso   1.00
H569   H     0.73135   0.66938   0.24356   0.00000  Uiso   1.00
H570   H     0.93479   0.99708   0.25399   0.00000  Uiso   1.00
N571   N     0.81362   0.81883   0.23739   0.00000  Uiso   1.00
N572   N     0.85305   0.84784   0.26260   0.00000  Uiso   1.00
O573   O     0.90442   0.88637   0.10930   0.00000  Uiso   1.00
C574   C     0.92379   0.92916   0.08396   0.00000  Uiso   1.00
H575   H     0.90353   0.92750   0.04631   0.00000  Uiso   1.00
H576   H     0.97044   0.93146   0.08331   0.00000  Uiso   1.00
H577   H     0.91228   0.96573   0.10336   0.00000  Uiso   1.00
O578   O     0.79744   0.86277   0.38877   0.00000  Uiso   1.00
C579   C     0.79553   0.91807   0.39106   0.00000  Uiso   1.00
H580   H     0.79041   0.93510   0.42863   0.00000  Uiso   1.00
H581   H     0.76146   0.92984   0.36541   0.00000  Uiso   1.00
H582   H     0.83559   0.93617   0.38036   0.00000  Uiso   1.00
N583   N     0.69807   0.74430   0.10252   0.00000  Uiso   1.00
O584   O     0.74744   0.76772   0.11499   0.00000  Uiso   1.00
O585   O     0.69269   0.69340   0.09975   0.00000  Uiso   1.00
N586   N     0.93503   0.87132   0.41228   0.00000  Uiso   1.00
O587   O     0.91298   0.91068   0.43408   0.00000  Uiso   1.00
O588   O     0.90222   0.83643   0.38592   0.00000  Uiso   1.00
N589   N     0.82761   0.76767   0.22899   0.00000  Uiso   1.00
O590   O     0.82274   0.73503   0.26283   0.00000  Uiso   1.00
O591   O     0.83979   0.75082   0.18574   0.00000  Uiso   1.00
N592   N     0.84305   0.90053   0.26398   0.00000  Uiso   1.00
O593   O     0.83025   0.92140   0.22327   0.00000  Uiso   1.00
O594   O     0.86616   0.93118   0.30016   0.00000  Uiso   1.00
O595   O     0.29719   0.24631   0.75309   0.00000  Uiso   1.00
O596   O     0.03614   0.08702   0.74690   0.00000  Uiso   1.00
O597   O     0.05822   0.23702   0.74502   0.00000  Uiso   1.00
O598   O     0.27512   0.09632   0.75498   0.00000  Uiso   1.00
C599   C     0.01476   0.26465   0.74851   0.00000  Uiso   1.00
C600   C     0.31844   0.06863   0.75082   0.00000  Uiso   1.00
O601   O     0.30328   0.17397   0.82247   0.00000  Uiso   1.00
O602   O     0.03005   0.15937   0.67753   0.00000  Uiso   1.00
O603   O     0.06431   0.16467   0.81439   0.00000  Uiso   1.00
O604   O     0.26902   0.16866   0.68561   0.00000  Uiso   1.00
C605   C     0.02128   0.17221   0.84135   0.00000  Uiso   1.00
C606   C     0.31170   0.16072   0.65922   0.00000  Uiso   1.00
Zn607  Zn    0.27033   0.17287   0.75539   0.00000  Uiso   1.00
Zn608  Zn    0.06300   0.16046   0.74460   0.00000  Uiso   1.00
C609   C     0.03140   0.17853   0.89509   0.00000  Uiso   1.00
C610   C     0.29859   0.14889   0.60716   0.00000  Uiso   1.00
C611   C     0.00711   0.20129   0.97812   0.00000  Uiso   1.00
C612   C     0.29674   0.08942   0.53494   0.00000  Uiso   1.00
C613   C     0.32401   0.19279   0.92818   0.00000  Uiso   1.00
C614   C     0.32068   0.10623   0.58140   0.00000  Uiso   1.00
C615   C     0.08693   0.17605   0.91396   0.00000  Uiso   1.00
C616   C     0.25349   0.17384   0.58621   0.00000  Uiso   1.00
C617   C     0.09783   0.16997   0.96335   0.00000  Uiso   1.00
C618   C     0.22300   0.15000   0.54432   0.00000  Uiso   1.00
C619   C     0.06054   0.18965   0.99595   0.00000  Uiso   1.00
C620   C     0.24804   0.11070   0.51632   0.00000  Uiso   1.00
C621   C     0.14801   0.15032   0.98081   0.00000  Uiso   1.00
C622   C     0.16857   0.16395   0.52927   0.00000  Uiso   1.00
C623   C     0.13234   0.18753   0.56152   0.00000  Uiso   1.00
C624   C     0.17503   0.11367   0.95208   0.00000  Uiso   1.00
C625   C     0.07818   0.19864   0.54519   0.00000  Uiso   1.00
C626   C     0.22351   0.09257   0.97045   0.00000  Uiso   1.00
H627   H     0.05065   0.21490   0.57094   0.00000  Uiso   1.00
H628   H     0.24243   0.06294   0.94837   0.00000  Uiso   1.00
H629   H     0.31103   0.21570   0.50304   0.00000  Uiso   1.00
H630   H     0.31474   0.05802   0.51431   0.00000  Uiso   1.00
H631   H     0.14303   0.19351   0.60022   0.00000  Uiso   1.00
H632   H     0.15733   0.09955   0.91603   0.00000  Uiso   1.00
C633   C     0.02226   0.31920   0.74719   0.00000  Uiso   1.00
C634   C     0.31064   0.01396   0.75078   0.00000  Uiso   1.00
H635   H     0.06468   0.00272   0.74356   0.00000  Uiso   1.00
H636   H     0.26812   0.33041   0.75399   0.00000  Uiso   1.00
N637   N     0.14695   0.15216   0.73739   0.00000  Uiso   1.00
N638   N     0.18638   0.18117   0.76260   0.00000  Uiso   1.00
O639   O     0.23775   0.21970   0.60930   0.00000  Uiso   1.00
C640   C     0.25712   0.26250   0.58396   0.00000  Uiso   1.00
H641   H     0.23686   0.26083   0.54631   0.00000  Uiso   1.00
H642   H     0.30377   0.26480   0.58331   0.00000  Uiso   1.00
H643   H     0.24561   0.29906   0.60336   0.00000  Uiso   1.00
O644   O     0.13077   0.19610   0.88877   0.00000  Uiso   1.00
C645   C     0.12886   0.25140   0.89106   0.00000  Uiso   1.00
H646   H     0.12375   0.26844   0.92863   0.00000  Uiso   1.00
H647   H     0.09479   0.26318   0.86541   0.00000  Uiso   1.00
H648   H     0.16893   0.26950   0.88036   0.00000  Uiso   1.00
N649   N     0.03140   0.07763   0.60252   0.00000  Uiso   1.00
O650   O     0.08077   0.10105   0.61499   0.00000  Uiso   1.00
O651   O     0.02603   0.02674   0.59975   0.00000  Uiso   1.00
N652   N     0.26837   0.20466   0.91228   0.00000  Uiso   1.00
O653   O     0.24632   0.24402   0.93408   0.00000  Uiso   1.00
O654   O     0.23555   0.16977   0.88592   0.00000  Uiso   1.00
N655   N     0.16095   0.10101   0.72899   0.00000  Uiso   1.00
O656   O     0.15608   0.06836   0.76283   0.00000  Uiso   1.00
O657   O     0.17312   0.08415   0.68574   0.00000  Uiso   1.00
N658   N     0.17639   0.23386   0.76398   0.00000  Uiso   1.00
O659   O     0.16358   0.25474   0.72327   0.00000  Uiso   1.00
O660   O     0.19950   0.26452   0.80016   0.00000  Uiso   1.00
O661   O     0.63052   0.24631   0.75309   0.00000  Uiso   1.00
O662   O     0.36948   0.08702   0.74690   0.00000  Uiso   1.00
O663   O     0.39155   0.23702   0.74502   0.00000  Uiso   1.00
O664   O     0.60845   0.09632   0.75498   0.00000  Uiso   1.00
C665   C     0.34809   0.26465   0.74851   0.00000  Uiso   1.00
C666   C     0.65177   0.06863   0.75082   0.00000  Uiso   1.00
O667   O     0.63662   0.17397   0.82247   0.00000  Uiso   1.00
O668   O     0.36338   0.15937   0.67753   0.00000  Uiso   1.00
O669   O     0.39764   0.16467   0.81439   0.00000  Uiso   1.00
O670   O     0.60236   0.16866   0.68561   0.00000  Uiso   1.00
C671   C     0.35461   0.17221   0.84135   0.00000  Uiso   1.00
C672   C     0.64503   0.16072   0.65922   0.00000  Uiso   1.00
Zn673  Zn    0.60366   0.17287   0.75539   0.00000  Uiso   1.00
Zn674  Zn    0.39634   0.16046   0.74460   0.00000  Uiso   1.00
C675   C     0.36474   0.17853   0.89509   0.00000  Uiso   1.00
C676   C     0.63192   0.14889   0.60716   0.00000  Uiso   1.00
C677   C     0.34045   0.20129   0.97812   0.00000  Uiso   1.00
C678   C     0.63007   0.08942   0.53494   0.00000  Uiso   1.00
C679   C     0.65734   0.19279   0.92818   0.00000  Uiso   1.00
C680   C     0.65402   0.10623   0.58140   0.00000  Uiso   1.00
C681   C     0.42026   0.17605   0.91396   0.00000  Uiso   1.00
C682   C     0.58683   0.17384   0.58621   0.00000  Uiso   1.00
C683   C     0.43117   0.16997   0.96335   0.00000  Uiso   1.00
C684   C     0.55633   0.15000   0.54432   0.00000  Uiso   1.00
C685   C     0.39387   0.18965   0.99595   0.00000  Uiso   1.00
C686   C     0.58137   0.11070   0.51632   0.00000  Uiso   1.00
C687   C     0.48134   0.15032   0.98081   0.00000  Uiso   1.00
C688   C     0.50190   0.16395   0.52927   0.00000  Uiso   1.00
C689   C     0.46567   0.18753   0.56152   0.00000  Uiso   1.00
C690   C     0.50837   0.11367   0.95208   0.00000  Uiso   1.00
C691   C     0.41151   0.19864   0.54519   0.00000  Uiso   1.00
C692   C     0.55684   0.09257   0.97045   0.00000  Uiso   1.00
H693   H     0.38399   0.21490   0.57094   0.00000  Uiso   1.00
H694   H     0.57576   0.06294   0.94837   0.00000  Uiso   1.00
H695   H     0.64437   0.21570   0.50304   0.00000  Uiso   1.00
H696   H     0.64808   0.05802   0.51431   0.00000  Uiso   1.00
H697   H     0.47637   0.19351   0.60022   0.00000  Uiso   1.00
H698   H     0.49066   0.09955   0.91603   0.00000  Uiso   1.00
C699   C     0.35560   0.31920   0.74719   0.00000  Uiso   1.00
C700   C     0.64397   0.01396   0.75078   0.00000  Uiso   1.00
H701   H     0.39801   0.00272   0.74356   0.00000  Uiso   1.00
H702   H     0.60145   0.33041   0.75399   0.00000  Uiso   1.00
N703   N     0.48029   0.15216   0.73739   0.00000  Uiso   1.00
N704   N     0.51971   0.18117   0.76260   0.00000  Uiso   1.00
O705   O     0.57108   0.21970   0.60930   0.00000  Uiso   1.00
C706   C     0.59045   0.26250   0.58396   0.00000  Uiso   1.00
H707   H     0.57019   0.26083   0.54631   0.00000  Uiso   1.00
H708   H     0.63711   0.26480   0.58331   0.00000  Uiso   1.00
H709   H     0.57895   0.29906   0.60336   0.00000  Uiso   1.00
O710   O     0.46411   0.19610   0.88877   0.00000  Uiso   1.00
C711   C     0.46219   0.25140   0.89106   0.00000  Uiso   1.00
H712   H     0.45708   0.26844   0.92863   0.00000  Uiso   1.00
H713   H     0.42812   0.26318   0.86541   0.00000  Uiso   1.00
H714   H     0.50226   0.26950   0.88036   0.00000  Uiso   1.00
N715   N     0.36474   0.07763   0.60252   0.00000  Uiso   1.00
O716   O     0.41411   0.10105   0.61499   0.00000  Uiso   1.00
O717   O     0.35936   0.02674   0.59975   0.00000  Uiso   1.00
N718   N     0.60170   0.20466   0.91228   0.00000  Uiso   1.00
O719   O     0.57965   0.24402   0.93408   0.00000  Uiso   1.00
O720   O     0.56888   0.16977   0.88592   0.00000  Uiso   1.00
N721   N     0.49428   0.10101   0.72899   0.00000  Uiso   1.00
O722   O     0.48941   0.06836   0.76283   0.00000  Uiso   1.00
O723   O     0.50645   0.08415   0.68574   0.00000  Uiso   1.00
N724   N     0.50972   0.23386   0.76398   0.00000  Uiso   1.00
O725   O     0.49691   0.25474   0.72327   0.00000  Uiso   1.00
O726   O     0.53283   0.26452   0.80016   0.00000  Uiso   1.00
O727   O     0.96386   0.24631   0.75309   0.00000  Uiso   1.00
O728   O     0.70281   0.08702   0.74690   0.00000  Uiso   1.00
O729   O     0.72488   0.23702   0.74502   0.00000  Uiso   1.00
O730   O     0.94178   0.09632   0.75498   0.00000  Uiso   1.00
C731   C     0.68142   0.26465   0.74851   0.00000  Uiso   1.00
C732   C     0.98510   0.06863   0.75082   0.00000  Uiso   1.00
O733   O     0.96995   0.17397   0.82247   0.00000  Uiso   1.00
O734   O     0.69672   0.15937   0.67753   0.00000  Uiso   1.00
O735   O     0.73098   0.16467   0.81439   0.00000  Uiso   1.00
O736   O     0.93569   0.16866   0.68561   0.00000  Uiso   1.00
C737   C     0.68794   0.17221   0.84135   0.00000  Uiso   1.00
C738   C     0.97836   0.16072   0.65922   0.00000  Uiso   1.00
Zn739  Zn    0.93700   0.17287   0.75539   0.00000  Uiso   1.00
Zn740  Zn    0.72967   0.16046   0.74460   0.00000  Uiso   1.00
C741   C     0.69807   0.17853   0.89509   0.00000  Uiso   1.00
C742   C     0.96525   0.14889   0.60716   0.00000  Uiso   1.00
C743   C     0.67378   0.20129   0.97812   0.00000  Uiso   1.00
C744   C     0.96340   0.08942   0.53494   0.00000  Uiso   1.00
C745   C     0.99068   0.19279   0.92818   0.00000  Uiso   1.00
C746   C     0.98735   0.10623   0.58140   0.00000  Uiso   1.00
C747   C     0.75360   0.17605   0.91396   0.00000  Uiso   1.00
C748   C     0.92016   0.17384   0.58621   0.00000  Uiso   1.00
C749   C     0.76450   0.16997   0.96335   0.00000  Uiso   1.00
C750   C     0.88967   0.15000   0.54432   0.00000  Uiso   1.00
C751   C     0.72720   0.18965   0.99595   0.00000  Uiso   1.00
C752   C     0.91471   0.11070   0.51632   0.00000  Uiso   1.00
C753   C     0.81468   0.15032   0.98081   0.00000  Uiso   1.00
C754   C     0.83523   0.16395   0.52927   0.00000  Uiso   1.00
C755   C     0.79900   0.18753   0.56152   0.00000  Uiso   1.00
C756   C     0.84170   0.11367   0.95208   0.00000  Uiso   1.00
C757   C     0.74484   0.19864   0.54519   0.00000  Uiso   1.00
C758   C     0.89018   0.09257   0.97045   0.00000  Uiso   1.00
H759   H     0.71732   0.21490   0.57094   0.00000  Uiso   1.00
H760   H     0.90909   0.06294   0.94837   0.00000  Uiso   1.00
H761   H     0.97770   0.21570   0.50304   0.00000  Uiso   1.00
H762   H     0.98141   0.05802   0.51431   0.00000  Uiso   1.00
H763   H     0.80970   0.19351   0.60022   0.00000  Uiso   1.00
H764   H     0.82400   0.09955   0.91603   0.00000  Uiso   1.00
C765   C     0.68893   0.31920   0.74719   0.00000  Uiso   1.00
C766   C     0.97731   0.01396   0.75078   0.00000  Uiso   1.00
H767   H     0.73135   0.00272   0.74356   0.00000  Uiso   1.00
H768   H     0.93479   0.33041   0.75399   0.00000  Uiso   1.00
N769   N     0.81362   0.15216   0.73739   0.00000  Uiso   1.00
N770   N     0.85305   0.18117   0.76260   0.00000  Uiso   1.00
O771   O     0.90442   0.21970   0.60930   0.00000  Uiso   1.00
C772   C     0.92379   0.26250   0.58396   0.00000  Uiso   1.00
H773   H     0.90353   0.26083   0.54631   0.00000  Uiso   1.00
H774   H     0.97044   0.26480   0.58331   0.00000  Uiso   1.00
H775   H     0.91228   0.29906   0.60336   0.00000  Uiso   1.00
O776   O     0.79744   0.19610   0.88877   0.00000  Uiso   1.00
C777   C     0.79553   0.25140   0.89106   0.00000  Uiso   1.00
H778   H     0.79041   0.26844   0.92863   0.00000  Uiso   1.00
H779   H     0.76146   0.26318   0.86541   0.00000  Uiso   1.00
H780   H     0.83559   0.26950   0.88036   0.00000  Uiso   1.00
N781   N     0.69807   0.07763   0.60252   0.00000  Uiso   1.00
O782   O     0.74744   0.10105   0.61499   0.00000  Uiso   1.00
O783   O     0.69269   0.02674   0.59975   0.00000  Uiso   1.00
N784   N     0.93503   0.20466   0.91228   0.00000  Uiso   1.00
O785   O     0.91298   0.24402   0.93408   0.00000  Uiso   1.00
O786   O     0.90222   0.16977   0.88592   0.00000  Uiso   1.00
N787   N     0.82761   0.10101   0.72899   0.00000  Uiso   1.00
O788   O     0.82274   0.06836   0.76283   0.00000  Uiso   1.00
O789   O     0.83979   0.08415   0.68574   0.00000  Uiso   1.00
N790   N     0.84305   0.23386   0.76398   0.00000  Uiso   1.00
O791   O     0.83025   0.25474   0.72327   0.00000  Uiso   1.00
O792   O     0.86616   0.26452   0.80016   0.00000  Uiso   1.00
O793   O     0.29719   0.57964   0.75309   0.00000  Uiso   1.00
O794   O     0.03614   0.42036   0.74690   0.00000  Uiso   1.00
O795   O     0.05822   0.57035   0.74502   0.00000  Uiso   1.00
O796   O     0.27512   0.42965   0.75498   0.00000  Uiso   1.00
C797   C     0.01476   0.59798   0.74851   0.00000  Uiso   1.00
C798   C     0.31844   0.40196   0.75082   0.00000  Uiso   1.00
O799   O     0.30328   0.50730   0.82247   0.00000  Uiso   1.00
O800   O     0.03005   0.49270   0.67753   0.00000  Uiso   1.00
O801   O     0.06431   0.49801   0.81439   0.00000  Uiso   1.00
O802   O     0.26902   0.50199   0.68561   0.00000  Uiso   1.00
C803   C     0.02128   0.50554   0.84135   0.00000  Uiso   1.00
C804   C     0.31170   0.49405   0.65922   0.00000  Uiso   1.00
Zn805  Zn    0.27033   0.50621   0.75539   0.00000  Uiso   1.00
Zn806  Zn    0.06300   0.49379   0.74460   0.00000  Uiso   1.00
C807   C     0.03140   0.51187   0.89509   0.00000  Uiso   1.00
C808   C     0.29859   0.48223   0.60716   0.00000  Uiso   1.00
C809   C     0.00711   0.53462   0.97812   0.00000  Uiso   1.00
C810   C     0.29674   0.42275   0.53494   0.00000  Uiso   1.00
C811   C     0.32401   0.52612   0.92818   0.00000  Uiso   1.00
C812   C     0.32068   0.43956   0.58140   0.00000  Uiso   1.00
C813   C     0.08693   0.50938   0.91396   0.00000  Uiso   1.00
C814   C     0.25349   0.50718   0.58621   0.00000  Uiso   1.00
C815   C     0.09783   0.50331   0.96335   0.00000  Uiso   1.00
C816   C     0.22300   0.48334   0.54432   0.00000  Uiso   1.00
C817   C     0.06054   0.52298   0.99595   0.00000  Uiso   1.00
C818   C     0.24804   0.44404   0.51632   0.00000  Uiso   1.00
C819   C     0.14801   0.48366   0.98081   0.00000  Uiso   1.00
C820   C     0.16857   0.49729   0.52927   0.00000  Uiso   1.00
C821   C     0.13234   0.52086   0.56152   0.00000  Uiso   1.00
C822   C     0.17503   0.44700   0.95208   0.00000  Uiso   1.00
C823   C     0.07818   0.53197   0.54519   0.00000  Uiso   1.00
C824   C     0.22351   0.42590   0.97045   0.00000  Uiso   1.00
H825   H     0.05065   0.54823   0.57094   0.00000  Uiso   1.00
H826   H     0.24243   0.39627   0.94837   0.00000  Uiso   1.00
H827   H     0.31103   0.54903   0.50304   0.00000  Uiso   1.00
H828   H     0.31474   0.39136   0.51431   0.00000  Uiso   1.00
H829   H     0.14303   0.52685   0.60022   0.00000  Uiso   1.00
H830   H     0.15733   0.43288   0.91603   0.00000  Uiso   1.00
C831   C     0.02226   0.65254   0.74719   0.00000  Uiso   1.00
C832   C     0.31064   0.34729   0.75078   0.00000  Uiso   1.00
H833   H     0.06468   0.33605   0.74356   0.00000  Uiso   1.00
H834   H     0.26812   0.66374   0.75399   0.00000  Uiso   1.00
N835   N     0.14695   0.48550   0.73739   0.00000  Uiso   1.00
N836   N     0.18638   0.51450   0.76260   0.00000  Uiso   1.00
O837   O     0.23775   0.55303   0.60930   0.00000  Uiso   1.00
C838   C     0.25712   0.59583   0.58396   0.00000  Uiso   1.00
H839   H     0.23686   0.59417   0.54631   0.00000  Uiso   1.00
H840   H     0.30377   0.59813   0.58331   0.00000  Uiso   1.00
H841   H     0.24561   0.63240   0.60336   0.00000  Uiso   1.00
O842   O     0.13077   0.52943   0.88877   0.00000  Uiso   1.00
C843   C     0.12886   0.58473   0.89106   0.00000  Uiso   1.00
H844   H     0.12375   0.60177   0.92863   0.00000  Uiso   1.00
H845   H     0.09479   0.59651   0.86541   0.00000  Uiso   1.00
H846   H     0.16893   0.60284   0.88036   0.00000  Uiso   1.00
N847   N     0.03140   0.41097   0.60252   0.00000  Uiso   1.00
O848   O     0.08077   0.43439   0.61499   0.00000  Uiso   1.00
O849   O     0.02603   0.36007   0.59975   0.00000  Uiso   1.00
N850   N     0.26837   0.53799   0.91228   0.00000  Uiso   1.00
O851   O     0.24632   0.57735   0.93408   0.00000  Uiso   1.00
O852   O     0.23555   0.50310   0.88592   0.00000  Uiso   1.00
N853   N     0.16095   0.43434   0.72899   0.00000  Uiso   1.00
O854   O     0.15608   0.40169   0.76283   0.00000  Uiso   1.00
O855   O     0.17312   0.41749   0.68574   0.00000  Uiso   1.00
N856   N     0.17639   0.56719   0.76398   0.00000  Uiso   1.00
O857   O     0.16358   0.58807   0.72327   0.00000  Uiso   1.00
O858   O     0.19950   0.59785   0.80016   0.00000  Uiso   1.00
O859   O     0.63052   0.57964   0.75309   0.00000  Uiso   1.00
O860   O     0.36948   0.42036   0.74690   0.00000  Uiso   1.00
O861   O     0.39155   0.57035   0.74502   0.00000  Uiso   1.00
O862   O     0.60845   0.42965   0.75498   0.00000  Uiso   1.00
C863   C     0.34809   0.59798   0.74851   0.00000  Uiso   1.00
C864   C     0.65177   0.40196   0.75082   0.00000  Uiso   1.00
O865   O     0.63662   0.50730   0.82247   0.00000  Uiso   1.00
O866   O     0.36338   0.49270   0.67753   0.00000  Uiso   1.00
O867   O     0.39764   0.49801   0.81439   0.00000  Uiso   1.00
O868   O     0.60236   0.50199   0.68561   0.00000  Uiso   1.00
C869   C     0.35461   0.50554   0.84135   0.00000  Uiso   1.00
C870   C     0.64503   0.49405   0.65922   0.00000  Uiso   1.00
Zn871  Zn    0.60366   0.50621   0.75539   0.00000  Uiso   1.00
Zn872  Zn    0.39634   0.49379   0.74460   0.00000  Uiso   1.00
C873   C     0.36474   0.51187   0.89509   0.00000  Uiso   1.00
C874   C     0.63192   0.48223   0.60716   0.00000  Uiso   1.00
C875   C     0.34045   0.53462   0.97812   0.00000  Uiso   1.00
C876   C     0.63007   0.42275   0.53494   0.00000  Uiso   1.00
C877   C     0.65734   0.52612   0.92818   0.00000  Uiso   1.00
C878   C     0.65402   0.43956   0.58140   0.00000  Uiso   1.00
C879   C     0.42026   0.50938   0.91396   0.00000  Uiso   1.00
C880   C     0.58683   0.50718   0.58621   0.00000  Uiso   1.00
C881   C     0.43117   0.50331   0.96335   0.00000  Uiso   1.00
C882   C     0.55633   0.48334   0.54432   0.00000  Uiso   1.00
C883   C     0.39387   0.52298   0.99595   0.00000  Uiso   1.00
C884   C     0.58137   0.44404   0.51632   0.00000  Uiso   1.00
C885   C     0.48134   0.48366   0.98081   0.00000  Uiso   1.00
C886   C     0.50190   0.49729   0.52927   0.00000  Uiso   1.00
C887   C     0.46567   0.52086   0.56152   0.00000  Uiso   1.00
C888   C     0.50837   0.44700   0.95208   0.00000  Uiso   1.00
C889   C     0.41151   0.53197   0.54519   0.00000  Uiso   1.00
C890   C     0.55684   0.42590   0.97045   0.00000  Uiso   1.00
H891   H     0.38399   0.54823   0.57094   0.00000  Uiso   1.00
H892   H     0.57576   0.39627   0.94837   0.00000  Uiso   1.00
H893   H     0.64437   0.54903   0.50304   0.00000  Uiso   1.00
H894   H     0.64808   0.39136   0.51431   0.00000  Uiso   1.00
H895   H     0.47637   0.52685   0.60022   0.00000  Uiso   1.00
H896   H     0.49066   0.43288   0.91603   0.00000  Uiso   1.00
C897   C     0.35560   0.65254   0.74719   0.00000  Uiso   1.00
C898   C     0.64397   0.34729   0.75078   0.00000  Uiso   1.00
H899   H     0.39801   0.33605   0.74356   0.00000  Uiso   1.00
H900   H     0.60145   0.66374   0.75399   0.00000  Uiso   1.00
N901   N     0.48029   0.48550   0.73739   0.00000  Uiso   1.00
N902   N     0.51971   0.51450   0.76260   0.00000  Uiso   1.00
O903   O     0.57108   0.55303   0.60930   0.00000  Uiso   1.00
C904   C     0.59045   0.59583   0.58396   0.00000  Uiso   1.00
H905   H     0.57019   0.59417   0.54631   0.00000  Uiso   1.00
H906   H     0.63711   0.59813   0.58331   0.00000  Uiso   1.00
H907   H     0.57895   0.63240   0.60336   0.00000  Uiso   1.00
O908   O     0.46411   0.52943   0.88877   0.00000  Uiso   1.00
C909   C     0.46219   0.58473   0.89106   0.00000  Uiso   1.00
H910   H     0.45708   0.60177   0.92863   0.00000  Uiso   1.00
H911   H     0.42812   0.59651   0.86541   0.00000  Uiso   1.00
H912   H     0.50226   0.60284   0.88036   0.00000  Uiso   1.00
N913   N     0.36474   0.41097   0.60252   0.00000  Uiso   1.00
O914   O     0.41411   0.43439   0.61499   0.00000  Uiso   1.00
O915   O     0.35936   0.36007   0.59975   0.00000  Uiso   1.00
N916   N     0.60170   0.53799   0.91228   0.00000  Uiso   1.00
O917   O     0.57965   0.57735   0.93408   0.00000  Uiso   1.00
O918   O     0.56888   0.50310   0.88592   0.00000  Uiso   1.00
N919   N     0.49428   0.43434   0.72899   0.00000  Uiso   1.00
O920   O     0.48941   0.40169   0.76283   0.00000  Uiso   1.00
O921   O     0.50645   0.41749   0.68574   0.00000  Uiso   1.00
N922   N     0.50972   0.56719   0.76398   0.00000  Uiso   1.00
O923   O     0.49691   0.58807   0.72327   0.00000  Uiso   1.00
O924   O     0.53283   0.59785   0.80016   0.00000  Uiso   1.00
O925   O     0.96386   0.57964   0.75309   0.00000  Uiso   1.00
O926   O     0.70281   0.42036   0.74690   0.00000  Uiso   1.00
O927   O     0.72488   0.57035   0.74502   0.00000  Uiso   1.00
O928   O     0.94178   0.42965   0.75498   0.00000  Uiso   1.00
C929   C     0.68142   0.59798   0.74851   0.00000  Uiso   1.00
C930   C     0.98510   0.40196   0.75082   0.00000  Uiso   1.00
O931   O     0.96995   0.50730   0.82247   0.00000  Uiso   1.00
O932   O     0.69672   0.49270   0.67753   0.00000  Uiso   1.00
O933   O     0.73098   0.49801   0.81439   0.00000  Uiso   1.00
O934   O     0.93569   0.50199   0.68561   0.00000  Uiso   1.00
C935   C     0.68794   0.50554   0.84135   0.00000  Uiso   1.00
C936   C     0.97836   0.49405   0.65922   0.00000  Uiso   1.00
Zn937  Zn    0.93700   0.50621   0.75539   0.00000  Uiso   1.00
Zn938  Zn    0.72967   0.49379   0.74460   0.00000  Uiso   1.00
C939   C     0.69807   0.51187   0.89509   0.00000  Uiso   1.00
C940   C     0.96525   0.48223   0.60716   0.00000  Uiso   1.00
C941   C     0.67378   0.53462   0.97812   0.00000  Uiso   1.00
C942   C     0.96340   0.42275   0.53494   0.00000  Uiso   1.00
C943   C     0.99068   0.52612   0.92818   0.00000  Uiso   1.00
C944   C     0.98735   0.43956   0.58140   0.00000  Uiso   1.00
C945   C     0.75360   0.50938   0.91396   0.00000  Uiso   1.00
C946   C     0.92016   0.50718   0.58621   0.00000  Uiso   1.00
C947   C     0.76450   0.50331   0.96335   0.00000  Uiso   1.00
C948   C     0.88967   0.48334   0.54432   0.00000  Uiso   1.00
C949   C     0.72720   0.52298   0.99595   0.00000  Uiso   1.00
C950   C     0.91471   0.44404   0.51632   0.00000  Uiso   1.00
C951   C     0.81468   0.48366   0.98081   0.00000  Uiso   1.00
C952   C     0.83523   0.49729   0.52927   0.00000  Uiso   1.00
C953   C     0.79900   0.52086   0.56152   0.00000  Uiso   1.00
C954   C     0.84170   0.44700   0.95208   0.00000  Uiso   1.00
C955   C     0.74484   0.53197   0.54519   0.00000  Uiso   1.00
C956   C     0.89018   0.42590   0.97045   0.00000  Uiso   1.00
H957   H     0.71732   0.54823   0.57094   0.00000  Uiso   1.00
H958   H     0.90909   0.39627   0.94837   0.00000  Uiso   1.00
H959   H     0.97770   0.54903   0.50304   0.00000  Uiso   1.00
H960   H     0.98141   0.39136   0.51431   0.00000  Uiso   1.00
H961   H     0.80970   0.52685   0.60022   0.00000  Uiso   1.00
H962   H     0.82400   0.43288   0.91603   0.00000  Uiso   1.00
C963   C     0.68893   0.65254   0.74719   0.00000  Uiso   1.00
C964   C     0.97731   0.34729   0.75078   0.00000  Uiso   1.00
H965   H     0.73135   0.33605   0.74356   0.00000  Uiso   1.00
H966   H     0.93479   0.66374   0.75399   0.00000  Uiso   1.00
N967   N     0.81362   0.48550   0.73739   0.00000  Uiso   1.00
N968   N     0.85305   0.51450   0.76260   0.00000  Uiso   1.00
O969   O     0.90442   0.55303   0.60930   0.00000  Uiso   1.00
C970   C     0.92379   0.59583   0.58396   0.00000  Uiso   1.00
H971   H     0.90353   0.59417   0.54631   0.00000  Uiso   1.00
H972   H     0.97044   0.59813   0.58331   0.00000  Uiso   1.00
H973   H     0.91228   0.63240   0.60336   0.00000  Uiso   1.00
O974   O     0.79744   0.52943   0.88877   0.00000  Uiso   1.00
C975   C     0.79553   0.58473   0.89106   0.00000  Uiso   1.00
H976   H     0.79041   0.60177   0.92863   0.00000  Uiso   1.00
H977   H     0.76146   0.59651   0.86541   0.00000  Uiso   1.00
H978   H     0.83559   0.60284   0.88036   0.00000  Uiso   1.00
N979   N     0.69807   0.41097   0.60252   0.00000  Uiso   1.00
O980   O     0.74744   0.43439   0.61499   0.00000  Uiso   1.00
O981   O     0.69269   0.36007   0.59975   0.00000  Uiso   1.00
N982   N     0.93503   0.53799   0.91228   0.00000  Uiso   1.00
O983   O     0.91298   0.57735   0.93408   0.00000  Uiso   1.00
O984   O     0.90222   0.50310   0.88592   0.00000  Uiso   1.00
N985   N     0.82761   0.43434   0.72899   0.00000  Uiso   1.00
O986   O     0.82274   0.40169   0.76283   0.00000  Uiso   1.00
O987   O     0.83979   0.41749   0.68574   0.00000  Uiso   1.00
N988   N     0.84305   0.56719   0.76398   0.00000  Uiso   1.00
O989   O     0.83025   0.58807   0.72327   0.00000  Uiso   1.00
O990   O     0.86616   0.59785   0.80016   0.00000  Uiso   1.00
O991   O     0.29719   0.91298   0.75309   0.00000  Uiso   1.00
O992   O     0.03614   0.75369   0.74690   0.00000  Uiso   1.00
O993   O     0.05822   0.90368   0.74502   0.00000  Uiso   1.00
O994   O     0.27512   0.76298   0.75498   0.00000  Uiso   1.00
C995   C     0.01476   0.93132   0.74851   0.00000  Uiso   1.00
C996   C     0.31844   0.73529   0.75082   0.00000  Uiso   1.00
O997   O     0.30328   0.84063   0.82247   0.00000  Uiso   1.00
O998   O     0.03005   0.82603   0.67753   0.00000  Uiso   1.00
O999   O     0.06431   0.83134   0.81439   0.00000  Uiso   1.00
O1000  O     0.26902   0.83533   0.68561   0.00000  Uiso   1.00
C1001  C     0.02128   0.83888   0.84135   0.00000  Uiso   1.00
C1002  C     0.31170   0.82739   0.65922   0.00000  Uiso   1.00
Zn1003 Zn    0.27033   0.83954   0.75539   0.00000  Uiso   1.00
Zn1004 Zn    0.06300   0.82713   0.74460   0.00000  Uiso   1.00
C1005  C     0.03140   0.84520   0.89509   0.00000  Uiso   1.00
C1006  C     0.29859   0.81556   0.60716   0.00000  Uiso   1.00
C1007  C     0.00711   0.86795   0.97812   0.00000  Uiso   1.00
C1008  C     0.29674   0.75608   0.53494   0.00000  Uiso   1.00
C1009  C     0.32401   0.85945   0.92818   0.00000  Uiso   1.00
C1010  C     0.32068   0.77289   0.58140   0.00000  Uiso   1.00
C1011  C     0.08693   0.84271   0.91396   0.00000  Uiso   1.00
C1012  C     0.25349   0.84051   0.58621   0.00000  Uiso   1.00
C1013  C     0.09783   0.83664   0.96335   0.00000  Uiso   1.00
C1014  C     0.22300   0.81667   0.54432   0.00000  Uiso   1.00
C1015  C     0.06054   0.85632   0.99595   0.00000  Uiso   1.00
C1016  C     0.24804   0.77737   0.51632   0.00000  Uiso   1.00
C1017  C     0.14801   0.81699   0.98081   0.00000  Uiso   1.00
C1018  C     0.16857   0.83062   0.52927   0.00000  Uiso   1.00
C1019  C     0.13234   0.85419   0.56152   0.00000  Uiso   1.00
C1020  C     0.17503   0.78034   0.95208   0.00000  Uiso   1.00
C1021  C     0.07818   0.86530   0.54519   0.00000  Uiso   1.00
C1022  C     0.22351   0.75924   0.97045   0.00000  Uiso   1.00
H1023  H     0.05065   0.88156   0.57094   0.00000  Uiso   1.00
H1024  H     0.24243   0.72960   0.94837   0.00000  Uiso   1.00
H1025  H     0.31103   0.88237   0.50304   0.00000  Uiso   1.00
H1026  H     0.31474   0.72469   0.51431   0.00000  Uiso   1.00
H1027  H     0.14303   0.86018   0.60022   0.00000  Uiso   1.00
H1028  H     0.15733   0.76621   0.91603   0.00000  Uiso   1.00
C1029  C     0.02226   0.98587   0.74719   0.00000  Uiso   1.00
C1030  C     0.31064   0.68062   0.75078   0.00000  Uiso   1.00
H1031  H     0.06468   0.66938   0.74356   0.00000  Uiso   1.00
H1032  H     0.26812   0.99708   0.75399   0.00000  Uiso   1.00
N1033  N     0.14695   0.81883   0.73739   0.00000  Uiso   1.00
N1034  N     0.18638   0.84784   0.76260   0.00000  Uiso   1.00
O1035  O     0.23775   0.88637   0.60930   0.00000  Uiso   1.00
C1036  C     0.25712   0.92916   0.58396   0.00000  Uiso   1.00
H1037  H     0.23686   0.92750   0.54631   0.00000  Uiso   1.00
H1038  H     0.30377   0.93146   0.58331   0.00000  Uiso   1.00
H1039  H     0.24561   0.96573   0.60336   0.00000  Uiso   1.00
O1040  O     0.13077   0.86277   0.88877   0.00000  Uiso   1.00
C1041  C     0.12886   0.91807   0.89106   0.00000  Uiso   1.00
H1042  H     0.12375   0.93510   0.92863   0.00000  Uiso   1.00
H1043  H     0.09479   0.92984   0.86541   0.00000  Uiso   1.00
H1044  H     0.16893   0.93617   0.88036   0.00000  Uiso   1.00
N1045  N     0.03140   0.74430   0.60252   0.00000  Uiso   1.00
O1046  O     0.08077   0.76772   0.61499   0.00000  Uiso   1.00
O1047  O     0.02603   0.69340   0.59975   0.00000  Uiso   1.00
N1048  N     0.26837   0.87132   0.91228   0.00000  Uiso   1.00
O1049  O     0.24632   0.91068   0.93408   0.00000  Uiso   1.00
O1050  O     0.23555   0.83643   0.88592   0.00000  Uiso   1.00
N1051  N     0.16095   0.76767   0.72899   0.00000  Uiso   1.00
O1052  O     0.15608   0.73503   0.76283   0.00000  Uiso   1.00
O1053  O     0.17312   0.75082   0.68574   0.00000  Uiso   1.00
N1054  N     0.17639   0.90053   0.76398   0.00000  Uiso   1.00
O1055  O     0.16358   0.92140   0.72327   0.00000  Uiso   1.00
O1056  O     0.19950   0.93118   0.80016   0.00000  Uiso   1.00
O1057  O     0.63052   0.91298   0.75309   0.00000  Uiso   1.00
O1058  O     0.36948   0.75369   0.74690   0.00000  Uiso   1.00
O1059  O     0.39155   0.90368   0.74502   0.00000  Uiso   1.00
O1060  O     0.60845   0.76298   0.75498   0.00000  Uiso   1.00
C1061  C     0.34809   0.93132   0.74851   0.00000  Uiso   1.00
C1062  C     0.65177   0.73529   0.75082   0.00000  Uiso   1.00
O1063  O     0.63662   0.84063   0.82247   0.00000  Uiso   1.00
O1064  O     0.36338   0.82603   0.67753   0.00000  Uiso   1.00
O1065  O     0.39764   0.83134   0.81439   0.00000  Uiso   1.00
O1066  O     0.60236   0.83533   0.68561   0.00000  Uiso   1.00
C1067  C     0.35461   0.83888   0.84135   0.00000  Uiso   1.00
C1068  C     0.64503   0.82739   0.65922   0.00000  Uiso   1.00
Zn1069 Zn    0.60366   0.83954   0.75539   0.00000  Uiso   1.00
Zn1070 Zn    0.39634   0.82713   0.74460   0.00000  Uiso   1.00
C1071  C     0.36474   0.84520   0.89509   0.00000  Uiso   1.00
C1072  C     0.63192   0.81556   0.60716   0.00000  Uiso   1.00
C1073  C     0.34045   0.86795   0.97812   0.00000  Uiso   1.00
C1074  C     0.63007   0.75608   0.53494   0.00000  Uiso   1.00
C1075  C     0.65734   0.85945   0.92818   0.00000  Uiso   1.00
C1076  C     0.65402   0.77289   0.58140   0.00000  Uiso   1.00
C1077  C     0.42026   0.84271   0.91396   0.00000  Uiso   1.00
C1078  C     0.58683   0.84051   0.58621   0.00000  Uiso   1.00
C1079  C     0.43117   0.83664   0.96335   0.00000  Uiso   1.00
C1080  C     0.55633   0.81667   0.54432   0.00000  Uiso   1.00
C1081  C     0.39387   0.85632   0.99595   0.00000  Uiso   1.00
C1082  C     0.58137   0.77737   0.51632   0.00000  Uiso   1.00
C1083  C     0.48134   0.81699   0.98081   0.00000  Uiso   1.00
C1084  C     0.50190   0.83062   0.52927   0.00000  Uiso   1.00
C1085  C     0.46567   0.85419   0.56152   0.00000  Uiso   1.00
C1086  C     0.50837   0.78034   0.95208   0.00000  Uiso   1.00
C1087  C     0.41151   0.86530   0.54519   0.00000  Uiso   1.00
C1088  C     0.55684   0.75924   0.97045   0.00000  Uiso   1.00
H1089  H     0.38399   0.88156   0.57094   0.00000  Uiso   1.00
H1090  H     0.57576   0.72960   0.94837   0.00000  Uiso   1.00
H1091  H     0.64437   0.88237   0.50304   0.00000  Uiso   1.00
H1092  H     0.64808   0.72469   0.51431   0.00000  Uiso   1.00
H1093  H     0.47637   0.86018   0.60022   0.00000  Uiso   1.00
H1094  H     0.49066   0.76621   0.91603   0.00000  Uiso   1.00
C1095  C     0.35560   0.98587   0.74719   0.00000  Uiso   1.00
C1096  C     0.64397   0.68062   0.75078   0.00000  Uiso   1.00
H1097  H     0.39801   0.66938   0.74356   0.00000  Uiso   1.00
H1098  H     0.60145   0.99708   0.75399   0.00000  Uiso   1.00
N1099  N     0.48029   0.81883   0.73739   0.00000  Uiso   1.00
N1100  N     0.51971   0.84784   0.76260   0.00000  Uiso   1.00
O1101  O     0.57108   0.88637   0.60930   0.00000  Uiso   1.00
C1102  C     0.59045   0.92916   0.58396   0.00000  Uiso   1.00
H1103  H     0.57019   0.92750   0.54631   0.00000  Uiso   1.00
H1104  H     0.63711   0.93146   0.58331   0.00000  Uiso   1.00
H1105  H     0.57895   0.96573   0.60336   0.00000  Uiso   1.00
O1106  O     0.46411   0.86277   0.88877   0.00000  Uiso   1.00
C1107  C     0.46219   0.91807   0.89106   0.00000  Uiso   1.00
H1108  H     0.45708   0.93510   0.92863   0.00000  Uiso   1.00
H1109  H     0.42812   0.92984   0.86541   0.00000  Uiso   1.00
H1110  H     0.50226   0.93617   0.88036   0.00000  Uiso   1.00
N1111  N     0.36474   0.74430   0.60252   0.00000  Uiso   1.00
O1112  O     0.41411   0.76772   0.61499   0.00000  Uiso   1.00
O1113  O     0.35936   0.69340   0.59975   0.00000  Uiso   1.00
N1114  N     0.60170   0.87132   0.91228   0.00000  Uiso   1.00
O1115  O     0.57965   0.91068   0.93408   0.00000  Uiso   1.00
O1116  O     0.56888   0.83643   0.88592   0.00000  Uiso   1.00
N1117  N     0.49428   0.76767   0.72899   0.00000  Uiso   1.00
O1118  O     0.48941   0.73503   0.76283   0.00000  Uiso   1.00
O1119  O     0.50645   0.75082   0.68574   0.00000  Uiso   1.00
N1120  N     0.50972   0.90053   0.76398   0.00000  Uiso   1.00
O1121  O     0.49691   0.92140   0.72327   0.00000  Uiso   1.00
O1122  O     0.53283   0.93118   0.80016   0.00000  Uiso   1.00
O1123  O     0.96386   0.91298   0.75309   0.00000  Uiso   1.00
O1124  O     0.70281   0.75369   0.74690   0.00000  Uiso   1.00
O1125  O     0.72488   0.90368   0.74502   0.00000  Uiso   1.00
O1126  O     0.94178   0.76298   0.75498   0.00000  Uiso   1.00
C1127  C     0.68142   0.93132   0.74851   0.00000  Uiso   1.00
C1128  C     0.98510   0.73529   0.75082   0.00000  Uiso   1.00
O1129  O     0.96995   0.84063   0.82247   0.00000  Uiso   1.00
O1130  O     0.69672   0.82603   0.67753   0.00000  Uiso   1.00
O1131  O     0.73098   0.83134   0.81439   0.00000  Uiso   1.00
O1132  O     0.93569   0.83533   0.68561   0.00000  Uiso   1.00
C1133  C     0.68794   0.83888   0.84135   0.00000  Uiso   1.00
C1134  C     0.97836   0.82739   0.65922   0.00000  Uiso   1.00
Zn1135 Zn    0.93700   0.83954   0.75539   0.00000  Uiso   1.00
Zn1136 Zn    0.72967   0.82713   0.74460   0.00000  Uiso   1.00
C1137  C     0.69807   0.84520   0.89509   0.00000  Uiso   1.00
C1138  C     0.96525   0.81556   0.60716   0.00000  Uiso   1.00
C1139  C     0.67378   0.86795   0.97812   0.00000  Uiso   1.00
C1140  C     0.96340   0.75608   0.53494   0.00000  Uiso   1.00
C1141  C     0.99068   0.85945   0.92818   0.00000  Uiso   1.00
C1142  C     0.98735   0.77289   0.58140   0.00000  Uiso   1.00
C1143  C     0.75360   0.84271   0.91396   0.00000  Uiso   1.00
C1144  C     0.92016   0.84051   0.58621   0.00000  Uiso   1.00
C1145  C     0.76450   0.83664   0.96335   0.00000  Uiso   1.00
C1146  C     0.88967   0.81667   0.54432   0.00000  Uiso   1.00
C1147  C     0.72720   0.85632   0.99595   0.00000  Uiso   1.00
C1148  C     0.91471   0.77737   0.51632   0.00000  Uiso   1.00
C1149  C     0.81468   0.81699   0.98081   0.00000  Uiso   1.00
C1150  C     0.83523   0.83062   0.52927   0.00000  Uiso   1.00
C1151  C     0.79900   0.85419   0.56152   0.00000  Uiso   1.00
C1152  C     0.84170   0.78034   0.95208   0.00000  Uiso   1.00
C1153  C     0.74484   0.86530   0.54519   0.00000  Uiso   1.00
C1154  C     0.89018   0.75924   0.97045   0.00000  Uiso   1.00
H1155  H     0.71732   0.88156   0.57094   0.00000  Uiso   1.00
H1156  H     0.90909   0.72960   0.94837   0.00000  Uiso   1.00
H1157  H     0.97770   0.88237   0.50304   0.00000  Uiso   1.00
H1158  H     0.98141   0.72469   0.51431   0.00000  Uiso   1.00
H1159  H     0.80970   0.86018   0.60022   0.00000  Uiso   1.00
H1160  H     0.82400   0.76621   0.91603   0.00000  Uiso   1.00
C1161  C     0.68893   0.98587   0.74719   0.00000  Uiso   1.00
C1162  C     0.97731   0.68062   0.75078   0.00000  Uiso   1.00
H1163  H     0.73135   0.66938   0.74356   0.00000  Uiso   1.00
H1164  H     0.93479   0.99708   0.75399   0.00000  Uiso   1.00
N1165  N     0.81362   0.81883   0.73739   0.00000  Uiso   1.00
N1166  N     0.85305   0.84784   0.76260   0.00000  Uiso   1.00
O1167  O     0.90442   0.88637   0.60930   0.00000  Uiso   1.00
C1168  C     0.92379   0.92916   0.58396   0.00000  Uiso   1.00
H1169  H     0.90353   0.92750   0.54631   0.00000  Uiso   1.00
H1170  H     0.97044   0.93146   0.58331   0.00000  Uiso   1.00
H1171  H     0.91228   0.96573   0.60336   0.00000  Uiso   1.00
O1172  O     0.79744   0.86277   0.88877   0.00000  Uiso   1.00
C1173  C     0.79553   0.91807   0.89106   0.00000  Uiso   1.00
H1174  H     0.79041   0.93510   0.92863   0.00000  Uiso   1.00
H1175  H     0.76146   0.92984   0.86541   0.00000  Uiso   1.00
H1176  H     0.83559   0.93617   0.88036   0.00000  Uiso   1.00
N1177  N     0.69807   0.74430   0.60252   0.00000  Uiso   1.00
O1178  O     0.74744   0.76772   0.61499   0.00000  Uiso   1.00
O1179  O     0.69269   0.69340   0.59975   0.00000  Uiso   1.00
N1180  N     0.93503   0.87132   0.91228   0.00000  Uiso   1.00
O1181  O     0.91298   0.91068   0.93408   0.00000  Uiso   1.00
O1182  O     0.90222   0.83643   0.88592   0.00000  Uiso   1.00
N1183  N     0.82761   0.76767   0.72899   0.00000  Uiso   1.00
O1184  O     0.82274   0.73503   0.76283   0.00000  Uiso   1.00
O1185  O     0.83979   0.75082   0.68574   0.00000  Uiso   1.00
N1186  N     0.84305   0.90053   0.76398   0.00000  Uiso   1.00
O1187  O     0.83025   0.92140   0.72327   0.00000  Uiso   1.00
O1188  O     0.86616   0.93118   0.80016   0.00000  Uiso   1.00
loop_
_geom_bond_atom_site_label_1
_geom_bond_atom_site_label_2
_geom_bond_distance
_geom_bond_site_symmetry_2
_ccdc_geom_bond_type
O1     Zn13    1.956   .     S
O1     C71     1.289   .     S
O2     Zn14    1.956   .     S
O2     C138    1.289   1_455 S
O3     Zn14    1.975   .     S
O3     C5      1.300   .     A
O4     C6      1.300   .     A
O4     Zn13    1.975   .     S
C5     C39     1.403   .     S
C5     O133    1.289   1_455 S
C6     C40     1.403   .     S
C6     O68     1.289   .     S
O7     Zn13    1.959   .     S
O7     C77     1.302   .     S
O8     Zn14    1.959   .     S
O8     C144    1.303   1_455 S
O9     Zn14    1.919   .     S
O9     C11     1.324   .     A
O10    C12     1.309   .     A
O10    Zn13    1.919   .     S
C11    C15     1.482   .     S
C11    O139    1.302   1_455 S
C12    C16     1.457   .     S
C12    O74     1.303   .     S
Zn13   N44     2.048   .     S
Zn14   N43     2.048   .     S
C15    C21     1.396   .     A
C15    C151    1.426   1_455 S
C16    C20     1.417   .     A
C16    C22     1.399   .     A
C17    C25     1.393   .     A
C17    C151    1.405   1_455 S
C17    H761    1.080   1_455 S
C18    H36     1.084   .     S
C18    C26     1.397   .     A
C18    C20     1.396   .     A
C19    N58     1.428   .     S
C19    C81     1.426   .     S
C19    C83     1.405   .     S
C20    N121    1.435   .     S
C21    O50     1.383   .     S
C21    C23     1.391   .     A
C22    O45     1.387   .     S
C22    C24     1.404   .     A
C23    C27     1.398   .     A
C23    C25     1.401   .     A
C24    C26     1.418   .     A
C24    C28     1.412   .     A
C25    C625    1.394   .     S
C26    C626    1.395   1_554 S
C27    C30     1.407   .     A
C27    C622    1.406   .     S
C28    C29     1.416   .     A
C28    C621    1.406   1_554 S
C29    C31     1.393   .     A
C29    H37     1.079   .     S
C30    C32     1.388   .     A
C30    H38     1.084   .     S
C31    H33     1.082   .     S
C31    C619    1.394   1_554 S
C32    H34     1.084   .     S
C32    C620    1.395   .     S
H35    C677    1.080   1_554 S
C39    C370    1.337   1_455 S
C39    H239    1.086   .     S
C40    C501    1.337   1_545 S
C40    H438    1.087   1_545 S
H41    C435    1.086   1_545 S
H42    C238    1.087   .     S
N43    N44     1.293   .     D
N43    N61     1.385   .     S
N44    N64     1.387   .     S
O45    C46     1.409   .     S
C46    H49     1.109   .     S
C46    H48     1.111   .     S
C46    H47     1.112   .     S
O50    C51     1.420   .     S
C51    H54     1.101   .     S
C51    H52     1.116   .     S
C51    H53     1.112   .     S
N55    O56     1.299   .     A
N55    O57     1.301   .     A
N55    C152    1.435   1_455 S
N58    O60     1.298   .     A
N58    O59     1.301   .     A
N61    O62     1.301   .     A
N61    O63     1.300   .     A
N64    O65     1.302   .     A
N64    O66     1.297   .     A
O67    Zn79    1.956   .     S
O67    C137    1.289   .     S
O68    Zn80    1.956   .     S
O69    Zn80    1.975   .     S
O69    C71     1.300   .     A
O70    C72     1.300   .     A
O70    Zn79    1.975   .     S
C71    C105    1.403   .     S
C72    C106    1.403   .     S
C72    O134    1.289   .     S
O73    Zn79    1.959   .     S
O73    C143    1.302   .     S
O74    Zn80    1.959   .     S
O75    Zn80    1.919   .     S
O75    C77     1.324   .     A
O76    C78     1.309   .     A
O76    Zn79    1.919   .     S
C77    C81     1.482   .     S
C78    C82     1.457   .     S
C78    O140    1.303   .     S
Zn79   N110    2.048   .     S
Zn80   N109    2.048   .     S
C81    C87     1.396   .     A
C82    C86     1.417   .     A
C82    C88     1.399   .     A
C83    C91     1.393   .     A
C83    H629    1.080   .     S
C84    H102    1.084   .     S
C84    C92     1.397   .     A
C84    C86     1.396   .     A
C85    N124    1.428   .     S
C85    C147    1.426   .     S
C85    C149    1.405   .     S
C86    N187    1.435   .     S
C87    O116    1.383   .     S
C87    C89     1.391   .     A
C88    O111    1.387   .     S
C88    C90     1.404   .     A
C89    C93     1.398   .     A
C89    C91     1.401   .     A
C90    C92     1.418   .     A
C90    C94     1.412   .     A
C91    C691    1.394   .     S
C92    C692    1.395   1_554 S
C93    C96     1.407   .     A
C93    C688    1.406   .     S
C94    C95     1.416   .     A
C94    C687    1.406   1_554 S
C95    C97     1.393   .     A
C95    H103    1.079   .     S
C96    C98     1.388   .     A
C96    H104    1.084   .     S
C97    H99     1.082   .     S
C97    C685    1.394   1_554 S
C98    H100    1.084   .     S
C98    C686    1.395   .     S
H101   C743    1.080   1_554 S
C105   C238    1.337   .     S
C105   H305    1.086   .     S
C106   C567    1.337   1_545 S
C106   H504    1.087   1_545 S
H107   C501    1.086   1_545 S
H108   C304    1.087   .     S
N109   N110    1.293   .     D
N109   N127    1.385   .     S
N110   N130    1.387   .     S
O111   C112    1.409   .     S
C112   H115    1.109   .     S
C112   H114    1.111   .     S
C112   H113    1.112   .     S
O116   C117    1.420   .     S
C117   H120    1.101   .     S
C117   H118    1.116   .     S
C117   H119    1.112   .     S
N121   O122    1.299   .     A
N121   O123    1.301   .     A
N124   O126    1.298   .     A
N124   O125    1.301   .     A
N127   O128    1.301   .     A
N127   O129    1.300   .     A
N130   O131    1.302   .     A
N130   O132    1.297   .     A
O133   Zn145   1.956   .     S
O133   C5      1.289   1_655 S
O134   Zn146   1.956   .     S
O135   Zn146   1.975   .     S
O135   C137    1.300   .     A
O136   C138    1.300   .     A
O136   Zn145   1.975   .     S
C137   C171    1.403   .     S
C138   C172    1.403   .     S
C138   O2      1.289   1_655 S
O139   Zn145   1.959   .     S
O139   C11     1.302   1_655 S
O140   Zn146   1.959   .     S
O141   Zn146   1.919   .     S
O141   C143    1.324   .     A
O142   C144    1.309   .     A
O142   Zn145   1.919   .     S
C143   C147    1.482   .     S
C144   C148    1.457   .     S
C144   O8      1.303   1_655 S
Zn145  N176    2.048   .     S
Zn146  N175    2.048   .     S
C147   C153    1.396   .     A
C148   C152    1.417   .     A
C148   C154    1.399   .     A
C149   C157    1.393   .     A
C149   H695    1.080   .     S
C150   H168    1.084   .     S
C150   C158    1.397   .     A
C150   C152    1.396   .     A
C151   N190    1.428   .     S
C151   C15     1.426   1_655 S
C151   C17     1.405   1_655 S
C152   N55     1.435   1_655 S
C153   O182    1.383   .     S
C153   C155    1.391   .     A
C154   O177    1.387   .     S
C154   C156    1.404   .     A
C155   C159    1.398   .     A
C155   C157    1.401   .     A
C156   C158    1.418   .     A
C156   C160    1.412   .     A
C157   C757    1.394   .     S
C158   C758    1.395   1_554 S
C159   C162    1.407   .     A
C159   C754    1.406   .     S
C160   C161    1.416   .     A
C160   C753    1.406   1_554 S
C161   C163    1.393   .     A
C161   H169    1.079   .     S
C162   C164    1.388   .     A
C162   H170    1.084   .     S
C163   H165    1.082   .     S
C163   C751    1.394   1_554 S
C164   H166    1.084   .     S
C164   C752    1.395   .     S
H167   C611    1.080   1_654 S
C171   C304    1.337   .     S
C171   H371    1.086   .     S
C172   C435    1.337   1_645 S
C172   H570    1.087   1_545 S
H173   C567    1.086   1_545 S
H174   C370    1.087   .     S
N175   N176    1.293   .     D
N175   N193    1.385   .     S
N176   N196    1.387   .     S
O177   C178    1.409   .     S
C178   H181    1.109   .     S
C178   H180    1.111   .     S
C178   H179    1.112   .     S
O182   C183    1.420   .     S
C183   H186    1.101   .     S
C183   H184    1.116   .     S
C183   H185    1.112   .     S
N187   O188    1.299   .     A
N187   O189    1.301   .     A
N190   O192    1.298   .     A
N190   O191    1.301   .     A
N193   O194    1.301   .     A
N193   O195    1.300   .     A
N196   O197    1.302   .     A
N196   O198    1.297   .     A
O199   Zn211   1.956   .     S
O199   C269    1.289   .     S
O200   Zn212   1.956   .     S
O200   C336    1.289   1_455 S
O201   Zn212   1.975   .     S
O201   C203    1.300   .     A
O202   C204    1.300   .     A
O202   Zn211   1.975   .     S
C203   C237    1.403   .     S
C203   O331    1.289   1_455 S
C204   C238    1.403   .     S
C204   O266    1.289   .     S
O205   Zn211   1.959   .     S
O205   C275    1.302   .     S
O206   Zn212   1.959   .     S
O206   C342    1.303   1_455 S
O207   Zn212   1.919   .     S
O207   C209    1.324   .     A
O208   C210    1.309   .     A
O208   Zn211   1.919   .     S
C209   C213    1.482   .     S
C209   O337    1.302   1_455 S
C210   C214    1.457   .     S
C210   O272    1.303   .     S
Zn211  N242    2.048   .     S
Zn212  N241    2.048   .     S
C213   C219    1.396   .     A
C213   C349    1.426   1_455 S
C214   C218    1.417   .     A
C214   C220    1.399   .     A
C215   C223    1.393   .     A
C215   C349    1.405   1_455 S
C215   H959    1.080   1_455 S
C216   H234    1.084   .     S
C216   C224    1.397   .     A
C216   C218    1.396   .     A
C217   N256    1.428   .     S
C217   C279    1.426   .     S
C217   C281    1.405   .     S
C218   N319    1.435   .     S
C219   O248    1.383   .     S
C219   C221    1.391   .     A
C220   O243    1.387   .     S
C220   C222    1.404   .     A
C221   C225    1.398   .     A
C221   C223    1.401   .     A
C222   C224    1.418   .     A
C222   C226    1.412   .     A
C223   C823    1.394   .     S
C224   C824    1.395   1_554 S
C225   C228    1.407   .     A
C225   C820    1.406   .     S
C226   C227    1.416   .     A
C226   C819    1.406   1_554 S
C227   C229    1.393   .     A
C227   H235    1.079   .     S
C228   C230    1.388   .     A
C228   H236    1.084   .     S
C229   H231    1.082   .     S
C229   C817    1.394   1_554 S
C230   H232    1.084   .     S
C230   C818    1.395   .     S
H233   C875    1.080   1_554 S
C237   C568    1.337   1_455 S
C237   H437    1.086   .     S
H240   C436    1.087   .     S
N241   N242    1.293   .     D
N241   N259    1.385   .     S
N242   N262    1.387   .     S
O243   C244    1.409   .     S
C244   H247    1.109   .     S
C244   H246    1.111   .     S
C244   H245    1.112   .     S
O248   C249    1.420   .     S
C249   H252    1.101   .     S
C249   H250    1.116   .     S
C249   H251    1.112   .     S
N253   O254    1.299   .     A
N253   O255    1.301   .     A
N253   C350    1.435   1_455 S
N256   O258    1.298   .     A
N256   O257    1.301   .     A
N259   O260    1.301   .     A
N259   O261    1.300   .     A
N262   O263    1.302   .     A
N262   O264    1.297   .     A
O265   Zn277   1.956   .     S
O265   C335    1.289   .     S
O266   Zn278   1.956   .     S
O267   Zn278   1.975   .     S
O267   C269    1.300   .     A
O268   C270    1.300   .     A
O268   Zn277   1.975   .     S
C269   C303    1.403   .     S
C270   C304    1.403   .     S
C270   O332    1.289   .     S
O271   Zn277   1.959   .     S
O271   C341    1.302   .     S
O272   Zn278   1.959   .     S
O273   Zn278   1.919   .     S
O273   C275    1.324   .     A
O274   C276    1.309   .     A
O274   Zn277   1.919   .     S
C275   C279    1.482   .     S
C276   C280    1.457   .     S
C276   O338    1.303   .     S
Zn277  N308    2.048   .     S
Zn278  N307    2.048   .     S
C279   C285    1.396   .     A
C280   C284    1.417   .     A
C280   C286    1.399   .     A
C281   C289    1.393   .     A
C281   H827    1.080   .     S
C282   H300    1.084   .     S
C282   C290    1.397   .     A
C282   C284    1.396   .     A
C283   N322    1.428   .     S
C283   C345    1.426   .     S
C283   C347    1.405   .     S
C284   N385    1.435   .     S
C285   O314    1.383   .     S
C285   C287    1.391   .     A
C286   O309    1.387   .     S
C286   C288    1.404   .     A
C287   C291    1.398   .     A
C287   C289    1.401   .     A
C288   C290    1.418   .     A
C288   C292    1.412   .     A
C289   C889    1.394   .     S
C290   C890    1.395   1_554 S
C291   C294    1.407   .     A
C291   C886    1.406   .     S
C292   C293    1.416   .     A
C292   C885    1.406   1_554 S
C293   C295    1.393   .     A
C293   H301    1.079   .     S
C294   C296    1.388   .     A
C294   H302    1.084   .     S
C295   H297    1.082   .     S
C295   C883    1.394   1_554 S
C296   H298    1.084   .     S
C296   C884    1.395   .     S
H299   C941    1.080   1_554 S
C303   C436    1.337   .     S
C303   H503    1.086   .     S
H306   C502    1.087   .     S
N307   N308    1.293   .     D
N307   N325    1.385   .     S
N308   N328    1.387   .     S
O309   C310    1.409   .     S
C310   H313    1.109   .     S
C310   H312    1.111   .     S
C310   H311    1.112   .     S
O314   C315    1.420   .     S
C315   H318    1.101   .     S
C315   H316    1.116   .     S
C315   H317    1.112   .     S
N319   O320    1.299   .     A
N319   O321    1.301   .     A
N322   O324    1.298   .     A
N322   O323    1.301   .     A
N325   O326    1.301   .     A
N325   O327    1.300   .     A
N328   O329    1.302   .     A
N328   O330    1.297   .     A
O331   Zn343   1.956   .     S
O331   C203    1.289   1_655 S
O332   Zn344   1.956   .     S
O333   Zn344   1.975   .     S
O333   C335    1.300   .     A
O334   C336    1.300   .     A
O334   Zn343   1.975   .     S
C335   C369    1.403   .     S
C336   C370    1.403   .     S
C336   O200    1.289   1_655 S
O337   Zn343   1.959   .     S
O337   C209    1.302   1_655 S
O338   Zn344   1.959   .     S
O339   Zn344   1.919   .     S
O339   C341    1.324   .     A
O340   C342    1.309   .     A
O340   Zn343   1.919   .     S
C341   C345    1.482   .     S
C342   C346    1.457   .     S
C342   O206    1.303   1_655 S
Zn343  N374    2.048   .     S
Zn344  N373    2.048   .     S
C345   C351    1.396   .     A
C346   C350    1.417   .     A
C346   C352    1.399   .     A
C347   C355    1.393   .     A
C347   H893    1.080   .     S
C348   H366    1.084   .     S
C348   C356    1.397   .     A
C348   C350    1.396   .     A
C349   N388    1.428   .     S
C349   C213    1.426   1_655 S
C349   C215    1.405   1_655 S
C350   N253    1.435   1_655 S
C351   O380    1.383   .     S
C351   C353    1.391   .     A
C352   O375    1.387   .     S
C352   C354    1.404   .     A
C353   C357    1.398   .     A
C353   C355    1.401   .     A
C354   C356    1.418   .     A
C354   C358    1.412   .     A
C355   C955    1.394   .     S
C356   C956    1.395   1_554 S
C357   C360    1.407   .     A
C357   C952    1.406   .     S
C358   C359    1.416   .     A
C358   C951    1.406   1_554 S
C359   C361    1.393   .     A
C359   H367    1.079   .     S
C360   C362    1.388   .     A
C360   H368    1.084   .     S
C361   H363    1.082   .     S
C361   C949    1.394   1_554 S
C362   H364    1.084   .     S
C362   C950    1.395   .     S
H365   C809    1.080   1_654 S
C369   C502    1.337   .     S
C369   H569    1.086   .     S
C370   C39     1.337   1_655 S
H372   C568    1.087   .     S
N373   N374    1.293   .     D
N373   N391    1.385   .     S
N374   N394    1.387   .     S
O375   C376    1.409   .     S
C376   H379    1.109   .     S
C376   H378    1.111   .     S
C376   H377    1.112   .     S
O380   C381    1.420   .     S
C381   H384    1.101   .     S
C381   H382    1.116   .     S
C381   H383    1.112   .     S
N385   O386    1.299   .     A
N385   O387    1.301   .     A
N388   O390    1.298   .     A
N388   O389    1.301   .     A
N391   O392    1.301   .     A
N391   O393    1.300   .     A
N394   O395    1.302   .     A
N394   O396    1.297   .     A
O397   Zn409   1.956   .     S
O397   C467    1.289   .     S
O398   Zn410   1.956   .     S
O398   C534    1.289   1_455 S
O399   Zn410   1.975   .     S
O399   C401    1.300   .     A
O400   C402    1.300   .     A
O400   Zn409   1.975   .     S
C401   C435    1.403   .     S
C401   O529    1.289   1_455 S
C402   C436    1.403   .     S
C402   O464    1.289   .     S
O403   Zn409   1.959   .     S
O403   C473    1.302   .     S
O404   Zn410   1.959   .     S
O404   C540    1.303   1_455 S
O405   Zn410   1.919   .     S
O405   C407    1.324   .     A
O406   C408    1.309   .     A
O406   Zn409   1.919   .     S
C407   C411    1.482   .     S
C407   O535    1.302   1_455 S
C408   C412    1.457   .     S
C408   O470    1.303   .     S
Zn409  N440    2.048   .     S
Zn410  N439    2.048   .     S
C411   C417    1.396   .     A
C411   C547    1.426   1_455 S
C412   C416    1.417   .     A
C412   C418    1.399   .     A
C413   C421    1.393   .     A
C413   C547    1.405   1_455 S
C413   H1157   1.080   1_455 S
C414   H432    1.084   .     S
C414   C422    1.397   .     A
C414   C416    1.396   .     A
C415   N454    1.428   .     S
C415   C477    1.426   .     S
C415   C479    1.405   .     S
C416   N517    1.435   .     S
C417   O446    1.383   .     S
C417   C419    1.391   .     A
C418   O441    1.387   .     S
C418   C420    1.404   .     A
C419   C423    1.398   .     A
C419   C421    1.401   .     A
C420   C422    1.418   .     A
C420   C424    1.412   .     A
C421   C1021   1.394   .     S
C422   C1022   1.395   1_554 S
C423   C426    1.407   .     A
C423   C1018   1.406   .     S
C424   C425    1.416   .     A
C424   C1017   1.406   1_554 S
C425   C427    1.393   .     A
C425   H433    1.079   .     S
C426   C428    1.388   .     A
C426   H434    1.084   .     S
C427   H429    1.082   .     S
C427   C1015   1.394   1_554 S
C428   H430    1.084   .     S
C428   C1016   1.395   .     S
H431   C1073   1.080   1_554 S
C435   C172    1.337   1_465 S
C435   H41     1.086   1_565 S
H438   C40     1.087   1_565 S
N439   N440    1.293   .     D
N439   N457    1.385   .     S
N440   N460    1.387   .     S
O441   C442    1.409   .     S
C442   H445    1.109   .     S
C442   H444    1.111   .     S
C442   H443    1.112   .     S
O446   C447    1.420   .     S
C447   H450    1.101   .     S
C447   H448    1.116   .     S
C447   H449    1.112   .     S
N451   O452    1.299   .     A
N451   O453    1.301   .     A
N451   C548    1.435   1_455 S
N454   O456    1.298   .     A
N454   O455    1.301   .     A
N457   O458    1.301   .     A
N457   O459    1.300   .     A
N460   O461    1.302   .     A
N460   O462    1.297   .     A
O463   Zn475   1.956   .     S
O463   C533    1.289   .     S
O464   Zn476   1.956   .     S
O465   Zn476   1.975   .     S
O465   C467    1.300   .     A
O466   C468    1.300   .     A
O466   Zn475   1.975   .     S
C467   C501    1.403   .     S
C468   C502    1.403   .     S
C468   O530    1.289   .     S
O469   Zn475   1.959   .     S
O469   C539    1.302   .     S
O470   Zn476   1.959   .     S
O471   Zn476   1.919   .     S
O471   C473    1.324   .     A
O472   C474    1.309   .     A
O472   Zn475   1.919   .     S
C473   C477    1.482   .     S
C474   C478    1.457   .     S
C474   O536    1.303   .     S
Zn475  N506    2.048   .     S
Zn476  N505    2.048   .     S
C477   C483    1.396   .     A
C478   C482    1.417   .     A
C478   C484    1.399   .     A
C479   C487    1.393   .     A
C479   H1025   1.080   .     S
C480   H498    1.084   .     S
C480   C488    1.397   .     A
C480   C482    1.396   .     A
C481   N520    1.428   .     S
C481   C543    1.426   .     S
C481   C545    1.405   .     S
C482   N583    1.435   .     S
C483   O512    1.383   .     S
C483   C485    1.391   .     A
C484   O507    1.387   .     S
C484   C486    1.404   .     A
C485   C489    1.398   .     A
C485   C487    1.401   .     A
C486   C488    1.418   .     A
C486   C490    1.412   .     A
C487   C1087   1.394   .     S
C488   C1088   1.395   1_554 S
C489   C492    1.407   .     A
C489   C1084   1.406   .     S
C490   C491    1.416   .     A
C490   C1083   1.406   1_554 S
C491   C493    1.393   .     A
C491   H499    1.079   .     S
C492   C494    1.388   .     A
C492   H500    1.084   .     S
C493   H495    1.082   .     S
C493   C1081   1.394   1_554 S
C494   H496    1.084   .     S
C494   C1082   1.395   .     S
H497   C1139   1.080   1_554 S
C501   C40     1.337   1_565 S
C501   H107    1.086   1_565 S
H504   C106    1.087   1_565 S
N505   N506    1.293   .     D
N505   N523    1.385   .     S
N506   N526    1.387   .     S
O507   C508    1.409   .     S
C508   H511    1.109   .     S
C508   H510    1.111   .     S
C508   H509    1.112   .     S
O512   C513    1.420   .     S
C513   H516    1.101   .     S
C513   H514    1.116   .     S
C513   H515    1.112   .     S
N517   O518    1.299   .     A
N517   O519    1.301   .     A
N520   O522    1.298   .     A
N520   O521    1.301   .     A
N523   O524    1.301   .     A
N523   O525    1.300   .     A
N526   O527    1.302   .     A
N526   O528    1.297   .     A
O529   Zn541   1.956   .     S
O529   C401    1.289   1_655 S
O530   Zn542   1.956   .     S
O531   Zn542   1.975   .     S
O531   C533    1.300   .     A
O532   C534    1.300   .     A
O532   Zn541   1.975   .     S
C533   C567    1.403   .     S
C534   C568    1.403   .     S
C534   O398    1.289   1_655 S
O535   Zn541   1.959   .     S
O535   C407    1.302   1_655 S
O536   Zn542   1.959   .     S
O537   Zn542   1.919   .     S
O537   C539    1.324   .     A
O538   C540    1.309   .     A
O538   Zn541   1.919   .     S
C539   C543    1.482   .     S
C540   C544    1.457   .     S
C540   O404    1.303   1_655 S
Zn541  N572    2.048   .     S
Zn542  N571    2.048   .     S
C543   C549    1.396   .     A
C544   C548    1.417   .     A
C544   C550    1.399   .     A
C545   C553    1.393   .     A
C545   H1091   1.080   .     S
C546   H564    1.084   .     S
C546   C554    1.397   .     A
C546   C548    1.396   .     A
C547   N586    1.428   .     S
C547   C411    1.426   1_655 S
C547   C413    1.405   1_655 S
C548   N451    1.435   1_655 S
C549   O578    1.383   .     S
C549   C551    1.391   .     A
C550   O573    1.387   .     S
C550   C552    1.404   .     A
C551   C555    1.398   .     A
C551   C553    1.401   .     A
C552   C554    1.418   .     A
C552   C556    1.412   .     A
C553   C1153   1.394   .     S
C554   C1154   1.395   1_554 S
C555   C558    1.407   .     A
C555   C1150   1.406   .     S
C556   C557    1.416   .     A
C556   C1149   1.406   1_554 S
C557   C559    1.393   .     A
C557   H565    1.079   .     S
C558   C560    1.388   .     A
C558   H566    1.084   .     S
C559   H561    1.082   .     S
C559   C1147   1.394   1_554 S
C560   H562    1.084   .     S
C560   C1148   1.395   .     S
H563   C1007   1.080   1_654 S
C567   C106    1.337   1_565 S
C567   H173    1.086   1_565 S
C568   C237    1.337   1_655 S
H570   C172    1.087   1_565 S
N571   N572    1.293   .     D
N571   N589    1.385   .     S
N572   N592    1.387   .     S
O573   C574    1.409   .     S
C574   H577    1.109   .     S
C574   H576    1.111   .     S
C574   H575    1.112   .     S
O578   C579    1.420   .     S
C579   H582    1.101   .     S
C579   H580    1.116   .     S
C579   H581    1.112   .     S
N583   O584    1.299   .     A
N583   O585    1.301   .     A
N586   O588    1.298   .     A
N586   O587    1.301   .     A
N589   O590    1.301   .     A
N589   O591    1.300   .     A
N592   O593    1.302   .     A
N592   O594    1.297   .     A
O595   Zn607   1.956   .     S
O595   C665    1.289   .     S
O596   Zn608   1.956   .     S
O596   C732    1.289   1_455 S
O597   Zn608   1.975   .     S
O597   C599    1.300   .     A
O598   C600    1.300   .     A
O598   Zn607   1.975   .     S
C599   C633    1.403   .     S
C599   O727    1.289   1_455 S
C600   C634    1.403   .     S
C600   O662    1.289   .     S
O601   Zn607   1.959   .     S
O601   C671    1.302   .     S
O602   Zn608   1.959   .     S
O602   C738    1.303   1_455 S
O603   Zn608   1.919   .     S
O603   C605    1.324   .     A
O604   C606    1.309   .     A
O604   Zn607   1.919   .     S
C605   C609    1.482   .     S
C605   O733    1.302   1_455 S
C606   C610    1.457   .     S
C606   O668    1.303   .     S
Zn607  N638    2.048   .     S
Zn608  N637    2.048   .     S
C609   C615    1.396   .     A
C609   C745    1.426   1_455 S
C610   C614    1.417   .     A
C610   C616    1.399   .     A
C611   C619    1.393   .     A
C611   C745    1.405   1_455 S
C611   H167    1.080   1_456 S
C612   H630    1.084   .     S
C612   C620    1.397   .     A
C612   C614    1.396   .     A
C613   N652    1.428   .     S
C613   C675    1.426   .     S
C613   C677    1.405   .     S
C614   N715    1.435   .     S
C615   O644    1.383   .     S
C615   C617    1.391   .     A
C616   O639    1.387   .     S
C616   C618    1.404   .     A
C617   C621    1.398   .     A
C617   C619    1.401   .     A
C618   C620    1.418   .     A
C618   C622    1.412   .     A
C619   C31     1.394   1_556 S
C621   C624    1.407   .     A
C621   C28     1.406   1_556 S
C622   C623    1.416   .     A
C623   C625    1.393   .     A
C623   H631    1.079   .     S
C624   C626    1.388   .     A
C624   H632    1.084   .     S
C625   H627    1.082   .     S
C626   H628    1.084   .     S
C626   C26     1.395   1_556 S
C633   C964    1.337   1_455 S
C633   H833    1.086   .     S
C634   C1095   1.337   1_545 S
C634   H1032   1.087   1_545 S
H635   C1029   1.086   1_545 S
H636   C832    1.087   .     S
N637   N638    1.293   .     D
N637   N655    1.385   .     S
N638   N658    1.387   .     S
O639   C640    1.409   .     S
C640   H643    1.109   .     S
C640   H642    1.111   .     S
C640   H641    1.112   .     S
O644   C645    1.420   .     S
C645   H648    1.101   .     S
C645   H646    1.116   .     S
C645   H647    1.112   .     S
N649   O650    1.299   .     A
N649   O651    1.301   .     A
N649   C746    1.435   1_455 S
N652   O654    1.298   .     A
N652   O653    1.301   .     A
N655   O656    1.301   .     A
N655   O657    1.300   .     A
N658   O659    1.302   .     A
N658   O660    1.297   .     A
O661   Zn673   1.956   .     S
O661   C731    1.289   .     S
O662   Zn674   1.956   .     S
O663   Zn674   1.975   .     S
O663   C665    1.300   .     A
O664   C666    1.300   .     A
O664   Zn673   1.975   .     S
C665   C699    1.403   .     S
C666   C700    1.403   .     S
C666   O728    1.289   .     S
O667   Zn673   1.959   .     S
O667   C737    1.302   .     S
O668   Zn674   1.959   .     S
O669   Zn674   1.919   .     S
O669   C671    1.324   .     A
O670   C672    1.309   .     A
O670   Zn673   1.919   .     S
C671   C675    1.482   .     S
C672   C676    1.457   .     S
C672   O734    1.303   .     S
Zn673  N704    2.048   .     S
Zn674  N703    2.048   .     S
C675   C681    1.396   .     A
C676   C680    1.417   .     A
C676   C682    1.399   .     A
C677   C685    1.393   .     A
C677   H35     1.080   1_556 S
C678   H696    1.084   .     S
C678   C686    1.397   .     A
C678   C680    1.396   .     A
C679   N718    1.428   .     S
C679   C741    1.426   .     S
C679   C743    1.405   .     S
C680   N781    1.435   .     S
C681   O710    1.383   .     S
C681   C683    1.391   .     A
C682   O705    1.387   .     S
C682   C684    1.404   .     A
C683   C687    1.398   .     A
C683   C685    1.401   .     A
C684   C686    1.418   .     A
C684   C688    1.412   .     A
C685   C97     1.394   1_556 S
C687   C690    1.407   .     A
C687   C94     1.406   1_556 S
C688   C689    1.416   .     A
C689   C691    1.393   .     A
C689   H697    1.079   .     S
C690   C692    1.388   .     A
C690   H698    1.084   .     S
C691   H693    1.082   .     S
C692   H694    1.084   .     S
C692   C92     1.395   1_556 S
C699   C832    1.337   .     S
C699   H899    1.086   .     S
C700   C1161   1.337   1_545 S
C700   H1098   1.087   1_545 S
H701   C1095   1.086   1_545 S
H702   C898    1.087   .     S
N703   N704    1.293   .     D
N703   N721    1.385   .     S
N704   N724    1.387   .     S
O705   C706    1.409   .     S
C706   H709    1.109   .     S
C706   H708    1.111   .     S
C706   H707    1.112   .     S
O710   C711    1.420   .     S
C711   H714    1.101   .     S
C711   H712    1.116   .     S
C711   H713    1.112   .     S
N715   O716    1.299   .     A
N715   O717    1.301   .     A
N718   O720    1.298   .     A
N718   O719    1.301   .     A
N721   O722    1.301   .     A
N721   O723    1.300   .     A
N724   O725    1.302   .     A
N724   O726    1.297   .     A
O727   Zn739   1.956   .     S
O727   C599    1.289   1_655 S
O728   Zn740   1.956   .     S
O729   Zn740   1.975   .     S
O729   C731    1.300   .     A
O730   C732    1.300   .     A
O730   Zn739   1.975   .     S
C731   C765    1.403   .     S
C732   C766    1.403   .     S
C732   O596    1.289   1_655 S
O733   Zn739   1.959   .     S
O733   C605    1.302   1_655 S
O734   Zn740   1.959   .     S
O735   Zn740   1.919   .     S
O735   C737    1.324   .     A
O736   C738    1.309   .     A
O736   Zn739   1.919   .     S
C737   C741    1.482   .     S
C738   C742    1.457   .     S
C738   O602    1.303   1_655 S
Zn739  N770    2.048   .     S
Zn740  N769    2.048   .     S
C741   C747    1.396   .     A
C742   C746    1.417   .     A
C742   C748    1.399   .     A
C743   C751    1.393   .     A
C743   H101    1.080   1_556 S
C744   H762    1.084   .     S
C744   C752    1.397   .     A
C744   C746    1.396   .     A
C745   N784    1.428   .     S
C745   C609    1.426   1_655 S
C745   C611    1.405   1_655 S
C746   N649    1.435   1_655 S
C747   O776    1.383   .     S
C747   C749    1.391   .     A
C748   O771    1.387   .     S
C748   C750    1.404   .     A
C749   C753    1.398   .     A
C749   C751    1.401   .     A
C750   C752    1.418   .     A
C750   C754    1.412   .     A
C751   C163    1.394   1_556 S
C753   C756    1.407   .     A
C753   C160    1.406   1_556 S
C754   C755    1.416   .     A
C755   C757    1.393   .     A
C755   H763    1.079   .     S
C756   C758    1.388   .     A
C756   H764    1.084   .     S
C757   H759    1.082   .     S
C758   H760    1.084   .     S
C758   C158    1.395   1_556 S
H761   C17     1.080   1_655 S
C765   C898    1.337   .     S
C765   H965    1.086   .     S
C766   C1029   1.337   1_645 S
C766   H1164   1.087   1_545 S
H767   C1161   1.086   1_545 S
H768   C964    1.087   .     S
N769   N770    1.293   .     D
N769   N787    1.385   .     S
N770   N790    1.387   .     S
O771   C772    1.409   .     S
C772   H775    1.109   .     S
C772   H774    1.111   .     S
C772   H773    1.112   .     S
O776   C777    1.420   .     S
C777   H780    1.101   .     S
C777   H778    1.116   .     S
C777   H779    1.112   .     S
N781   O782    1.299   .     A
N781   O783    1.301   .     A
N784   O786    1.298   .     A
N784   O785    1.301   .     A
N787   O788    1.301   .     A
N787   O789    1.300   .     A
N790   O791    1.302   .     A
N790   O792    1.297   .     A
O793   Zn805   1.956   .     S
O793   C863    1.289   .     S
O794   Zn806   1.956   .     S
O794   C930    1.289   1_455 S
O795   Zn806   1.975   .     S
O795   C797    1.300   .     A
O796   C798    1.300   .     A
O796   Zn805   1.975   .     S
C797   C831    1.403   .     S
C797   O925    1.289   1_455 S
C798   C832    1.403   .     S
C798   O860    1.289   .     S
O799   Zn805   1.959   .     S
O799   C869    1.302   .     S
O800   Zn806   1.959   .     S
O800   C936    1.303   1_455 S
O801   Zn806   1.919   .     S
O801   C803    1.324   .     A
O802   C804    1.309   .     A
O802   Zn805   1.919   .     S
C803   C807    1.482   .     S
C803   O931    1.302   1_455 S
C804   C808    1.457   .     S
C804   O866    1.303   .     S
Zn805  N836    2.048   .     S
Zn806  N835    2.048   .     S
C807   C813    1.396   .     A
C807   C943    1.426   1_455 S
C808   C812    1.417   .     A
C808   C814    1.399   .     A
C809   C817    1.393   .     A
C809   C943    1.405   1_455 S
C809   H365    1.080   1_456 S
C810   H828    1.084   .     S
C810   C818    1.397   .     A
C810   C812    1.396   .     A
C811   N850    1.428   .     S
C811   C873    1.426   .     S
C811   C875    1.405   .     S
C812   N913    1.435   .     S
C813   O842    1.383   .     S
C813   C815    1.391   .     A
C814   O837    1.387   .     S
C814   C816    1.404   .     A
C815   C819    1.398   .     A
C815   C817    1.401   .     A
C816   C818    1.418   .     A
C816   C820    1.412   .     A
C817   C229    1.394   1_556 S
C819   C822    1.407   .     A
C819   C226    1.406   1_556 S
C820   C821    1.416   .     A
C821   C823    1.393   .     A
C821   H829    1.079   .     S
C822   C824    1.388   .     A
C822   H830    1.084   .     S
C823   H825    1.082   .     S
C824   H826    1.084   .     S
C824   C224    1.395   1_556 S
C831   C1162   1.337   1_455 S
C831   H1031   1.086   .     S
H834   C1030   1.087   .     S
N835   N836    1.293   .     D
N835   N853    1.385   .     S
N836   N856    1.387   .     S
O837   C838    1.409   .     S
C838   H841    1.109   .     S
C838   H840    1.111   .     S
C838   H839    1.112   .     S
O842   C843    1.420   .     S
C843   H846    1.101   .     S
C843   H844    1.116   .     S
C843   H845    1.112   .     S
N847   O848    1.299   .     A
N847   O849    1.301   .     A
N847   C944    1.435   1_455 S
N850   O852    1.298   .     A
N850   O851    1.301   .     A
N853   O854    1.301   .     A
N853   O855    1.300   .     A
N856   O857    1.302   .     A
N856   O858    1.297   .     A
O859   Zn871   1.956   .     S
O859   C929    1.289   .     S
O860   Zn872   1.956   .     S
O861   Zn872   1.975   .     S
O861   C863    1.300   .     A
O862   C864    1.300   .     A
O862   Zn871   1.975   .     S
C863   C897    1.403   .     S
C864   C898    1.403   .     S
C864   O926    1.289   .     S
O865   Zn871   1.959   .     S
O865   C935    1.302   .     S
O866   Zn872   1.959   .     S
O867   Zn872   1.919   .     S
O867   C869    1.324   .     A
O868   C870    1.309   .     A
O868   Zn871   1.919   .     S
C869   C873    1.482   .     S
C870   C874    1.457   .     S
C870   O932    1.303   .     S
Zn871  N902    2.048   .     S
Zn872  N901    2.048   .     S
C873   C879    1.396   .     A
C874   C878    1.417   .     A
C874   C880    1.399   .     A
C875   C883    1.393   .     A
C875   H233    1.080   1_556 S
C876   H894    1.084   .     S
C876   C884    1.397   .     A
C876   C878    1.396   .     A
C877   N916    1.428   .     S
C877   C939    1.426   .     S
C877   C941    1.405   .     S
C878   N979    1.435   .     S
C879   O908    1.383   .     S
C879   C881    1.391   .     A
C880   O903    1.387   .     S
C880   C882    1.404   .     A
C881   C885    1.398   .     A
C881   C883    1.401   .     A
C882   C884    1.418   .     A
C882   C886    1.412   .     A
C883   C295    1.394   1_556 S
C885   C888    1.407   .     A
C885   C292    1.406   1_556 S
C886   C887    1.416   .     A
C887   C889    1.393   .     A
C887   H895    1.079   .     S
C888   C890    1.388   .     A
C888   H896    1.084   .     S
C889   H891    1.082   .     S
C890   H892    1.084   .     S
C890   C290    1.395   1_556 S
C897   C1030   1.337   .     S
C897   H1097   1.086   .     S
H900   C1096   1.087   .     S
N901   N902    1.293   .     D
N901   N919    1.385   .     S
N902   N922    1.387   .     S
O903   C904    1.409   .     S
C904   H907    1.109   .     S
C904   H906    1.111   .     S
C904   H905    1.112   .     S
O908   C909    1.420   .     S
C909   H912    1.101   .     S
C909   H910    1.116   .     S
C909   H911    1.112   .     S
N913   O914    1.299   .     A
N913   O915    1.301   .     A
N916   O918    1.298   .     A
N916   O917    1.301   .     A
N919   O920    1.301   .     A
N919   O921    1.300   .     A
N922   O923    1.302   .     A
N922   O924    1.297   .     A
O925   Zn937   1.956   .     S
O925   C797    1.289   1_655 S
O926   Zn938   1.956   .     S
O927   Zn938   1.975   .     S
O927   C929    1.300   .     A
O928   C930    1.300   .     A
O928   Zn937   1.975   .     S
C929   C963    1.403   .     S
C930   C964    1.403   .     S
C930   O794    1.289   1_655 S
O931   Zn937   1.959   .     S
O931   C803    1.302   1_655 S
O932   Zn938   1.959   .     S
O933   Zn938   1.919   .     S
O933   C935    1.324   .     A
O934   C936    1.309   .     A
O934   Zn937   1.919   .     S
C935   C939    1.482   .     S
C936   C940    1.457   .     S
C936   O800    1.303   1_655 S
Zn937  N968    2.048   .     S
Zn938  N967    2.048   .     S
C939   C945    1.396   .     A
C940   C944    1.417   .     A
C940   C946    1.399   .     A
C941   C949    1.393   .     A
C941   H299    1.080   1_556 S
C942   H960    1.084   .     S
C942   C950    1.397   .     A
C942   C944    1.396   .     A
C943   N982    1.428   .     S
C943   C807    1.426   1_655 S
C943   C809    1.405   1_655 S
C944   N847    1.435   1_655 S
C945   O974    1.383   .     S
C945   C947    1.391   .     A
C946   O969    1.387   .     S
C946   C948    1.404   .     A
C947   C951    1.398   .     A
C947   C949    1.401   .     A
C948   C950    1.418   .     A
C948   C952    1.412   .     A
C949   C361    1.394   1_556 S
C951   C954    1.407   .     A
C951   C358    1.406   1_556 S
C952   C953    1.416   .     A
C953   C955    1.393   .     A
C953   H961    1.079   .     S
C954   C956    1.388   .     A
C954   H962    1.084   .     S
C955   H957    1.082   .     S
C956   H958    1.084   .     S
C956   C356    1.395   1_556 S
H959   C215    1.080   1_655 S
C963   C1096   1.337   .     S
C963   H1163   1.086   .     S
C964   C633    1.337   1_655 S
H966   C1162   1.087   .     S
N967   N968    1.293   .     D
N967   N985    1.385   .     S
N968   N988    1.387   .     S
O969   C970    1.409   .     S
C970   H973    1.109   .     S
C970   H972    1.111   .     S
C970   H971    1.112   .     S
O974   C975    1.420   .     S
C975   H978    1.101   .     S
C975   H976    1.116   .     S
C975   H977    1.112   .     S
N979   O980    1.299   .     A
N979   O981    1.301   .     A
N982   O984    1.298   .     A
N982   O983    1.301   .     A
N985   O986    1.301   .     A
N985   O987    1.300   .     A
N988   O989    1.302   .     A
N988   O990    1.297   .     A
O991   Zn1003  1.956   .     S
O991   C1061   1.289   .     S
O992   Zn1004  1.956   .     S
O992   C1128   1.289   1_455 S
O993   Zn1004  1.975   .     S
O993   C995    1.300   .     A
O994   C996    1.300   .     A
O994   Zn1003  1.975   .     S
C995   C1029   1.403   .     S
C995   O1123   1.289   1_455 S
C996   C1030   1.403   .     S
C996   O1058   1.289   .     S
O997   Zn1003  1.959   .     S
O997   C1067   1.302   .     S
O998   Zn1004  1.959   .     S
O998   C1134   1.303   1_455 S
O999   Zn1004  1.919   .     S
O999   C1001   1.324   .     A
O1000  C1002   1.309   .     A
O1000  Zn1003  1.919   .     S
C1001  C1005   1.482   .     S
C1001  O1129   1.302   1_455 S
C1002  C1006   1.457   .     S
C1002  O1064   1.303   .     S
Zn1003 N1034   2.048   .     S
Zn1004 N1033   2.048   .     S
C1005  C1011   1.396   .     A
C1005  C1141   1.426   1_455 S
C1006  C1010   1.417   .     A
C1006  C1012   1.399   .     A
C1007  C1015   1.393   .     A
C1007  C1141   1.405   1_455 S
C1007  H563    1.080   1_456 S
C1008  H1026   1.084   .     S
C1008  C1016   1.397   .     A
C1008  C1010   1.396   .     A
C1009  N1048   1.428   .     S
C1009  C1071   1.426   .     S
C1009  C1073   1.405   .     S
C1010  N1111   1.435   .     S
C1011  O1040   1.383   .     S
C1011  C1013   1.391   .     A
C1012  O1035   1.387   .     S
C1012  C1014   1.404   .     A
C1013  C1017   1.398   .     A
C1013  C1015   1.401   .     A
C1014  C1016   1.418   .     A
C1014  C1018   1.412   .     A
C1015  C427    1.394   1_556 S
C1017  C1020   1.407   .     A
C1017  C424    1.406   1_556 S
C1018  C1019   1.416   .     A
C1019  C1021   1.393   .     A
C1019  H1027   1.079   .     S
C1020  C1022   1.388   .     A
C1020  H1028   1.084   .     S
C1021  H1023   1.082   .     S
C1022  H1024   1.084   .     S
C1022  C422    1.395   1_556 S
C1029  C766    1.337   1_465 S
C1029  H635    1.086   1_565 S
H1032  C634    1.087   1_565 S
N1033  N1034   1.293   .     D
N1033  N1051   1.385   .     S
N1034  N1054   1.387   .     S
O1035  C1036   1.409   .     S
C1036  H1039   1.109   .     S
C1036  H1038   1.111   .     S
C1036  H1037   1.112   .     S
O1040  C1041   1.420   .     S
C1041  H1044   1.101   .     S
C1041  H1042   1.116   .     S
C1041  H1043   1.112   .     S
N1045  O1046   1.299   .     A
N1045  O1047   1.301   .     A
N1045  C1142   1.435   1_455 S
N1048  O1050   1.298   .     A
N1048  O1049   1.301   .     A
N1051  O1052   1.301   .     A
N1051  O1053   1.300   .     A
N1054  O1055   1.302   .     A
N1054  O1056   1.297   .     A
O1057  Zn1069  1.956   .     S
O1057  C1127   1.289   .     S
O1058  Zn1070  1.956   .     S
O1059  Zn1070  1.975   .     S
O1059  C1061   1.300   .     A
O1060  C1062   1.300   .     A
O1060  Zn1069  1.975   .     S
C1061  C1095   1.403   .     S
C1062  C1096   1.403   .     S
C1062  O1124   1.289   .     S
O1063  Zn1069  1.959   .     S
O1063  C1133   1.302   .     S
O1064  Zn1070  1.959   .     S
O1065  Zn1070  1.919   .     S
O1065  C1067   1.324   .     A
O1066  C1068   1.309   .     A
O1066  Zn1069  1.919   .     S
C1067  C1071   1.482   .     S
C1068  C1072   1.457   .     S
C1068  O1130   1.303   .     S
Zn1069 N1100   2.048   .     S
Zn1070 N1099   2.048   .     S
C1071  C1077   1.396   .     A
C1072  C1076   1.417   .     A
C1072  C1078   1.399   .     A
C1073  C1081   1.393   .     A
C1073  H431    1.080   1_556 S
C1074  H1092   1.084   .     S
C1074  C1082   1.397   .     A
C1074  C1076   1.396   .     A
C1075  N1114   1.428   .     S
C1075  C1137   1.426   .     S
C1075  C1139   1.405   .     S
C1076  N1177   1.435   .     S
C1077  O1106   1.383   .     S
C1077  C1079   1.391   .     A
C1078  O1101   1.387   .     S
C1078  C1080   1.404   .     A
C1079  C1083   1.398   .     A
C1079  C1081   1.401   .     A
C1080  C1082   1.418   .     A
C1080  C1084   1.412   .     A
C1081  C493    1.394   1_556 S
C1083  C1086   1.407   .     A
C1083  C490    1.406   1_556 S
C1084  C1085   1.416   .     A
C1085  C1087   1.393   .     A
C1085  H1093   1.079   .     S
C1086  C1088   1.388   .     A
C1086  H1094   1.084   .     S
C1087  H1089   1.082   .     S
C1088  H1090   1.084   .     S
C1088  C488    1.395   1_556 S
C1095  C634    1.337   1_565 S
C1095  H701    1.086   1_565 S
H1098  C700    1.087   1_565 S
N1099  N1100   1.293   .     D
N1099  N1117   1.385   .     S
N1100  N1120   1.387   .     S
O1101  C1102   1.409   .     S
C1102  H1105   1.109   .     S
C1102  H1104   1.111   .     S
C1102  H1103   1.112   .     S
O1106  C1107   1.420   .     S
C1107  H1110   1.101   .     S
C1107  H1108   1.116   .     S
C1107  H1109   1.112   .     S
N1111  O1112   1.299   .     A
N1111  O1113   1.301   .     A
N1114  O1116   1.298   .     A
N1114  O1115   1.301   .     A
N1117  O1118   1.301   .     A
N1117  O1119   1.300   .     A
N1120  O1121   1.302   .     A
N1120  O1122   1.297   .     A
O1123  Zn1135  1.956   .     S
O1123  C995    1.289   1_655 S
O1124  Zn1136  1.956   .     S
O1125  Zn1136  1.975   .     S
O1125  C1127   1.300   .     A
O1126  C1128   1.300   .     A
O1126  Zn1135  1.975   .     S
C1127  C1161   1.403   .     S
C1128  C1162   1.403   .     S
C1128  O992    1.289   1_655 S
O1129  Zn1135  1.959   .     S
O1129  C1001   1.302   1_655 S
O1130  Zn1136  1.959   .     S
O1131  Zn1136  1.919   .     S
O1131  C1133   1.324   .     A
O1132  C1134   1.309   .     A
O1132  Zn1135  1.919   .     S
C1133  C1137   1.482   .     S
C1134  C1138   1.457   .     S
C1134  O998    1.303   1_655 S
Zn1135 N1166   2.048   .     S
Zn1136 N1165   2.048   .     S
C1137  C1143   1.396   .     A
C1138  C1142   1.417   .     A
C1138  C1144   1.399   .     A
C1139  C1147   1.393   .     A
C1139  H497    1.080   1_556 S
C1140  H1158   1.084   .     S
C1140  C1148   1.397   .     A
C1140  C1142   1.396   .     A
C1141  N1180   1.428   .     S
C1141  C1005   1.426   1_655 S
C1141  C1007   1.405   1_655 S
C1142  N1045   1.435   1_655 S
C1143  O1172   1.383   .     S
C1143  C1145   1.391   .     A
C1144  O1167   1.387   .     S
C1144  C1146   1.404   .     A
C1145  C1149   1.398   .     A
C1145  C1147   1.401   .     A
C1146  C1148   1.418   .     A
C1146  C1150   1.412   .     A
C1147  C559    1.394   1_556 S
C1149  C1152   1.407   .     A
C1149  C556    1.406   1_556 S
C1150  C1151   1.416   .     A
C1151  C1153   1.393   .     A
C1151  H1159   1.079   .     S
C1152  C1154   1.388   .     A
C1152  H1160   1.084   .     S
C1153  H1155   1.082   .     S
C1154  H1156   1.084   .     S
C1154  C554    1.395   1_556 S
H1157  C413    1.080   1_655 S
C1161  C700    1.337   1_565 S
C1161  H767    1.086   1_565 S
C1162  C831    1.337   1_655 S
H1164  C766    1.087   1_565 S
N1165  N1166   1.293   .     D
N1165  N1183   1.385   .     S
N1166  N1186   1.387   .     S
O1167  C1168   1.409   .     S
C1168  H1171   1.109   .     S
C1168  H1170   1.111   .     S
C1168  H1169   1.112   .     S
O1172  C1173   1.420   .     S
C1173  H1176   1.101   .     S
C1173  H1174   1.116   .     S
C1173  H1175   1.112   .     S
N1177  O1178   1.299   .     A
N1177  O1179   1.301   .     A
N1180  O1182   1.298   .     A
N1180  O1181   1.301   .     A
N1183  O1184   1.301   .     A
N1183  O1185   1.300   .     A
N1186  O1187   1.302   .     A
N1186  O1188   1.297   .     A
