data_str_m1_o5_o17_pcu_sym.4
_audit_creation_date              2020-01-03
_audit_creation_method            'Materials Studio'
_symmetry_space_group_name_H-M    'P1'
_symmetry_Int_Tables_number       1
_symmetry_cell_setting            triclinic
loop_
_symmetry_equiv_pos_as_xyz
  x,y,z
_cell_length_a                    31.7436
_cell_length_b                    31.7435
_cell_length_c                    34.3306
_cell_angle_alpha                 90.0002
_cell_angle_beta                  90.0007
_cell_angle_gamma                 89.9999
loop_
_atom_site_label
_atom_site_type_symbol
_atom_site_fract_x
_atom_site_fract_y
_atom_site_fract_z
_atom_site_U_iso_or_equiv
_atom_site_adp_type
_atom_site_occupancy
C1     C     0.25000  -0.00000   0.35595   0.00000  Uiso   1.00
C2     C     0.33004   0.41996   0.75000   0.00000  Uiso   1.00
C3     C     0.42262   0.24430   0.02000   0.00000  Uiso   1.00
C4     C     0.25568   0.07738   0.98000   0.00000  Uiso   1.00
C5     C     0.25568   0.42262   0.02000   0.00000  Uiso   1.00
C6     C     0.42262   0.25566   0.98000   0.00000  Uiso   1.00
C7     C     0.07738   0.25568   0.02000   0.00000  Uiso   1.00
C8     C     0.47628   0.13303   0.46069   0.00000  Uiso   1.00
C9     C     0.42995   0.13945   0.44887   0.00000  Uiso   1.00
C10    C     0.41055   0.09873   0.43333   0.00000  Uiso   1.00
C11    C     0.47626   0.36696   0.53931   0.00000  Uiso   1.00
C12    C     0.42992   0.36053   0.55113   0.00000  Uiso   1.00
C13    C     0.41996   0.16996   0.25000   0.00000  Uiso   1.00
C14    C     0.41051   0.40126   0.56664   0.00000  Uiso   1.00
C15    C     0.36697   0.47627   0.46069   0.00000  Uiso   1.00
C16    C     0.36054   0.42993   0.44887   0.00000  Uiso   1.00
C17    C     0.40126   0.41052   0.43337   0.00000  Uiso   1.00
C18    C     0.13303   0.47626   0.53931   0.00000  Uiso   1.00
C19    C     0.13946   0.42993   0.55112   0.00000  Uiso   1.00
C20    C     0.09874   0.41052   0.56665   0.00000  Uiso   1.00
C21    C     0.02374   0.36697   0.46069   0.00000  Uiso   1.00
C22    C     0.07007   0.36054   0.44887   0.00000  Uiso   1.00
C23    C     0.08948   0.40126   0.43336   0.00000  Uiso   1.00
C24    C     0.08004   0.33004   0.75000   0.00000  Uiso   1.00
C25    C     0.02375   0.13304   0.53931   0.00000  Uiso   1.00
C26    C     0.07008   0.13947   0.55113   0.00000  Uiso   1.00
C27    C     0.08950   0.09875   0.56663   0.00000  Uiso   1.00
C28    C     0.13303   0.02374   0.46069   0.00000  Uiso   1.00
C29    C     0.13946   0.07007   0.44887   0.00000  Uiso   1.00
C30    C     0.09874   0.08948   0.43334   0.00000  Uiso   1.00
C31    C     0.36696   0.02375   0.53931   0.00000  Uiso   1.00
C32    C     0.36052   0.07008   0.55114   0.00000  Uiso   1.00
C33    C     0.40125   0.08951   0.56662   0.00000  Uiso   1.00
C34    C     0.22626   0.38303   0.96069   0.00000  Uiso   1.00
C35    C     0.33004   0.41996   0.25000   0.00000  Uiso   1.00
C36    C     0.17993   0.38946   0.94887   0.00000  Uiso   1.00
C37    C     0.16052   0.34874   0.93336   0.00000  Uiso   1.00
C38    C     0.22627   0.11697   0.03931   0.00000  Uiso   1.00
C39    C     0.17994   0.11054   0.05113   0.00000  Uiso   1.00
C40    C     0.16053   0.15127   0.06665   0.00000  Uiso   1.00
C41    C     0.11697   0.22626   0.96069   0.00000  Uiso   1.00
C42    C     0.11054   0.17993   0.94887   0.00000  Uiso   1.00
C43    C     0.15127   0.16053   0.93336   0.00000  Uiso   1.00
C44    C     0.38304   0.22623   0.03930   0.00000  Uiso   1.00
C45    C     0.38949   0.17991   0.05114   0.00000  Uiso   1.00
C46    C     0.16996   0.08004   0.75000   0.00000  Uiso   1.00
C47    C     0.34874   0.16046   0.06658   0.00000  Uiso   1.00
C48    C     0.27375   0.11697   0.96069   0.00000  Uiso   1.00
C49    C     0.32008   0.11053   0.94887   0.00000  Uiso   1.00
C50    C     0.33949   0.15126   0.93335   0.00000  Uiso   1.00
C51    C     0.27375   0.38304   0.03931   0.00000  Uiso   1.00
C52    C     0.32007   0.38947   0.05114   0.00000  Uiso   1.00
C53    C     0.33950   0.34874   0.06662   0.00000  Uiso   1.00
C54    C     0.38303   0.27372   0.96069   0.00000  Uiso   1.00
C55    C     0.38945   0.32005   0.94888   0.00000  Uiso   1.00
C56    C     0.34873   0.33946   0.93336   0.00000  Uiso   1.00
C57    C     0.08004   0.33004   0.25000   0.00000  Uiso   1.00
C58    C     0.11696   0.27374   0.03931   0.00000  Uiso   1.00
C59    C     0.11053   0.32007   0.05113   0.00000  Uiso   1.00
C60    C     0.15125   0.33949   0.06665   0.00000  Uiso   1.00
C61    C     0.41996   0.16996   0.75000   0.00000  Uiso   1.00
C62    C     0.16996   0.41996   0.75000   0.00000  Uiso   1.00
C63    C     0.33004   0.08004   0.25000   0.00000  Uiso   1.00
C64    C     0.41996   0.33004   0.75000   0.00000  Uiso   1.00
C65    C     0.25000  -0.00000   0.64405   0.00000  Uiso   1.00
C66    C     0.08004   0.16996   0.25000   0.00000  Uiso   1.00
C67    C     0.33004   0.08004   0.75000   0.00000  Uiso   1.00
C68    C     0.16996   0.41996   0.25000   0.00000  Uiso   1.00
C69    C     0.08004   0.16996   0.75000   0.00000  Uiso   1.00
C70    C     0.41996   0.33004   0.25000   0.00000  Uiso   1.00
C71    C     0.13833   0.38833   0.25000   0.00000  Uiso   1.00
C72    C     0.36167   0.11167   0.75000   0.00000  Uiso   1.00
C73    C     0.11167   0.13833   0.25000   0.00000  Uiso   1.00
C74    C     0.38833   0.36167   0.75000   0.00000  Uiso   1.00
C75    C     0.36167   0.11167   0.25000   0.00000  Uiso   1.00
C76    C     0.00000   0.25000   0.35595   0.00000  Uiso   1.00
C77    C     0.13833   0.38833   0.75000   0.00000  Uiso   1.00
C78    C     0.38833   0.36167   0.25000   0.00000  Uiso   1.00
C79    C     0.11167   0.13833   0.75000   0.00000  Uiso   1.00
C80    C     0.13833   0.11167   0.75000   0.00000  Uiso   1.00
C81    C     0.36167   0.38833   0.25000   0.00000  Uiso   1.00
C82    C     0.11167   0.36167   0.75000   0.00000  Uiso   1.00
C83    C     0.38833   0.13833   0.25000   0.00000  Uiso   1.00
C84    C     0.36167   0.38833   0.75000   0.00000  Uiso   1.00
C85    C     0.13833   0.11167   0.25000   0.00000  Uiso   1.00
C86    C     0.38833   0.13833   0.75000   0.00000  Uiso   1.00
C87    C    -0.00000   0.25000   0.64405   0.00000  Uiso   1.00
C88    C     0.11167   0.36167   0.25000   0.00000  Uiso   1.00
C89    C     0.00341   0.28794   0.41826   0.00000  Uiso   1.00
C90    C     0.00342   0.21206   0.58174   0.00000  Uiso   1.00
C91    C     0.21206   0.00342   0.41826   0.00000  Uiso   1.00
C92    C     0.28794   0.00341   0.58174   0.00000  Uiso   1.00
C93    C     0.49659   0.21206   0.41826   0.00000  Uiso   1.00
C94    C     0.49658   0.28794   0.58174   0.00000  Uiso   1.00
C95    C     0.28794   0.49659   0.41826   0.00000  Uiso   1.00
C96    C     0.21206   0.49659   0.58174   0.00000  Uiso   1.00
C97    C     0.25342   0.03794   0.91826   0.00000  Uiso   1.00
C98    C     0.00000   0.25000   0.85595   0.00000  Uiso   1.00
C99    C     0.25341   0.46206   0.08174   0.00000  Uiso   1.00
C100   C     0.46206   0.25341   0.91826   0.00000  Uiso   1.00
C101   C     0.03794   0.25341   0.08174   0.00000  Uiso   1.00
C102   C     0.24659   0.46206   0.91826   0.00000  Uiso   1.00
C103   C     0.24659   0.03794   0.08174   0.00000  Uiso   1.00
C104   C     0.03794   0.24659   0.91826   0.00000  Uiso   1.00
C105   C     0.46206   0.24658   0.08174   0.00000  Uiso   1.00
C106   C     0.00000   0.25000   0.39824   0.00000  Uiso   1.00
C107   C    -0.00000   0.25000   0.60175   0.00000  Uiso   1.00
C108   C     0.25000   0.00000   0.39824   0.00000  Uiso   1.00
C109   C    -0.00000   0.25000   0.14405   0.00000  Uiso   1.00
C110   C     0.25000  -0.00000   0.60175   0.00000  Uiso   1.00
C111   C     0.25000   0.00000   0.89824   0.00000  Uiso   1.00
C112   C     0.25000   0.00000   0.10176   0.00000  Uiso   1.00
C113   C     0.00000   0.25000   0.89824   0.00000  Uiso   1.00
C114   C    -0.00000   0.25000   0.10176   0.00000  Uiso   1.00
C115   C     0.49662   0.21124   0.45916   0.00000  Uiso   1.00
C116   C     0.49662   0.28876   0.54084   0.00000  Uiso   1.00
C117   C     0.28875   0.49662   0.45916   0.00000  Uiso   1.00
C118   C     0.21124   0.49662   0.54084   0.00000  Uiso   1.00
C119   C     0.00338   0.28876   0.45916   0.00000  Uiso   1.00
C120   C     0.25000  -0.00000   0.85595   0.00000  Uiso   1.00
C121   C     0.00339   0.21124   0.54084   0.00000  Uiso   1.00
C122   C     0.21124   0.00338   0.45916   0.00000  Uiso   1.00
C123   C     0.28875   0.00338   0.54084   0.00000  Uiso   1.00
C124   C     0.24662   0.46125   0.95916   0.00000  Uiso   1.00
C125   C     0.24662   0.03876   0.04084   0.00000  Uiso   1.00
C126   C     0.03876   0.24662   0.95916   0.00000  Uiso   1.00
C127   C     0.46125   0.24661   0.04084   0.00000  Uiso   1.00
C128   C     0.25339   0.03876   0.95916   0.00000  Uiso   1.00
C129   C     0.25338   0.46125   0.04084   0.00000  Uiso   1.00
C130   C     0.46124   0.25337   0.95916   0.00000  Uiso   1.00
C131   C     0.25000  -0.00000   0.14405   0.00000  Uiso   1.00
C132   C     0.03876   0.25338   0.04084   0.00000  Uiso   1.00
C133   C     0.00000   0.25000   0.47958   0.00000  Uiso   1.00
C134   C     0.00000   0.25000   0.52042   0.00000  Uiso   1.00
C135   C     0.25000   0.00000   0.47958   0.00000  Uiso   1.00
C136   C     0.25000   0.00000   0.52042   0.00000  Uiso   1.00
C137   C     0.25000   0.00000   0.97958   0.00000  Uiso   1.00
C138   C     0.25000   0.00000   0.02042   0.00000  Uiso   1.00
C139   C     0.00000   0.24999   0.97958   0.00000  Uiso   1.00
C140   C     0.00000   0.24999   0.02042   0.00000  Uiso   1.00
C141   C     0.49433   0.17262   0.48000   0.00000  Uiso   1.00
C142   C     0.16996   0.08004   0.25000   0.00000  Uiso   1.00
C143   C     0.49432   0.32738   0.52000   0.00000  Uiso   1.00
C144   C     0.32738   0.49433   0.48000   0.00000  Uiso   1.00
C145   C     0.17262   0.49432   0.52000   0.00000  Uiso   1.00
C146   C     0.00568   0.32738   0.48000   0.00000  Uiso   1.00
C147   C     0.00569   0.17262   0.52000   0.00000  Uiso   1.00
C148   C     0.17262   0.00568   0.48000   0.00000  Uiso   1.00
C149   C     0.32738   0.00569   0.52000   0.00000  Uiso   1.00
C150   C     0.24432   0.42262   0.98000   0.00000  Uiso   1.00
C151   C     0.24433   0.07738   0.02000   0.00000  Uiso   1.00
C152   C     0.07738   0.24432   0.98000   0.00000  Uiso   1.00
H153   H     0.00494   0.31664   0.40134   0.00000  Uiso   1.00
H154   H     0.25494   0.43336   0.09866   0.00000  Uiso   1.00
H155   H     0.35570   0.22570   0.01947   0.00000  Uiso   1.00
H156   H     0.32171   0.16256   0.90752   0.00000  Uiso   1.00
H157   H     0.33919   0.17604   0.95621   0.00000  Uiso   1.00
H158   H     0.37267   0.14544   0.92465   0.00000  Uiso   1.00
H159   H     0.33849   0.10010   0.97470   0.00000  Uiso   1.00
H160   H     0.32296   0.08594   0.92607   0.00000  Uiso   1.00
H161   H     0.25426   0.12633   0.93527   0.00000  Uiso   1.00
H162   H     0.27426   0.14431   0.98051   0.00000  Uiso   1.00
H163   H     0.32171   0.33739   0.09244   0.00000  Uiso   1.00
H164   H     0.33923   0.32399   0.04373   0.00000  Uiso   1.00
H165   H     0.43336   0.25494   0.90134   0.00000  Uiso   1.00
H166   H     0.37267   0.35456   0.07535   0.00000  Uiso   1.00
H167   H     0.33848   0.39994   0.02533   0.00000  Uiso   1.00
H168   H     0.32294   0.41404   0.07396   0.00000  Uiso   1.00
H169   H     0.25425   0.37366   0.06472   0.00000  Uiso   1.00
H170   H     0.27427   0.35570   0.01948   0.00000  Uiso   1.00
H171   H     0.33743   0.32169   0.90752   0.00000  Uiso   1.00
H172   H     0.32395   0.33915   0.95622   0.00000  Uiso   1.00
H173   H     0.35453   0.37265   0.92467   0.00000  Uiso   1.00
H174   H     0.39989   0.33846   0.97470   0.00000  Uiso   1.00
H175   H     0.41405   0.32294   0.92608   0.00000  Uiso   1.00
H176   H     0.06664   0.25495   0.09866   0.00000  Uiso   1.00
H177   H     0.37367   0.25423   0.93528   0.00000  Uiso   1.00
H178   H     0.35569   0.27423   0.98051   0.00000  Uiso   1.00
H179   H     0.16255   0.32173   0.09249   0.00000  Uiso   1.00
H180   H     0.17603   0.33919   0.04379   0.00000  Uiso   1.00
H181   H     0.14544   0.37268   0.07533   0.00000  Uiso   1.00
H182   H     0.10010   0.33848   0.02530   0.00000  Uiso   1.00
H183   H     0.08594   0.32296   0.07392   0.00000  Uiso   1.00
H184   H     0.12633   0.25426   0.06473   0.00000  Uiso   1.00
H185   H     0.14431   0.27426   0.01949   0.00000  Uiso   1.00
H186   H     0.24505   0.43336   0.90134   0.00000  Uiso   1.00
H187   H     0.24506   0.06664   0.09866   0.00000  Uiso   1.00
H188   H     0.06664   0.24506   0.90134   0.00000  Uiso   1.00
H189   H     0.43336   0.24506   0.09866   0.00000  Uiso   1.00
H190   H     0.42832   0.08746   0.40749   0.00000  Uiso   1.00
H191   H     0.41086   0.07394   0.45618   0.00000  Uiso   1.00
H192   H     0.37736   0.10454   0.42464   0.00000  Uiso   1.00
H193   H     0.00495   0.18336   0.59866   0.00000  Uiso   1.00
H194   H     0.41153   0.14986   0.47470   0.00000  Uiso   1.00
H195   H     0.42706   0.16406   0.42608   0.00000  Uiso   1.00
H196   H     0.49577   0.12367   0.43528   0.00000  Uiso   1.00
H197   H     0.47577   0.10569   0.48051   0.00000  Uiso   1.00
H198   H     0.42828   0.41256   0.59248   0.00000  Uiso   1.00
H199   H     0.41081   0.42603   0.54378   0.00000  Uiso   1.00
H200   H     0.37732   0.39544   0.57533   0.00000  Uiso   1.00
H201   H     0.41152   0.35009   0.52530   0.00000  Uiso   1.00
H202   H     0.42704   0.33594   0.57393   0.00000  Uiso   1.00
H203   H     0.49574   0.37633   0.56472   0.00000  Uiso   1.00
H204   H     0.18336   0.00495   0.40134   0.00000  Uiso   1.00
H205   H     0.47574   0.39431   0.51949   0.00000  Uiso   1.00
H206   H     0.41258   0.42829   0.40754   0.00000  Uiso   1.00
H207   H     0.42604   0.41082   0.45624   0.00000  Uiso   1.00
H208   H     0.39545   0.37733   0.42467   0.00000  Uiso   1.00
H209   H     0.35010   0.41153   0.47470   0.00000  Uiso   1.00
H210   H     0.33595   0.42705   0.42607   0.00000  Uiso   1.00
H211   H     0.37633   0.49575   0.43528   0.00000  Uiso   1.00
H212   H     0.39431   0.47576   0.48052   0.00000  Uiso   1.00
H213   H     0.08746   0.42829   0.59250   0.00000  Uiso   1.00
H214   H     0.07395   0.41084   0.54380   0.00000  Uiso   1.00
H215   H     0.31664   0.00494   0.59866   0.00000  Uiso   1.00
H216   H     0.10455   0.37733   0.57533   0.00000  Uiso   1.00
H217   H     0.14988   0.41152   0.52529   0.00000  Uiso   1.00
H218   H     0.16406   0.42705   0.57392   0.00000  Uiso   1.00
H219   H     0.12367   0.49575   0.56472   0.00000  Uiso   1.00
H220   H     0.10569   0.47575   0.51949   0.00000  Uiso   1.00
H221   H     0.07171   0.41257   0.40753   0.00000  Uiso   1.00
H222   H     0.08918   0.42604   0.45623   0.00000  Uiso   1.00
H223   H     0.12267   0.39545   0.42466   0.00000  Uiso   1.00
H224   H     0.08848   0.35010   0.47470   0.00000  Uiso   1.00
H225   H     0.07295   0.33595   0.42607   0.00000  Uiso   1.00
H226   H     0.49506   0.18336   0.40134   0.00000  Uiso   1.00
H227   H     0.00425   0.37633   0.43528   0.00000  Uiso   1.00
H228   H     0.02425   0.39431   0.48051   0.00000  Uiso   1.00
H229   H     0.07173   0.08742   0.59246   0.00000  Uiso   1.00
H230   H     0.08922   0.07398   0.54375   0.00000  Uiso   1.00
H231   H     0.12269   0.10457   0.57534   0.00000  Uiso   1.00
H232   H     0.08849   0.14993   0.52532   0.00000  Uiso   1.00
H233   H     0.07295   0.16405   0.57395   0.00000  Uiso   1.00
H234   H     0.00426   0.12366   0.56472   0.00000  Uiso   1.00
H235   H     0.02427   0.10569   0.51948   0.00000  Uiso   1.00
H236   H     0.08747   0.07171   0.40749   0.00000  Uiso   1.00
H237   H     0.49505   0.31664   0.59866   0.00000  Uiso   1.00
H238   H     0.07395   0.08916   0.45618   0.00000  Uiso   1.00
H239   H     0.10455   0.12267   0.42466   0.00000  Uiso   1.00
H240   H     0.14988   0.08848   0.47471   0.00000  Uiso   1.00
H241   H     0.16407   0.07296   0.42609   0.00000  Uiso   1.00
H242   H     0.12367   0.00425   0.43527   0.00000  Uiso   1.00
H243   H     0.10569   0.02425   0.48051   0.00000  Uiso   1.00
H244   H     0.41261   0.07173   0.59243   0.00000  Uiso   1.00
H245   H     0.42600   0.08925   0.54373   0.00000  Uiso   1.00
H246   H     0.39543   0.12269   0.57534   0.00000  Uiso   1.00
H247   H     0.35005   0.08849   0.52533   0.00000  Uiso   1.00
H248   H     0.31664   0.49506   0.40134   0.00000  Uiso   1.00
H249   H     0.33595   0.07294   0.57396   0.00000  Uiso   1.00
H250   H     0.37634   0.00426   0.56471   0.00000  Uiso   1.00
H251   H     0.39430   0.02428   0.51948   0.00000  Uiso   1.00
H252   H     0.17829   0.33744   0.90752   0.00000  Uiso   1.00
H253   H     0.16082   0.32396   0.95622   0.00000  Uiso   1.00
H254   H     0.12733   0.35455   0.92467   0.00000  Uiso   1.00
H255   H     0.16152   0.39990   0.97470   0.00000  Uiso   1.00
H256   H     0.17705   0.41405   0.92607   0.00000  Uiso   1.00
H257   H     0.24575   0.37367   0.93528   0.00000  Uiso   1.00
H258   H     0.22575   0.35569   0.98051   0.00000  Uiso   1.00
H259   H     0.18336   0.49505   0.59866   0.00000  Uiso   1.00
H260   H     0.17830   0.16256   0.09249   0.00000  Uiso   1.00
H261   H     0.16084   0.17605   0.04379   0.00000  Uiso   1.00
H262   H     0.12734   0.14546   0.07534   0.00000  Uiso   1.00
H263   H     0.16153   0.10012   0.02530   0.00000  Uiso   1.00
H264   H     0.17705   0.08595   0.07392   0.00000  Uiso   1.00
H265   H     0.24576   0.12633   0.06473   0.00000  Uiso   1.00
H266   H     0.22576   0.14431   0.01949   0.00000  Uiso   1.00
H267   H     0.16257   0.17830   0.90752   0.00000  Uiso   1.00
H268   H     0.17605   0.16083   0.95622   0.00000  Uiso   1.00
H269   H     0.14546   0.12734   0.92466   0.00000  Uiso   1.00
H270   H     0.25495   0.06664   0.90134   0.00000  Uiso   1.00
H271   H     0.10010   0.16152   0.97469   0.00000  Uiso   1.00
H272   H     0.08595   0.17705   0.92607   0.00000  Uiso   1.00
H273   H     0.12634   0.24576   0.93528   0.00000  Uiso   1.00
H274   H     0.14431   0.22575   0.98051   0.00000  Uiso   1.00
H275   H     0.33734   0.17826   0.09237   0.00000  Uiso   1.00
H276   H     0.32403   0.16069   0.04366   0.00000  Uiso   1.00
H277   H     0.35458   0.12729   0.07533   0.00000  Uiso   1.00
H278   H     0.39999   0.16150   0.02534   0.00000  Uiso   1.00
H279   H     0.41403   0.17706   0.07399   0.00000  Uiso   1.00
H280   H     0.37366   0.24573   0.06471   0.00000  Uiso   1.00
O281   O     0.25000  -0.00000   0.25000   0.00000  Uiso   1.00
O282   O     0.25000   0.46538   0.66251   0.00000  Uiso   1.00
O283   O     0.46538   0.25000   0.33749   0.00000  Uiso   1.00
O284   O     0.03461   0.25000   0.66251   0.00000  Uiso   1.00
O285   O     0.00000   0.21538   0.83749   0.00000  Uiso   1.00
O286   O     0.00000   0.28461   0.16251   0.00000  Uiso   1.00
O287   O     0.28461  -0.00000   0.83749   0.00000  Uiso   1.00
O288   O     0.21538  -0.00000   0.16251   0.00000  Uiso   1.00
O289   O     0.00000   0.28461   0.83749   0.00000  Uiso   1.00
O290   O     0.00000   0.21538   0.16251   0.00000  Uiso   1.00
O291   O     0.21538  -0.00000   0.83749   0.00000  Uiso   1.00
O292   O     0.25000  -0.00000   0.75000   0.00000  Uiso   1.00
O293   O     0.28461  -0.00000   0.16251   0.00000  Uiso   1.00
O294   O     0.20126   0.08332   0.27298   0.00000  Uiso   1.00
O295   O     0.29873   0.41668   0.72702   0.00000  Uiso   1.00
O296   O     0.41668   0.20126   0.27298   0.00000  Uiso   1.00
O297   O     0.08332   0.29873   0.72702   0.00000  Uiso   1.00
O298   O     0.29873   0.41668   0.27298   0.00000  Uiso   1.00
O299   O     0.20126   0.08332   0.72702   0.00000  Uiso   1.00
O300   O     0.08332   0.29873   0.27298   0.00000  Uiso   1.00
O301   O     0.41668   0.20126   0.72702   0.00000  Uiso   1.00
O302   O     0.20126   0.41668   0.72702   0.00000  Uiso   1.00
O303   O     0.00000   0.25000   0.25000   0.00000  Uiso   1.00
O304   O     0.29873   0.08332   0.27298   0.00000  Uiso   1.00
O305   O     0.41668   0.29873   0.72702   0.00000  Uiso   1.00
O306   O     0.08332   0.20126   0.27298   0.00000  Uiso   1.00
O307   O     0.29873   0.08332   0.72702   0.00000  Uiso   1.00
O308   O     0.20126   0.41668   0.27298   0.00000  Uiso   1.00
O309   O     0.08332   0.20126   0.72702   0.00000  Uiso   1.00
O310   O     0.41668   0.29873   0.27298   0.00000  Uiso   1.00
O311   O     0.45126   0.33332   0.77298   0.00000  Uiso   1.00
O312   O     0.04873   0.16668   0.22702   0.00000  Uiso   1.00
O313   O     0.16668   0.45126   0.77298   0.00000  Uiso   1.00
O314   O     0.00000   0.25000   0.75000   0.00000  Uiso   1.00
O315   O     0.33332   0.04873   0.22702   0.00000  Uiso   1.00
O316   O     0.04873   0.16668   0.77298   0.00000  Uiso   1.00
O317   O     0.45126   0.33332   0.22702   0.00000  Uiso   1.00
O318   O     0.33332   0.04873   0.77298   0.00000  Uiso   1.00
O319   O     0.16668   0.45126   0.22702   0.00000  Uiso   1.00
O320   O     0.45126   0.16668   0.22702   0.00000  Uiso   1.00
O321   O     0.04873   0.33332   0.77298   0.00000  Uiso   1.00
O322   O     0.16668   0.04873   0.22702   0.00000  Uiso   1.00
O323   O     0.33332   0.45126   0.77298   0.00000  Uiso   1.00
O324   O     0.04873   0.33332   0.22702   0.00000  Uiso   1.00
O325   O     0.25000   0.46538   0.33749   0.00000  Uiso   1.00
O326   O     0.45126   0.16668   0.77298   0.00000  Uiso   1.00
O327   O     0.33332   0.45126   0.22702   0.00000  Uiso   1.00
O328   O     0.16668   0.04873   0.77298   0.00000  Uiso   1.00
O329   O     0.25000   0.03461   0.66251   0.00000  Uiso   1.00
O330   O     0.03461   0.25000   0.33749   0.00000  Uiso   1.00
O331   O     0.46538   0.25000   0.66251   0.00000  Uiso   1.00
O332   O     0.25000   0.03461   0.33749   0.00000  Uiso   1.00
Zn333  Zn    0.20052  -0.00000   0.21730   0.00000  Uiso   1.00
Zn334  Zn    0.04947   0.25000   0.28270   0.00000  Uiso   1.00
Zn335  Zn    0.25000   0.45052   0.71730   0.00000  Uiso   1.00
Zn336  Zn    0.25000   0.04947   0.28270   0.00000  Uiso   1.00
Zn337  Zn    0.04947   0.25000   0.71730   0.00000  Uiso   1.00
Zn338  Zn    0.45052   0.25000   0.28270   0.00000  Uiso   1.00
Zn339  Zn    0.25000   0.04947   0.71730   0.00000  Uiso   1.00
Zn340  Zn    0.25000   0.45052   0.28270   0.00000  Uiso   1.00
Zn341  Zn    0.29947  -0.00000   0.78270   0.00000  Uiso   1.00
Zn342  Zn    0.00000   0.20052   0.21730   0.00000  Uiso   1.00
Zn343  Zn    0.00000   0.29947   0.78270   0.00000  Uiso   1.00
Zn344  Zn    0.29947  -0.00000   0.21730   0.00000  Uiso   1.00
Zn345  Zn    0.20052  -0.00000   0.78270   0.00000  Uiso   1.00
Zn346  Zn   -0.00000   0.29947   0.21730   0.00000  Uiso   1.00
Zn347  Zn    0.00000   0.20052   0.78270   0.00000  Uiso   1.00
Zn348  Zn    0.45052   0.25000   0.71730   0.00000  Uiso   1.00
C349   C     0.75000  -0.00000   0.35595   0.00000  Uiso   1.00
C350   C     0.83004   0.41996   0.75000   0.00000  Uiso   1.00
C351   C     0.92262   0.24430   0.02000   0.00000  Uiso   1.00
C352   C     0.75568   0.07738   0.98000   0.00000  Uiso   1.00
C353   C     0.75568   0.42262   0.02000   0.00000  Uiso   1.00
C354   C     0.92262   0.25566   0.98000   0.00000  Uiso   1.00
C355   C     0.57738   0.25568   0.02000   0.00000  Uiso   1.00
C356   C     0.97628   0.13303   0.46069   0.00000  Uiso   1.00
C357   C     0.92995   0.13945   0.44887   0.00000  Uiso   1.00
C358   C     0.91055   0.09873   0.43333   0.00000  Uiso   1.00
C359   C     0.97626   0.36696   0.53931   0.00000  Uiso   1.00
C360   C     0.92992   0.36053   0.55113   0.00000  Uiso   1.00
C361   C     0.91996   0.16996   0.25000   0.00000  Uiso   1.00
C362   C     0.91051   0.40126   0.56664   0.00000  Uiso   1.00
C363   C     0.86697   0.47627   0.46069   0.00000  Uiso   1.00
C364   C     0.86054   0.42993   0.44887   0.00000  Uiso   1.00
C365   C     0.90126   0.41052   0.43337   0.00000  Uiso   1.00
C366   C     0.63303   0.47626   0.53931   0.00000  Uiso   1.00
C367   C     0.63946   0.42993   0.55112   0.00000  Uiso   1.00
C368   C     0.59874   0.41052   0.56665   0.00000  Uiso   1.00
C369   C     0.52374   0.36697   0.46069   0.00000  Uiso   1.00
C370   C     0.57007   0.36054   0.44887   0.00000  Uiso   1.00
C371   C     0.58948   0.40126   0.43336   0.00000  Uiso   1.00
C372   C     0.58004   0.33004   0.75000   0.00000  Uiso   1.00
C373   C     0.52375   0.13304   0.53931   0.00000  Uiso   1.00
C374   C     0.57008   0.13947   0.55113   0.00000  Uiso   1.00
C375   C     0.58950   0.09875   0.56663   0.00000  Uiso   1.00
C376   C     0.63303   0.02374   0.46069   0.00000  Uiso   1.00
C377   C     0.63946   0.07007   0.44887   0.00000  Uiso   1.00
C378   C     0.59874   0.08948   0.43334   0.00000  Uiso   1.00
C379   C     0.86696   0.02375   0.53931   0.00000  Uiso   1.00
C380   C     0.86052   0.07008   0.55114   0.00000  Uiso   1.00
C381   C     0.90125   0.08951   0.56662   0.00000  Uiso   1.00
C382   C     0.72626   0.38303   0.96069   0.00000  Uiso   1.00
C383   C     0.83004   0.41996   0.25000   0.00000  Uiso   1.00
C384   C     0.67993   0.38946   0.94887   0.00000  Uiso   1.00
C385   C     0.66052   0.34874   0.93336   0.00000  Uiso   1.00
C386   C     0.72627   0.11697   0.03931   0.00000  Uiso   1.00
C387   C     0.67994   0.11054   0.05113   0.00000  Uiso   1.00
C388   C     0.66053   0.15127   0.06665   0.00000  Uiso   1.00
C389   C     0.61697   0.22626   0.96069   0.00000  Uiso   1.00
C390   C     0.61054   0.17993   0.94887   0.00000  Uiso   1.00
C391   C     0.65127   0.16053   0.93336   0.00000  Uiso   1.00
C392   C     0.88304   0.22623   0.03930   0.00000  Uiso   1.00
C393   C     0.88949   0.17991   0.05114   0.00000  Uiso   1.00
C394   C     0.66996   0.08004   0.75000   0.00000  Uiso   1.00
C395   C     0.84874   0.16046   0.06658   0.00000  Uiso   1.00
C396   C     0.77375   0.11697   0.96069   0.00000  Uiso   1.00
C397   C     0.82008   0.11053   0.94887   0.00000  Uiso   1.00
C398   C     0.83949   0.15126   0.93335   0.00000  Uiso   1.00
C399   C     0.77375   0.38304   0.03931   0.00000  Uiso   1.00
C400   C     0.82007   0.38947   0.05114   0.00000  Uiso   1.00
C401   C     0.83950   0.34874   0.06662   0.00000  Uiso   1.00
C402   C     0.88303   0.27372   0.96069   0.00000  Uiso   1.00
C403   C     0.88945   0.32005   0.94888   0.00000  Uiso   1.00
C404   C     0.84873   0.33946   0.93336   0.00000  Uiso   1.00
C405   C     0.58004   0.33004   0.25000   0.00000  Uiso   1.00
C406   C     0.61696   0.27374   0.03931   0.00000  Uiso   1.00
C407   C     0.61053   0.32007   0.05113   0.00000  Uiso   1.00
C408   C     0.65125   0.33949   0.06665   0.00000  Uiso   1.00
C409   C     0.91996   0.16996   0.75000   0.00000  Uiso   1.00
C410   C     0.66996   0.41996   0.75000   0.00000  Uiso   1.00
C411   C     0.83004   0.08004   0.25000   0.00000  Uiso   1.00
C412   C     0.91996   0.33004   0.75000   0.00000  Uiso   1.00
C413   C     0.75000  -0.00000   0.64405   0.00000  Uiso   1.00
C414   C     0.58004   0.16996   0.25000   0.00000  Uiso   1.00
C415   C     0.83004   0.08004   0.75000   0.00000  Uiso   1.00
C416   C     0.66996   0.41996   0.25000   0.00000  Uiso   1.00
C417   C     0.58004   0.16996   0.75000   0.00000  Uiso   1.00
C418   C     0.91996   0.33004   0.25000   0.00000  Uiso   1.00
C419   C     0.63833   0.38833   0.25000   0.00000  Uiso   1.00
C420   C     0.86167   0.11167   0.75000   0.00000  Uiso   1.00
C421   C     0.61167   0.13833   0.25000   0.00000  Uiso   1.00
C422   C     0.88833   0.36167   0.75000   0.00000  Uiso   1.00
C423   C     0.86167   0.11167   0.25000   0.00000  Uiso   1.00
C424   C     0.50000   0.25000   0.35595   0.00000  Uiso   1.00
C425   C     0.63833   0.38833   0.75000   0.00000  Uiso   1.00
C426   C     0.88833   0.36167   0.25000   0.00000  Uiso   1.00
C427   C     0.61167   0.13833   0.75000   0.00000  Uiso   1.00
C428   C     0.63833   0.11167   0.75000   0.00000  Uiso   1.00
C429   C     0.86167   0.38833   0.25000   0.00000  Uiso   1.00
C430   C     0.61167   0.36167   0.75000   0.00000  Uiso   1.00
C431   C     0.88833   0.13833   0.25000   0.00000  Uiso   1.00
C432   C     0.86167   0.38833   0.75000   0.00000  Uiso   1.00
C433   C     0.63833   0.11167   0.25000   0.00000  Uiso   1.00
C434   C     0.88833   0.13833   0.75000   0.00000  Uiso   1.00
C435   C     0.50000   0.25000   0.64405   0.00000  Uiso   1.00
C436   C     0.61167   0.36167   0.25000   0.00000  Uiso   1.00
C437   C     0.50341   0.28794   0.41826   0.00000  Uiso   1.00
C438   C     0.50342   0.21206   0.58174   0.00000  Uiso   1.00
C439   C     0.71206   0.00342   0.41826   0.00000  Uiso   1.00
C440   C     0.78794   0.00341   0.58174   0.00000  Uiso   1.00
C441   C     0.99659   0.21206   0.41826   0.00000  Uiso   1.00
C442   C     0.99658   0.28794   0.58174   0.00000  Uiso   1.00
C443   C     0.78794   0.49659   0.41826   0.00000  Uiso   1.00
C444   C     0.71206   0.49659   0.58174   0.00000  Uiso   1.00
C445   C     0.75342   0.03794   0.91826   0.00000  Uiso   1.00
C446   C     0.50000   0.25000   0.85595   0.00000  Uiso   1.00
C447   C     0.75341   0.46206   0.08174   0.00000  Uiso   1.00
C448   C     0.96206   0.25341   0.91826   0.00000  Uiso   1.00
C449   C     0.53794   0.25341   0.08174   0.00000  Uiso   1.00
C450   C     0.74659   0.46206   0.91826   0.00000  Uiso   1.00
C451   C     0.74659   0.03794   0.08174   0.00000  Uiso   1.00
C452   C     0.53794   0.24659   0.91826   0.00000  Uiso   1.00
C453   C     0.96206   0.24658   0.08174   0.00000  Uiso   1.00
C454   C     0.50000   0.25000   0.39824   0.00000  Uiso   1.00
C455   C     0.50000   0.25000   0.60175   0.00000  Uiso   1.00
C456   C     0.75000   0.00000   0.39824   0.00000  Uiso   1.00
C457   C     0.50000   0.25000   0.14405   0.00000  Uiso   1.00
C458   C     0.75000  -0.00000   0.60175   0.00000  Uiso   1.00
C459   C     0.75000   0.00000   0.89824   0.00000  Uiso   1.00
C460   C     0.75000   0.00000   0.10176   0.00000  Uiso   1.00
C461   C     0.50000   0.25000   0.89824   0.00000  Uiso   1.00
C462   C     0.50000   0.25000   0.10176   0.00000  Uiso   1.00
C463   C     0.99662   0.21124   0.45916   0.00000  Uiso   1.00
C464   C     0.99662   0.28876   0.54084   0.00000  Uiso   1.00
C465   C     0.78875   0.49662   0.45916   0.00000  Uiso   1.00
C466   C     0.71124   0.49662   0.54084   0.00000  Uiso   1.00
C467   C     0.50338   0.28876   0.45916   0.00000  Uiso   1.00
C468   C     0.75000  -0.00000   0.85595   0.00000  Uiso   1.00
C469   C     0.50339   0.21124   0.54084   0.00000  Uiso   1.00
C470   C     0.71124   0.00338   0.45916   0.00000  Uiso   1.00
C471   C     0.78875   0.00338   0.54084   0.00000  Uiso   1.00
C472   C     0.74662   0.46125   0.95916   0.00000  Uiso   1.00
C473   C     0.74662   0.03876   0.04084   0.00000  Uiso   1.00
C474   C     0.53876   0.24662   0.95916   0.00000  Uiso   1.00
C475   C     0.96125   0.24661   0.04084   0.00000  Uiso   1.00
C476   C     0.75339   0.03876   0.95916   0.00000  Uiso   1.00
C477   C     0.75338   0.46125   0.04084   0.00000  Uiso   1.00
C478   C     0.96124   0.25337   0.95916   0.00000  Uiso   1.00
C479   C     0.75000  -0.00000   0.14405   0.00000  Uiso   1.00
C480   C     0.53876   0.25338   0.04084   0.00000  Uiso   1.00
C481   C     0.50000   0.25000   0.47958   0.00000  Uiso   1.00
C482   C     0.50000   0.25000   0.52042   0.00000  Uiso   1.00
C483   C     0.75000   0.00000   0.47958   0.00000  Uiso   1.00
C484   C     0.75000   0.00000   0.52042   0.00000  Uiso   1.00
C485   C     0.75000   0.00000   0.97958   0.00000  Uiso   1.00
C486   C     0.75000   0.00000   0.02042   0.00000  Uiso   1.00
C487   C     0.50000   0.24999   0.97958   0.00000  Uiso   1.00
C488   C     0.50000   0.24999   0.02042   0.00000  Uiso   1.00
C489   C     0.99433   0.17262   0.48000   0.00000  Uiso   1.00
C490   C     0.66996   0.08004   0.25000   0.00000  Uiso   1.00
C491   C     0.99432   0.32738   0.52000   0.00000  Uiso   1.00
C492   C     0.82738   0.49433   0.48000   0.00000  Uiso   1.00
C493   C     0.67262   0.49432   0.52000   0.00000  Uiso   1.00
C494   C     0.50568   0.32738   0.48000   0.00000  Uiso   1.00
C495   C     0.50569   0.17262   0.52000   0.00000  Uiso   1.00
C496   C     0.67262   0.00568   0.48000   0.00000  Uiso   1.00
C497   C     0.82738   0.00569   0.52000   0.00000  Uiso   1.00
C498   C     0.74432   0.42262   0.98000   0.00000  Uiso   1.00
C499   C     0.74433   0.07738   0.02000   0.00000  Uiso   1.00
C500   C     0.57738   0.24432   0.98000   0.00000  Uiso   1.00
H501   H     0.50494   0.31664   0.40134   0.00000  Uiso   1.00
H502   H     0.75494   0.43336   0.09866   0.00000  Uiso   1.00
H503   H     0.85570   0.22570   0.01947   0.00000  Uiso   1.00
H504   H     0.82171   0.16256   0.90752   0.00000  Uiso   1.00
H505   H     0.83919   0.17604   0.95621   0.00000  Uiso   1.00
H506   H     0.87267   0.14544   0.92465   0.00000  Uiso   1.00
H507   H     0.83849   0.10010   0.97470   0.00000  Uiso   1.00
H508   H     0.82296   0.08594   0.92607   0.00000  Uiso   1.00
H509   H     0.75426   0.12633   0.93527   0.00000  Uiso   1.00
H510   H     0.77426   0.14431   0.98051   0.00000  Uiso   1.00
H511   H     0.82171   0.33739   0.09244   0.00000  Uiso   1.00
H512   H     0.83923   0.32399   0.04373   0.00000  Uiso   1.00
H513   H     0.93336   0.25494   0.90134   0.00000  Uiso   1.00
H514   H     0.87267   0.35456   0.07535   0.00000  Uiso   1.00
H515   H     0.83848   0.39994   0.02533   0.00000  Uiso   1.00
H516   H     0.82294   0.41404   0.07396   0.00000  Uiso   1.00
H517   H     0.75425   0.37366   0.06472   0.00000  Uiso   1.00
H518   H     0.77427   0.35570   0.01948   0.00000  Uiso   1.00
H519   H     0.83743   0.32169   0.90752   0.00000  Uiso   1.00
H520   H     0.82395   0.33915   0.95622   0.00000  Uiso   1.00
H521   H     0.85453   0.37265   0.92467   0.00000  Uiso   1.00
H522   H     0.89989   0.33846   0.97470   0.00000  Uiso   1.00
H523   H     0.91405   0.32294   0.92608   0.00000  Uiso   1.00
H524   H     0.56664   0.25495   0.09866   0.00000  Uiso   1.00
H525   H     0.87367   0.25423   0.93528   0.00000  Uiso   1.00
H526   H     0.85569   0.27423   0.98051   0.00000  Uiso   1.00
H527   H     0.66255   0.32173   0.09249   0.00000  Uiso   1.00
H528   H     0.67603   0.33919   0.04379   0.00000  Uiso   1.00
H529   H     0.64544   0.37268   0.07533   0.00000  Uiso   1.00
H530   H     0.60010   0.33848   0.02530   0.00000  Uiso   1.00
H531   H     0.58594   0.32296   0.07392   0.00000  Uiso   1.00
H532   H     0.62633   0.25426   0.06473   0.00000  Uiso   1.00
H533   H     0.64431   0.27426   0.01949   0.00000  Uiso   1.00
H534   H     0.74505   0.43336   0.90134   0.00000  Uiso   1.00
H535   H     0.74506   0.06664   0.09866   0.00000  Uiso   1.00
H536   H     0.56664   0.24506   0.90134   0.00000  Uiso   1.00
H537   H     0.93336   0.24506   0.09866   0.00000  Uiso   1.00
H538   H     0.92832   0.08746   0.40749   0.00000  Uiso   1.00
H539   H     0.91086   0.07394   0.45618   0.00000  Uiso   1.00
H540   H     0.87736   0.10454   0.42464   0.00000  Uiso   1.00
H541   H     0.50495   0.18336   0.59866   0.00000  Uiso   1.00
H542   H     0.91153   0.14986   0.47470   0.00000  Uiso   1.00
H543   H     0.92706   0.16406   0.42608   0.00000  Uiso   1.00
H544   H     0.99577   0.12367   0.43528   0.00000  Uiso   1.00
H545   H     0.97577   0.10569   0.48051   0.00000  Uiso   1.00
H546   H     0.92828   0.41256   0.59248   0.00000  Uiso   1.00
H547   H     0.91081   0.42603   0.54378   0.00000  Uiso   1.00
H548   H     0.87732   0.39544   0.57533   0.00000  Uiso   1.00
H549   H     0.91152   0.35009   0.52530   0.00000  Uiso   1.00
H550   H     0.92704   0.33594   0.57393   0.00000  Uiso   1.00
H551   H     0.99574   0.37633   0.56472   0.00000  Uiso   1.00
H552   H     0.68336   0.00495   0.40134   0.00000  Uiso   1.00
H553   H     0.97574   0.39431   0.51949   0.00000  Uiso   1.00
H554   H     0.91258   0.42829   0.40754   0.00000  Uiso   1.00
H555   H     0.92604   0.41082   0.45624   0.00000  Uiso   1.00
H556   H     0.89545   0.37733   0.42467   0.00000  Uiso   1.00
H557   H     0.85010   0.41153   0.47470   0.00000  Uiso   1.00
H558   H     0.83595   0.42705   0.42607   0.00000  Uiso   1.00
H559   H     0.87633   0.49575   0.43528   0.00000  Uiso   1.00
H560   H     0.89431   0.47576   0.48052   0.00000  Uiso   1.00
H561   H     0.58746   0.42829   0.59250   0.00000  Uiso   1.00
H562   H     0.57395   0.41084   0.54380   0.00000  Uiso   1.00
H563   H     0.81664   0.00494   0.59866   0.00000  Uiso   1.00
H564   H     0.60455   0.37733   0.57533   0.00000  Uiso   1.00
H565   H     0.64988   0.41152   0.52529   0.00000  Uiso   1.00
H566   H     0.66406   0.42705   0.57392   0.00000  Uiso   1.00
H567   H     0.62367   0.49575   0.56472   0.00000  Uiso   1.00
H568   H     0.60569   0.47575   0.51949   0.00000  Uiso   1.00
H569   H     0.57171   0.41257   0.40753   0.00000  Uiso   1.00
H570   H     0.58918   0.42604   0.45623   0.00000  Uiso   1.00
H571   H     0.62267   0.39545   0.42466   0.00000  Uiso   1.00
H572   H     0.58848   0.35010   0.47470   0.00000  Uiso   1.00
H573   H     0.57295   0.33595   0.42607   0.00000  Uiso   1.00
H574   H     0.99506   0.18336   0.40134   0.00000  Uiso   1.00
H575   H     0.50425   0.37633   0.43528   0.00000  Uiso   1.00
H576   H     0.52425   0.39431   0.48051   0.00000  Uiso   1.00
H577   H     0.57173   0.08742   0.59246   0.00000  Uiso   1.00
H578   H     0.58922   0.07398   0.54375   0.00000  Uiso   1.00
H579   H     0.62269   0.10457   0.57534   0.00000  Uiso   1.00
H580   H     0.58849   0.14993   0.52532   0.00000  Uiso   1.00
H581   H     0.57295   0.16405   0.57395   0.00000  Uiso   1.00
H582   H     0.50426   0.12366   0.56472   0.00000  Uiso   1.00
H583   H     0.52427   0.10569   0.51948   0.00000  Uiso   1.00
H584   H     0.58747   0.07171   0.40749   0.00000  Uiso   1.00
H585   H     0.99505   0.31664   0.59866   0.00000  Uiso   1.00
H586   H     0.57395   0.08916   0.45618   0.00000  Uiso   1.00
H587   H     0.60455   0.12267   0.42466   0.00000  Uiso   1.00
H588   H     0.64988   0.08848   0.47471   0.00000  Uiso   1.00
H589   H     0.66407   0.07296   0.42609   0.00000  Uiso   1.00
H590   H     0.62367   0.00425   0.43527   0.00000  Uiso   1.00
H591   H     0.60569   0.02425   0.48051   0.00000  Uiso   1.00
H592   H     0.91261   0.07173   0.59243   0.00000  Uiso   1.00
H593   H     0.92600   0.08925   0.54373   0.00000  Uiso   1.00
H594   H     0.89543   0.12269   0.57534   0.00000  Uiso   1.00
H595   H     0.85005   0.08849   0.52533   0.00000  Uiso   1.00
H596   H     0.81664   0.49506   0.40134   0.00000  Uiso   1.00
H597   H     0.83595   0.07294   0.57396   0.00000  Uiso   1.00
H598   H     0.87634   0.00426   0.56471   0.00000  Uiso   1.00
H599   H     0.89430   0.02428   0.51948   0.00000  Uiso   1.00
H600   H     0.67829   0.33744   0.90752   0.00000  Uiso   1.00
H601   H     0.66082   0.32396   0.95622   0.00000  Uiso   1.00
H602   H     0.62733   0.35455   0.92467   0.00000  Uiso   1.00
H603   H     0.66152   0.39990   0.97470   0.00000  Uiso   1.00
H604   H     0.67705   0.41405   0.92607   0.00000  Uiso   1.00
H605   H     0.74575   0.37367   0.93528   0.00000  Uiso   1.00
H606   H     0.72575   0.35569   0.98051   0.00000  Uiso   1.00
H607   H     0.68336   0.49505   0.59866   0.00000  Uiso   1.00
H608   H     0.67830   0.16256   0.09249   0.00000  Uiso   1.00
H609   H     0.66084   0.17605   0.04379   0.00000  Uiso   1.00
H610   H     0.62734   0.14546   0.07534   0.00000  Uiso   1.00
H611   H     0.66153   0.10012   0.02530   0.00000  Uiso   1.00
H612   H     0.67705   0.08595   0.07392   0.00000  Uiso   1.00
H613   H     0.74576   0.12633   0.06473   0.00000  Uiso   1.00
H614   H     0.72576   0.14431   0.01949   0.00000  Uiso   1.00
H615   H     0.66257   0.17830   0.90752   0.00000  Uiso   1.00
H616   H     0.67605   0.16083   0.95622   0.00000  Uiso   1.00
H617   H     0.64546   0.12734   0.92466   0.00000  Uiso   1.00
H618   H     0.75495   0.06664   0.90134   0.00000  Uiso   1.00
H619   H     0.60010   0.16152   0.97469   0.00000  Uiso   1.00
H620   H     0.58595   0.17705   0.92607   0.00000  Uiso   1.00
H621   H     0.62634   0.24576   0.93528   0.00000  Uiso   1.00
H622   H     0.64431   0.22575   0.98051   0.00000  Uiso   1.00
H623   H     0.83734   0.17826   0.09237   0.00000  Uiso   1.00
H624   H     0.82403   0.16069   0.04366   0.00000  Uiso   1.00
H625   H     0.85458   0.12729   0.07533   0.00000  Uiso   1.00
H626   H     0.89999   0.16150   0.02534   0.00000  Uiso   1.00
H627   H     0.91403   0.17706   0.07399   0.00000  Uiso   1.00
H628   H     0.87366   0.24573   0.06471   0.00000  Uiso   1.00
O629   O     0.75000  -0.00000   0.25000   0.00000  Uiso   1.00
O630   O     0.75000   0.46538   0.66251   0.00000  Uiso   1.00
O631   O     0.96538   0.25000   0.33749   0.00000  Uiso   1.00
O632   O     0.53461   0.25000   0.66251   0.00000  Uiso   1.00
O633   O     0.50000   0.21538   0.83749   0.00000  Uiso   1.00
O634   O     0.50000   0.28461   0.16251   0.00000  Uiso   1.00
O635   O     0.78461  -0.00000   0.83749   0.00000  Uiso   1.00
O636   O     0.71538  -0.00000   0.16251   0.00000  Uiso   1.00
O637   O     0.50000   0.28461   0.83749   0.00000  Uiso   1.00
O638   O     0.50000   0.21538   0.16251   0.00000  Uiso   1.00
O639   O     0.71538  -0.00000   0.83749   0.00000  Uiso   1.00
O640   O     0.75000  -0.00000   0.75000   0.00000  Uiso   1.00
O641   O     0.78461  -0.00000   0.16251   0.00000  Uiso   1.00
O642   O     0.70126   0.08332   0.27298   0.00000  Uiso   1.00
O643   O     0.79873   0.41668   0.72702   0.00000  Uiso   1.00
O644   O     0.91668   0.20126   0.27298   0.00000  Uiso   1.00
O645   O     0.58332   0.29873   0.72702   0.00000  Uiso   1.00
O646   O     0.79873   0.41668   0.27298   0.00000  Uiso   1.00
O647   O     0.70126   0.08332   0.72702   0.00000  Uiso   1.00
O648   O     0.58332   0.29873   0.27298   0.00000  Uiso   1.00
O649   O     0.91668   0.20126   0.72702   0.00000  Uiso   1.00
O650   O     0.70126   0.41668   0.72702   0.00000  Uiso   1.00
O651   O     0.50000   0.25000   0.25000   0.00000  Uiso   1.00
O652   O     0.79873   0.08332   0.27298   0.00000  Uiso   1.00
O653   O     0.91668   0.29873   0.72702   0.00000  Uiso   1.00
O654   O     0.58332   0.20126   0.27298   0.00000  Uiso   1.00
O655   O     0.79873   0.08332   0.72702   0.00000  Uiso   1.00
O656   O     0.70126   0.41668   0.27298   0.00000  Uiso   1.00
O657   O     0.58332   0.20126   0.72702   0.00000  Uiso   1.00
O658   O     0.91668   0.29873   0.27298   0.00000  Uiso   1.00
O659   O     0.95126   0.33332   0.77298   0.00000  Uiso   1.00
O660   O     0.54873   0.16668   0.22702   0.00000  Uiso   1.00
O661   O     0.66668   0.45126   0.77298   0.00000  Uiso   1.00
O662   O     0.50000   0.25000   0.75000   0.00000  Uiso   1.00
O663   O     0.83332   0.04873   0.22702   0.00000  Uiso   1.00
O664   O     0.54873   0.16668   0.77298   0.00000  Uiso   1.00
O665   O     0.95126   0.33332   0.22702   0.00000  Uiso   1.00
O666   O     0.83332   0.04873   0.77298   0.00000  Uiso   1.00
O667   O     0.66668   0.45126   0.22702   0.00000  Uiso   1.00
O668   O     0.95126   0.16668   0.22702   0.00000  Uiso   1.00
O669   O     0.54873   0.33332   0.77298   0.00000  Uiso   1.00
O670   O     0.66668   0.04873   0.22702   0.00000  Uiso   1.00
O671   O     0.83332   0.45126   0.77298   0.00000  Uiso   1.00
O672   O     0.54873   0.33332   0.22702   0.00000  Uiso   1.00
O673   O     0.75000   0.46538   0.33749   0.00000  Uiso   1.00
O674   O     0.95126   0.16668   0.77298   0.00000  Uiso   1.00
O675   O     0.83332   0.45126   0.22702   0.00000  Uiso   1.00
O676   O     0.66668   0.04873   0.77298   0.00000  Uiso   1.00
O677   O     0.75000   0.03461   0.66251   0.00000  Uiso   1.00
O678   O     0.53461   0.25000   0.33749   0.00000  Uiso   1.00
O679   O     0.96538   0.25000   0.66251   0.00000  Uiso   1.00
O680   O     0.75000   0.03461   0.33749   0.00000  Uiso   1.00
Zn681  Zn    0.70052  -0.00000   0.21730   0.00000  Uiso   1.00
Zn682  Zn    0.54947   0.25000   0.28270   0.00000  Uiso   1.00
Zn683  Zn    0.75000   0.45052   0.71730   0.00000  Uiso   1.00
Zn684  Zn    0.75000   0.04947   0.28270   0.00000  Uiso   1.00
Zn685  Zn    0.54947   0.25000   0.71730   0.00000  Uiso   1.00
Zn686  Zn    0.95052   0.25000   0.28270   0.00000  Uiso   1.00
Zn687  Zn    0.75000   0.04947   0.71730   0.00000  Uiso   1.00
Zn688  Zn    0.75000   0.45052   0.28270   0.00000  Uiso   1.00
Zn689  Zn    0.79947  -0.00000   0.78270   0.00000  Uiso   1.00
Zn690  Zn    0.50000   0.20052   0.21730   0.00000  Uiso   1.00
Zn691  Zn    0.50000   0.29947   0.78270   0.00000  Uiso   1.00
Zn692  Zn    0.79947  -0.00000   0.21730   0.00000  Uiso   1.00
Zn693  Zn    0.70052  -0.00000   0.78270   0.00000  Uiso   1.00
Zn694  Zn    0.50000   0.29947   0.21730   0.00000  Uiso   1.00
Zn695  Zn    0.50000   0.20052   0.78270   0.00000  Uiso   1.00
Zn696  Zn    0.95052   0.25000   0.71730   0.00000  Uiso   1.00
C697   C     0.25000   0.50000   0.35595   0.00000  Uiso   1.00
C698   C     0.33004   0.91996   0.75000   0.00000  Uiso   1.00
C699   C     0.42262   0.74430   0.02000   0.00000  Uiso   1.00
C700   C     0.25568   0.57738   0.98000   0.00000  Uiso   1.00
C701   C     0.25568   0.92262   0.02000   0.00000  Uiso   1.00
C702   C     0.42262   0.75566   0.98000   0.00000  Uiso   1.00
C703   C     0.07738   0.75568   0.02000   0.00000  Uiso   1.00
C704   C     0.47628   0.63303   0.46069   0.00000  Uiso   1.00
C705   C     0.42995   0.63945   0.44887   0.00000  Uiso   1.00
C706   C     0.41055   0.59873   0.43333   0.00000  Uiso   1.00
C707   C     0.47626   0.86696   0.53931   0.00000  Uiso   1.00
C708   C     0.42992   0.86053   0.55113   0.00000  Uiso   1.00
C709   C     0.41996   0.66996   0.25000   0.00000  Uiso   1.00
C710   C     0.41051   0.90126   0.56664   0.00000  Uiso   1.00
C711   C     0.36697   0.97627   0.46069   0.00000  Uiso   1.00
C712   C     0.36054   0.92993   0.44887   0.00000  Uiso   1.00
C713   C     0.40126   0.91052   0.43337   0.00000  Uiso   1.00
C714   C     0.13303   0.97626   0.53931   0.00000  Uiso   1.00
C715   C     0.13946   0.92993   0.55112   0.00000  Uiso   1.00
C716   C     0.09874   0.91052   0.56665   0.00000  Uiso   1.00
C717   C     0.02374   0.86697   0.46069   0.00000  Uiso   1.00
C718   C     0.07007   0.86054   0.44887   0.00000  Uiso   1.00
C719   C     0.08948   0.90126   0.43336   0.00000  Uiso   1.00
C720   C     0.08004   0.83004   0.75000   0.00000  Uiso   1.00
C721   C     0.02375   0.63304   0.53931   0.00000  Uiso   1.00
C722   C     0.07008   0.63947   0.55113   0.00000  Uiso   1.00
C723   C     0.08950   0.59875   0.56663   0.00000  Uiso   1.00
C724   C     0.13303   0.52374   0.46069   0.00000  Uiso   1.00
C725   C     0.13946   0.57007   0.44887   0.00000  Uiso   1.00
C726   C     0.09874   0.58948   0.43334   0.00000  Uiso   1.00
C727   C     0.36696   0.52375   0.53931   0.00000  Uiso   1.00
C728   C     0.36052   0.57008   0.55114   0.00000  Uiso   1.00
C729   C     0.40125   0.58951   0.56662   0.00000  Uiso   1.00
C730   C     0.22626   0.88303   0.96069   0.00000  Uiso   1.00
C731   C     0.33004   0.91996   0.25000   0.00000  Uiso   1.00
C732   C     0.17993   0.88946   0.94887   0.00000  Uiso   1.00
C733   C     0.16052   0.84874   0.93336   0.00000  Uiso   1.00
C734   C     0.22627   0.61697   0.03931   0.00000  Uiso   1.00
C735   C     0.17994   0.61054   0.05113   0.00000  Uiso   1.00
C736   C     0.16053   0.65127   0.06665   0.00000  Uiso   1.00
C737   C     0.11697   0.72626   0.96069   0.00000  Uiso   1.00
C738   C     0.11054   0.67993   0.94887   0.00000  Uiso   1.00
C739   C     0.15127   0.66053   0.93336   0.00000  Uiso   1.00
C740   C     0.38304   0.72623   0.03930   0.00000  Uiso   1.00
C741   C     0.38949   0.67991   0.05114   0.00000  Uiso   1.00
C742   C     0.16996   0.58004   0.75000   0.00000  Uiso   1.00
C743   C     0.34874   0.66046   0.06658   0.00000  Uiso   1.00
C744   C     0.27375   0.61697   0.96069   0.00000  Uiso   1.00
C745   C     0.32008   0.61053   0.94887   0.00000  Uiso   1.00
C746   C     0.33949   0.65126   0.93335   0.00000  Uiso   1.00
C747   C     0.27375   0.88304   0.03931   0.00000  Uiso   1.00
C748   C     0.32007   0.88947   0.05114   0.00000  Uiso   1.00
C749   C     0.33950   0.84874   0.06662   0.00000  Uiso   1.00
C750   C     0.38303   0.77372   0.96069   0.00000  Uiso   1.00
C751   C     0.38945   0.82005   0.94888   0.00000  Uiso   1.00
C752   C     0.34873   0.83946   0.93336   0.00000  Uiso   1.00
C753   C     0.08004   0.83004   0.25000   0.00000  Uiso   1.00
C754   C     0.11696   0.77374   0.03931   0.00000  Uiso   1.00
C755   C     0.11053   0.82007   0.05113   0.00000  Uiso   1.00
C756   C     0.15125   0.83949   0.06665   0.00000  Uiso   1.00
C757   C     0.41996   0.66996   0.75000   0.00000  Uiso   1.00
C758   C     0.16996   0.91996   0.75000   0.00000  Uiso   1.00
C759   C     0.33004   0.58004   0.25000   0.00000  Uiso   1.00
C760   C     0.41996   0.83004   0.75000   0.00000  Uiso   1.00
C761   C     0.25000   0.50000   0.64405   0.00000  Uiso   1.00
C762   C     0.08004   0.66996   0.25000   0.00000  Uiso   1.00
C763   C     0.33004   0.58004   0.75000   0.00000  Uiso   1.00
C764   C     0.16996   0.91996   0.25000   0.00000  Uiso   1.00
C765   C     0.08004   0.66996   0.75000   0.00000  Uiso   1.00
C766   C     0.41996   0.83004   0.25000   0.00000  Uiso   1.00
C767   C     0.13833   0.88833   0.25000   0.00000  Uiso   1.00
C768   C     0.36167   0.61167   0.75000   0.00000  Uiso   1.00
C769   C     0.11167   0.63833   0.25000   0.00000  Uiso   1.00
C770   C     0.38833   0.86167   0.75000   0.00000  Uiso   1.00
C771   C     0.36167   0.61167   0.25000   0.00000  Uiso   1.00
C772   C     0.00000   0.75000   0.35595   0.00000  Uiso   1.00
C773   C     0.13833   0.88833   0.75000   0.00000  Uiso   1.00
C774   C     0.38833   0.86167   0.25000   0.00000  Uiso   1.00
C775   C     0.11167   0.63833   0.75000   0.00000  Uiso   1.00
C776   C     0.13833   0.61167   0.75000   0.00000  Uiso   1.00
C777   C     0.36167   0.88833   0.25000   0.00000  Uiso   1.00
C778   C     0.11167   0.86167   0.75000   0.00000  Uiso   1.00
C779   C     0.38833   0.63833   0.25000   0.00000  Uiso   1.00
C780   C     0.36167   0.88833   0.75000   0.00000  Uiso   1.00
C781   C     0.13833   0.61167   0.25000   0.00000  Uiso   1.00
C782   C     0.38833   0.63833   0.75000   0.00000  Uiso   1.00
C783   C    -0.00000   0.75000   0.64405   0.00000  Uiso   1.00
C784   C     0.11167   0.86167   0.25000   0.00000  Uiso   1.00
C785   C     0.00341   0.78794   0.41826   0.00000  Uiso   1.00
C786   C     0.00342   0.71206   0.58174   0.00000  Uiso   1.00
C787   C     0.21206   0.50342   0.41826   0.00000  Uiso   1.00
C788   C     0.28794   0.50341   0.58174   0.00000  Uiso   1.00
C789   C     0.49659   0.71206   0.41826   0.00000  Uiso   1.00
C790   C     0.49658   0.78794   0.58174   0.00000  Uiso   1.00
C791   C     0.28794   0.99659   0.41826   0.00000  Uiso   1.00
C792   C     0.21206   0.99659   0.58174   0.00000  Uiso   1.00
C793   C     0.25342   0.53794   0.91826   0.00000  Uiso   1.00
C794   C     0.00000   0.75000   0.85595   0.00000  Uiso   1.00
C795   C     0.25341   0.96206   0.08174   0.00000  Uiso   1.00
C796   C     0.46206   0.75341   0.91826   0.00000  Uiso   1.00
C797   C     0.03794   0.75341   0.08174   0.00000  Uiso   1.00
C798   C     0.24659   0.96206   0.91826   0.00000  Uiso   1.00
C799   C     0.24659   0.53794   0.08174   0.00000  Uiso   1.00
C800   C     0.03794   0.74659   0.91826   0.00000  Uiso   1.00
C801   C     0.46206   0.74658   0.08174   0.00000  Uiso   1.00
C802   C     0.00000   0.75000   0.39824   0.00000  Uiso   1.00
C803   C    -0.00000   0.75000   0.60175   0.00000  Uiso   1.00
C804   C     0.25000   0.50000   0.39824   0.00000  Uiso   1.00
C805   C    -0.00000   0.75000   0.14405   0.00000  Uiso   1.00
C806   C     0.25000   0.50000   0.60175   0.00000  Uiso   1.00
C807   C     0.25000   0.50000   0.89824   0.00000  Uiso   1.00
C808   C     0.25000   0.50000   0.10176   0.00000  Uiso   1.00
C809   C     0.00000   0.75000   0.89824   0.00000  Uiso   1.00
C810   C    -0.00000   0.75000   0.10176   0.00000  Uiso   1.00
C811   C     0.49662   0.71124   0.45916   0.00000  Uiso   1.00
C812   C     0.49662   0.78876   0.54084   0.00000  Uiso   1.00
C813   C     0.28875   0.99662   0.45916   0.00000  Uiso   1.00
C814   C     0.21124   0.99662   0.54084   0.00000  Uiso   1.00
C815   C     0.00338   0.78876   0.45916   0.00000  Uiso   1.00
C816   C     0.25000   0.50000   0.85595   0.00000  Uiso   1.00
C817   C     0.00339   0.71124   0.54084   0.00000  Uiso   1.00
C818   C     0.21124   0.50338   0.45916   0.00000  Uiso   1.00
C819   C     0.28875   0.50338   0.54084   0.00000  Uiso   1.00
C820   C     0.24662   0.96125   0.95916   0.00000  Uiso   1.00
C821   C     0.24662   0.53876   0.04084   0.00000  Uiso   1.00
C822   C     0.03876   0.74662   0.95916   0.00000  Uiso   1.00
C823   C     0.46125   0.74661   0.04084   0.00000  Uiso   1.00
C824   C     0.25339   0.53876   0.95916   0.00000  Uiso   1.00
C825   C     0.25338   0.96125   0.04084   0.00000  Uiso   1.00
C826   C     0.46124   0.75337   0.95916   0.00000  Uiso   1.00
C827   C     0.25000   0.50000   0.14405   0.00000  Uiso   1.00
C828   C     0.03876   0.75338   0.04084   0.00000  Uiso   1.00
C829   C     0.00000   0.75000   0.47958   0.00000  Uiso   1.00
C830   C     0.00000   0.75000   0.52042   0.00000  Uiso   1.00
C831   C     0.25000   0.50000   0.47958   0.00000  Uiso   1.00
C832   C     0.25000   0.50000   0.52042   0.00000  Uiso   1.00
C833   C     0.25000   0.50000   0.97958   0.00000  Uiso   1.00
C834   C     0.25000   0.50000   0.02042   0.00000  Uiso   1.00
C835   C     0.00000   0.74999   0.97958   0.00000  Uiso   1.00
C836   C     0.00000   0.74999   0.02042   0.00000  Uiso   1.00
C837   C     0.49433   0.67262   0.48000   0.00000  Uiso   1.00
C838   C     0.16996   0.58004   0.25000   0.00000  Uiso   1.00
C839   C     0.49432   0.82738   0.52000   0.00000  Uiso   1.00
C840   C     0.32738   0.99433   0.48000   0.00000  Uiso   1.00
C841   C     0.17262   0.99432   0.52000   0.00000  Uiso   1.00
C842   C     0.00568   0.82738   0.48000   0.00000  Uiso   1.00
C843   C     0.00569   0.67262   0.52000   0.00000  Uiso   1.00
C844   C     0.17262   0.50568   0.48000   0.00000  Uiso   1.00
C845   C     0.32738   0.50569   0.52000   0.00000  Uiso   1.00
C846   C     0.24432   0.92262   0.98000   0.00000  Uiso   1.00
C847   C     0.24433   0.57738   0.02000   0.00000  Uiso   1.00
C848   C     0.07738   0.74432   0.98000   0.00000  Uiso   1.00
H849   H     0.00494   0.81664   0.40134   0.00000  Uiso   1.00
H850   H     0.25494   0.93336   0.09866   0.00000  Uiso   1.00
H851   H     0.35570   0.72570   0.01947   0.00000  Uiso   1.00
H852   H     0.32171   0.66256   0.90752   0.00000  Uiso   1.00
H853   H     0.33919   0.67604   0.95621   0.00000  Uiso   1.00
H854   H     0.37267   0.64544   0.92465   0.00000  Uiso   1.00
H855   H     0.33849   0.60010   0.97470   0.00000  Uiso   1.00
H856   H     0.32296   0.58594   0.92607   0.00000  Uiso   1.00
H857   H     0.25426   0.62633   0.93527   0.00000  Uiso   1.00
H858   H     0.27426   0.64431   0.98051   0.00000  Uiso   1.00
H859   H     0.32171   0.83739   0.09244   0.00000  Uiso   1.00
H860   H     0.33923   0.82399   0.04373   0.00000  Uiso   1.00
H861   H     0.43336   0.75494   0.90134   0.00000  Uiso   1.00
H862   H     0.37267   0.85456   0.07535   0.00000  Uiso   1.00
H863   H     0.33848   0.89994   0.02533   0.00000  Uiso   1.00
H864   H     0.32294   0.91404   0.07396   0.00000  Uiso   1.00
H865   H     0.25425   0.87366   0.06472   0.00000  Uiso   1.00
H866   H     0.27427   0.85570   0.01948   0.00000  Uiso   1.00
H867   H     0.33743   0.82169   0.90752   0.00000  Uiso   1.00
H868   H     0.32395   0.83915   0.95622   0.00000  Uiso   1.00
H869   H     0.35453   0.87265   0.92467   0.00000  Uiso   1.00
H870   H     0.39989   0.83846   0.97470   0.00000  Uiso   1.00
H871   H     0.41405   0.82294   0.92608   0.00000  Uiso   1.00
H872   H     0.06664   0.75495   0.09866   0.00000  Uiso   1.00
H873   H     0.37367   0.75423   0.93528   0.00000  Uiso   1.00
H874   H     0.35569   0.77423   0.98051   0.00000  Uiso   1.00
H875   H     0.16255   0.82173   0.09249   0.00000  Uiso   1.00
H876   H     0.17603   0.83919   0.04379   0.00000  Uiso   1.00
H877   H     0.14544   0.87268   0.07533   0.00000  Uiso   1.00
H878   H     0.10010   0.83848   0.02530   0.00000  Uiso   1.00
H879   H     0.08594   0.82296   0.07392   0.00000  Uiso   1.00
H880   H     0.12633   0.75426   0.06473   0.00000  Uiso   1.00
H881   H     0.14431   0.77426   0.01949   0.00000  Uiso   1.00
H882   H     0.24505   0.93336   0.90134   0.00000  Uiso   1.00
H883   H     0.24506   0.56664   0.09866   0.00000  Uiso   1.00
H884   H     0.06664   0.74506   0.90134   0.00000  Uiso   1.00
H885   H     0.43336   0.74506   0.09866   0.00000  Uiso   1.00
H886   H     0.42832   0.58746   0.40749   0.00000  Uiso   1.00
H887   H     0.41086   0.57394   0.45618   0.00000  Uiso   1.00
H888   H     0.37736   0.60454   0.42464   0.00000  Uiso   1.00
H889   H     0.00495   0.68336   0.59866   0.00000  Uiso   1.00
H890   H     0.41153   0.64986   0.47470   0.00000  Uiso   1.00
H891   H     0.42706   0.66406   0.42608   0.00000  Uiso   1.00
H892   H     0.49577   0.62367   0.43528   0.00000  Uiso   1.00
H893   H     0.47577   0.60569   0.48051   0.00000  Uiso   1.00
H894   H     0.42828   0.91256   0.59248   0.00000  Uiso   1.00
H895   H     0.41081   0.92603   0.54378   0.00000  Uiso   1.00
H896   H     0.37732   0.89544   0.57533   0.00000  Uiso   1.00
H897   H     0.41152   0.85009   0.52530   0.00000  Uiso   1.00
H898   H     0.42704   0.83594   0.57393   0.00000  Uiso   1.00
H899   H     0.49574   0.87633   0.56472   0.00000  Uiso   1.00
H900   H     0.18336   0.50495   0.40134   0.00000  Uiso   1.00
H901   H     0.47574   0.89431   0.51949   0.00000  Uiso   1.00
H902   H     0.41258   0.92829   0.40754   0.00000  Uiso   1.00
H903   H     0.42604   0.91082   0.45624   0.00000  Uiso   1.00
H904   H     0.39545   0.87733   0.42467   0.00000  Uiso   1.00
H905   H     0.35010   0.91153   0.47470   0.00000  Uiso   1.00
H906   H     0.33595   0.92705   0.42607   0.00000  Uiso   1.00
H907   H     0.37633   0.99575   0.43528   0.00000  Uiso   1.00
H908   H     0.39431   0.97576   0.48052   0.00000  Uiso   1.00
H909   H     0.08746   0.92829   0.59250   0.00000  Uiso   1.00
H910   H     0.07395   0.91084   0.54380   0.00000  Uiso   1.00
H911   H     0.31664   0.50494   0.59866   0.00000  Uiso   1.00
H912   H     0.10455   0.87733   0.57533   0.00000  Uiso   1.00
H913   H     0.14988   0.91152   0.52529   0.00000  Uiso   1.00
H914   H     0.16406   0.92705   0.57392   0.00000  Uiso   1.00
H915   H     0.12367   0.99575   0.56472   0.00000  Uiso   1.00
H916   H     0.10569   0.97575   0.51949   0.00000  Uiso   1.00
H917   H     0.07171   0.91257   0.40753   0.00000  Uiso   1.00
H918   H     0.08918   0.92604   0.45623   0.00000  Uiso   1.00
H919   H     0.12267   0.89545   0.42466   0.00000  Uiso   1.00
H920   H     0.08848   0.85010   0.47470   0.00000  Uiso   1.00
H921   H     0.07295   0.83595   0.42607   0.00000  Uiso   1.00
H922   H     0.49506   0.68336   0.40134   0.00000  Uiso   1.00
H923   H     0.00425   0.87633   0.43528   0.00000  Uiso   1.00
H924   H     0.02425   0.89431   0.48051   0.00000  Uiso   1.00
H925   H     0.07173   0.58742   0.59246   0.00000  Uiso   1.00
H926   H     0.08922   0.57398   0.54375   0.00000  Uiso   1.00
H927   H     0.12269   0.60457   0.57534   0.00000  Uiso   1.00
H928   H     0.08849   0.64993   0.52532   0.00000  Uiso   1.00
H929   H     0.07295   0.66405   0.57395   0.00000  Uiso   1.00
H930   H     0.00426   0.62366   0.56472   0.00000  Uiso   1.00
H931   H     0.02427   0.60569   0.51948   0.00000  Uiso   1.00
H932   H     0.08747   0.57171   0.40749   0.00000  Uiso   1.00
H933   H     0.49505   0.81664   0.59866   0.00000  Uiso   1.00
H934   H     0.07395   0.58916   0.45618   0.00000  Uiso   1.00
H935   H     0.10455   0.62267   0.42466   0.00000  Uiso   1.00
H936   H     0.14988   0.58848   0.47471   0.00000  Uiso   1.00
H937   H     0.16407   0.57296   0.42609   0.00000  Uiso   1.00
H938   H     0.12367   0.50425   0.43527   0.00000  Uiso   1.00
H939   H     0.10569   0.52425   0.48051   0.00000  Uiso   1.00
H940   H     0.41261   0.57173   0.59243   0.00000  Uiso   1.00
H941   H     0.42600   0.58925   0.54373   0.00000  Uiso   1.00
H942   H     0.39543   0.62269   0.57534   0.00000  Uiso   1.00
H943   H     0.35005   0.58849   0.52533   0.00000  Uiso   1.00
H944   H     0.31664   0.99506   0.40134   0.00000  Uiso   1.00
H945   H     0.33595   0.57294   0.57396   0.00000  Uiso   1.00
H946   H     0.37634   0.50426   0.56471   0.00000  Uiso   1.00
H947   H     0.39430   0.52428   0.51948   0.00000  Uiso   1.00
H948   H     0.17829   0.83744   0.90752   0.00000  Uiso   1.00
H949   H     0.16082   0.82396   0.95622   0.00000  Uiso   1.00
H950   H     0.12733   0.85455   0.92467   0.00000  Uiso   1.00
H951   H     0.16152   0.89990   0.97470   0.00000  Uiso   1.00
H952   H     0.17705   0.91405   0.92607   0.00000  Uiso   1.00
H953   H     0.24575   0.87367   0.93528   0.00000  Uiso   1.00
H954   H     0.22575   0.85569   0.98051   0.00000  Uiso   1.00
H955   H     0.18336   0.99505   0.59866   0.00000  Uiso   1.00
H956   H     0.17830   0.66256   0.09249   0.00000  Uiso   1.00
H957   H     0.16084   0.67605   0.04379   0.00000  Uiso   1.00
H958   H     0.12734   0.64546   0.07534   0.00000  Uiso   1.00
H959   H     0.16153   0.60012   0.02530   0.00000  Uiso   1.00
H960   H     0.17705   0.58595   0.07392   0.00000  Uiso   1.00
H961   H     0.24576   0.62633   0.06473   0.00000  Uiso   1.00
H962   H     0.22576   0.64431   0.01949   0.00000  Uiso   1.00
H963   H     0.16257   0.67830   0.90752   0.00000  Uiso   1.00
H964   H     0.17605   0.66083   0.95622   0.00000  Uiso   1.00
H965   H     0.14546   0.62734   0.92466   0.00000  Uiso   1.00
H966   H     0.25495   0.56664   0.90134   0.00000  Uiso   1.00
H967   H     0.10010   0.66152   0.97469   0.00000  Uiso   1.00
H968   H     0.08595   0.67705   0.92607   0.00000  Uiso   1.00
H969   H     0.12634   0.74576   0.93528   0.00000  Uiso   1.00
H970   H     0.14431   0.72575   0.98051   0.00000  Uiso   1.00
H971   H     0.33734   0.67826   0.09237   0.00000  Uiso   1.00
H972   H     0.32403   0.66069   0.04366   0.00000  Uiso   1.00
H973   H     0.35458   0.62729   0.07533   0.00000  Uiso   1.00
H974   H     0.39999   0.66150   0.02534   0.00000  Uiso   1.00
H975   H     0.41403   0.67706   0.07399   0.00000  Uiso   1.00
H976   H     0.37366   0.74573   0.06471   0.00000  Uiso   1.00
O977   O     0.25000   0.50000   0.25000   0.00000  Uiso   1.00
O978   O     0.25000   0.96538   0.66251   0.00000  Uiso   1.00
O979   O     0.46538   0.75000   0.33749   0.00000  Uiso   1.00
O980   O     0.03461   0.75000   0.66251   0.00000  Uiso   1.00
O981   O     0.00000   0.71538   0.83749   0.00000  Uiso   1.00
O982   O     0.00000   0.78461   0.16251   0.00000  Uiso   1.00
O983   O     0.28461   0.50000   0.83749   0.00000  Uiso   1.00
O984   O     0.21538   0.50000   0.16251   0.00000  Uiso   1.00
O985   O     0.00000   0.78461   0.83749   0.00000  Uiso   1.00
O986   O     0.00000   0.71538   0.16251   0.00000  Uiso   1.00
O987   O     0.21538   0.50000   0.83749   0.00000  Uiso   1.00
O988   O     0.25000   0.50000   0.75000   0.00000  Uiso   1.00
O989   O     0.28461   0.50000   0.16251   0.00000  Uiso   1.00
O990   O     0.20126   0.58332   0.27298   0.00000  Uiso   1.00
O991   O     0.29873   0.91668   0.72702   0.00000  Uiso   1.00
O992   O     0.41668   0.70126   0.27298   0.00000  Uiso   1.00
O993   O     0.08332   0.79873   0.72702   0.00000  Uiso   1.00
O994   O     0.29873   0.91668   0.27298   0.00000  Uiso   1.00
O995   O     0.20126   0.58332   0.72702   0.00000  Uiso   1.00
O996   O     0.08332   0.79873   0.27298   0.00000  Uiso   1.00
O997   O     0.41668   0.70126   0.72702   0.00000  Uiso   1.00
O998   O     0.20126   0.91668   0.72702   0.00000  Uiso   1.00
O999   O     0.00000   0.75000   0.25000   0.00000  Uiso   1.00
O1000  O     0.29873   0.58332   0.27298   0.00000  Uiso   1.00
O1001  O     0.41668   0.79873   0.72702   0.00000  Uiso   1.00
O1002  O     0.08332   0.70126   0.27298   0.00000  Uiso   1.00
O1003  O     0.29873   0.58332   0.72702   0.00000  Uiso   1.00
O1004  O     0.20126   0.91668   0.27298   0.00000  Uiso   1.00
O1005  O     0.08332   0.70126   0.72702   0.00000  Uiso   1.00
O1006  O     0.41668   0.79873   0.27298   0.00000  Uiso   1.00
O1007  O     0.45126   0.83332   0.77298   0.00000  Uiso   1.00
O1008  O     0.04873   0.66668   0.22702   0.00000  Uiso   1.00
O1009  O     0.16668   0.95126   0.77298   0.00000  Uiso   1.00
O1010  O     0.00000   0.75000   0.75000   0.00000  Uiso   1.00
O1011  O     0.33332   0.54873   0.22702   0.00000  Uiso   1.00
O1012  O     0.04873   0.66668   0.77298   0.00000  Uiso   1.00
O1013  O     0.45126   0.83332   0.22702   0.00000  Uiso   1.00
O1014  O     0.33332   0.54873   0.77298   0.00000  Uiso   1.00
O1015  O     0.16668   0.95126   0.22702   0.00000  Uiso   1.00
O1016  O     0.45126   0.66668   0.22702   0.00000  Uiso   1.00
O1017  O     0.04873   0.83332   0.77298   0.00000  Uiso   1.00
O1018  O     0.16668   0.54873   0.22702   0.00000  Uiso   1.00
O1019  O     0.33332   0.95126   0.77298   0.00000  Uiso   1.00
O1020  O     0.04873   0.83332   0.22702   0.00000  Uiso   1.00
O1021  O     0.25000   0.96538   0.33749   0.00000  Uiso   1.00
O1022  O     0.45126   0.66668   0.77298   0.00000  Uiso   1.00
O1023  O     0.33332   0.95126   0.22702   0.00000  Uiso   1.00
O1024  O     0.16668   0.54873   0.77298   0.00000  Uiso   1.00
O1025  O     0.25000   0.53461   0.66251   0.00000  Uiso   1.00
O1026  O     0.03461   0.75000   0.33749   0.00000  Uiso   1.00
O1027  O     0.46538   0.75000   0.66251   0.00000  Uiso   1.00
O1028  O     0.25000   0.53461   0.33749   0.00000  Uiso   1.00
Zn1029 Zn    0.20052   0.50000   0.21730   0.00000  Uiso   1.00
Zn1030 Zn    0.04947   0.75000   0.28270   0.00000  Uiso   1.00
Zn1031 Zn    0.25000   0.95052   0.71730   0.00000  Uiso   1.00
Zn1032 Zn    0.25000   0.54947   0.28270   0.00000  Uiso   1.00
Zn1033 Zn    0.04947   0.75000   0.71730   0.00000  Uiso   1.00
Zn1034 Zn    0.45052   0.75000   0.28270   0.00000  Uiso   1.00
Zn1035 Zn    0.25000   0.54947   0.71730   0.00000  Uiso   1.00
Zn1036 Zn    0.25000   0.95052   0.28270   0.00000  Uiso   1.00
Zn1037 Zn    0.29947   0.50000   0.78270   0.00000  Uiso   1.00
Zn1038 Zn    0.00000   0.70052   0.21730   0.00000  Uiso   1.00
Zn1039 Zn    0.00000   0.79947   0.78270   0.00000  Uiso   1.00
Zn1040 Zn    0.29947   0.50000   0.21730   0.00000  Uiso   1.00
Zn1041 Zn    0.20052   0.50000   0.78270   0.00000  Uiso   1.00
Zn1042 Zn   -0.00000   0.79947   0.21730   0.00000  Uiso   1.00
Zn1043 Zn    0.00000   0.70052   0.78270   0.00000  Uiso   1.00
Zn1044 Zn    0.45052   0.75000   0.71730   0.00000  Uiso   1.00
C1045  C     0.75000   0.50000   0.35595   0.00000  Uiso   1.00
C1046  C     0.83004   0.91996   0.75000   0.00000  Uiso   1.00
C1047  C     0.92262   0.74430   0.02000   0.00000  Uiso   1.00
C1048  C     0.75568   0.57738   0.98000   0.00000  Uiso   1.00
C1049  C     0.75568   0.92262   0.02000   0.00000  Uiso   1.00
C1050  C     0.92262   0.75566   0.98000   0.00000  Uiso   1.00
C1051  C     0.57738   0.75568   0.02000   0.00000  Uiso   1.00
C1052  C     0.97628   0.63303   0.46069   0.00000  Uiso   1.00
C1053  C     0.92995   0.63945   0.44887   0.00000  Uiso   1.00
C1054  C     0.91055   0.59873   0.43333   0.00000  Uiso   1.00
C1055  C     0.97626   0.86696   0.53931   0.00000  Uiso   1.00
C1056  C     0.92992   0.86053   0.55113   0.00000  Uiso   1.00
C1057  C     0.91996   0.66996   0.25000   0.00000  Uiso   1.00
C1058  C     0.91051   0.90126   0.56664   0.00000  Uiso   1.00
C1059  C     0.86697   0.97627   0.46069   0.00000  Uiso   1.00
C1060  C     0.86054   0.92993   0.44887   0.00000  Uiso   1.00
C1061  C     0.90126   0.91052   0.43337   0.00000  Uiso   1.00
C1062  C     0.63303   0.97626   0.53931   0.00000  Uiso   1.00
C1063  C     0.63946   0.92993   0.55112   0.00000  Uiso   1.00
C1064  C     0.59874   0.91052   0.56665   0.00000  Uiso   1.00
C1065  C     0.52374   0.86697   0.46069   0.00000  Uiso   1.00
C1066  C     0.57007   0.86054   0.44887   0.00000  Uiso   1.00
C1067  C     0.58948   0.90126   0.43336   0.00000  Uiso   1.00
C1068  C     0.58004   0.83004   0.75000   0.00000  Uiso   1.00
C1069  C     0.52375   0.63304   0.53931   0.00000  Uiso   1.00
C1070  C     0.57008   0.63947   0.55113   0.00000  Uiso   1.00
C1071  C     0.58950   0.59875   0.56663   0.00000  Uiso   1.00
C1072  C     0.63303   0.52374   0.46069   0.00000  Uiso   1.00
C1073  C     0.63946   0.57007   0.44887   0.00000  Uiso   1.00
C1074  C     0.59874   0.58948   0.43334   0.00000  Uiso   1.00
C1075  C     0.86696   0.52375   0.53931   0.00000  Uiso   1.00
C1076  C     0.86052   0.57008   0.55114   0.00000  Uiso   1.00
C1077  C     0.90125   0.58951   0.56662   0.00000  Uiso   1.00
C1078  C     0.72626   0.88303   0.96069   0.00000  Uiso   1.00
C1079  C     0.83004   0.91996   0.25000   0.00000  Uiso   1.00
C1080  C     0.67993   0.88946   0.94887   0.00000  Uiso   1.00
C1081  C     0.66052   0.84874   0.93336   0.00000  Uiso   1.00
C1082  C     0.72627   0.61697   0.03931   0.00000  Uiso   1.00
C1083  C     0.67994   0.61054   0.05113   0.00000  Uiso   1.00
C1084  C     0.66053   0.65127   0.06665   0.00000  Uiso   1.00
C1085  C     0.61697   0.72626   0.96069   0.00000  Uiso   1.00
C1086  C     0.61054   0.67993   0.94887   0.00000  Uiso   1.00
C1087  C     0.65127   0.66053   0.93336   0.00000  Uiso   1.00
C1088  C     0.88304   0.72623   0.03930   0.00000  Uiso   1.00
C1089  C     0.88949   0.67991   0.05114   0.00000  Uiso   1.00
C1090  C     0.66996   0.58004   0.75000   0.00000  Uiso   1.00
C1091  C     0.84874   0.66046   0.06658   0.00000  Uiso   1.00
C1092  C     0.77375   0.61697   0.96069   0.00000  Uiso   1.00
C1093  C     0.82008   0.61053   0.94887   0.00000  Uiso   1.00
C1094  C     0.83949   0.65126   0.93335   0.00000  Uiso   1.00
C1095  C     0.77375   0.88304   0.03931   0.00000  Uiso   1.00
C1096  C     0.82007   0.88947   0.05114   0.00000  Uiso   1.00
C1097  C     0.83950   0.84874   0.06662   0.00000  Uiso   1.00
C1098  C     0.88303   0.77372   0.96069   0.00000  Uiso   1.00
C1099  C     0.88945   0.82005   0.94888   0.00000  Uiso   1.00
C1100  C     0.84873   0.83946   0.93336   0.00000  Uiso   1.00
C1101  C     0.58004   0.83004   0.25000   0.00000  Uiso   1.00
C1102  C     0.61696   0.77374   0.03931   0.00000  Uiso   1.00
C1103  C     0.61053   0.82007   0.05113   0.00000  Uiso   1.00
C1104  C     0.65125   0.83949   0.06665   0.00000  Uiso   1.00
C1105  C     0.91996   0.66996   0.75000   0.00000  Uiso   1.00
C1106  C     0.66996   0.91996   0.75000   0.00000  Uiso   1.00
C1107  C     0.83004   0.58004   0.25000   0.00000  Uiso   1.00
C1108  C     0.91996   0.83004   0.75000   0.00000  Uiso   1.00
C1109  C     0.75000   0.50000   0.64405   0.00000  Uiso   1.00
C1110  C     0.58004   0.66996   0.25000   0.00000  Uiso   1.00
C1111  C     0.83004   0.58004   0.75000   0.00000  Uiso   1.00
C1112  C     0.66996   0.91996   0.25000   0.00000  Uiso   1.00
C1113  C     0.58004   0.66996   0.75000   0.00000  Uiso   1.00
C1114  C     0.91996   0.83004   0.25000   0.00000  Uiso   1.00
C1115  C     0.63833   0.88833   0.25000   0.00000  Uiso   1.00
C1116  C     0.86167   0.61167   0.75000   0.00000  Uiso   1.00
C1117  C     0.61167   0.63833   0.25000   0.00000  Uiso   1.00
C1118  C     0.88833   0.86167   0.75000   0.00000  Uiso   1.00
C1119  C     0.86167   0.61167   0.25000   0.00000  Uiso   1.00
C1120  C     0.50000   0.75000   0.35595   0.00000  Uiso   1.00
C1121  C     0.63833   0.88833   0.75000   0.00000  Uiso   1.00
C1122  C     0.88833   0.86167   0.25000   0.00000  Uiso   1.00
C1123  C     0.61167   0.63833   0.75000   0.00000  Uiso   1.00
C1124  C     0.63833   0.61167   0.75000   0.00000  Uiso   1.00
C1125  C     0.86167   0.88833   0.25000   0.00000  Uiso   1.00
C1126  C     0.61167   0.86167   0.75000   0.00000  Uiso   1.00
C1127  C     0.88833   0.63833   0.25000   0.00000  Uiso   1.00
C1128  C     0.86167   0.88833   0.75000   0.00000  Uiso   1.00
C1129  C     0.63833   0.61167   0.25000   0.00000  Uiso   1.00
C1130  C     0.88833   0.63833   0.75000   0.00000  Uiso   1.00
C1131  C     0.50000   0.75000   0.64405   0.00000  Uiso   1.00
C1132  C     0.61167   0.86167   0.25000   0.00000  Uiso   1.00
C1133  C     0.50341   0.78794   0.41826   0.00000  Uiso   1.00
C1134  C     0.50342   0.71206   0.58174   0.00000  Uiso   1.00
C1135  C     0.71206   0.50342   0.41826   0.00000  Uiso   1.00
C1136  C     0.78794   0.50341   0.58174   0.00000  Uiso   1.00
C1137  C     0.99659   0.71206   0.41826   0.00000  Uiso   1.00
C1138  C     0.99658   0.78794   0.58174   0.00000  Uiso   1.00
C1139  C     0.78794   0.99659   0.41826   0.00000  Uiso   1.00
C1140  C     0.71206   0.99659   0.58174   0.00000  Uiso   1.00
C1141  C     0.75342   0.53794   0.91826   0.00000  Uiso   1.00
C1142  C     0.50000   0.75000   0.85595   0.00000  Uiso   1.00
C1143  C     0.75341   0.96206   0.08174   0.00000  Uiso   1.00
C1144  C     0.96206   0.75341   0.91826   0.00000  Uiso   1.00
C1145  C     0.53794   0.75341   0.08174   0.00000  Uiso   1.00
C1146  C     0.74659   0.96206   0.91826   0.00000  Uiso   1.00
C1147  C     0.74659   0.53794   0.08174   0.00000  Uiso   1.00
C1148  C     0.53794   0.74659   0.91826   0.00000  Uiso   1.00
C1149  C     0.96206   0.74658   0.08174   0.00000  Uiso   1.00
C1150  C     0.50000   0.75000   0.39824   0.00000  Uiso   1.00
C1151  C     0.50000   0.75000   0.60175   0.00000  Uiso   1.00
C1152  C     0.75000   0.50000   0.39824   0.00000  Uiso   1.00
C1153  C     0.50000   0.75000   0.14405   0.00000  Uiso   1.00
C1154  C     0.75000   0.50000   0.60175   0.00000  Uiso   1.00
C1155  C     0.75000   0.50000   0.89824   0.00000  Uiso   1.00
C1156  C     0.75000   0.50000   0.10176   0.00000  Uiso   1.00
C1157  C     0.50000   0.75000   0.89824   0.00000  Uiso   1.00
C1158  C     0.50000   0.75000   0.10176   0.00000  Uiso   1.00
C1159  C     0.99662   0.71124   0.45916   0.00000  Uiso   1.00
C1160  C     0.99662   0.78876   0.54084   0.00000  Uiso   1.00
C1161  C     0.78875   0.99662   0.45916   0.00000  Uiso   1.00
C1162  C     0.71124   0.99662   0.54084   0.00000  Uiso   1.00
C1163  C     0.50338   0.78876   0.45916   0.00000  Uiso   1.00
C1164  C     0.75000   0.50000   0.85595   0.00000  Uiso   1.00
C1165  C     0.50339   0.71124   0.54084   0.00000  Uiso   1.00
C1166  C     0.71124   0.50338   0.45916   0.00000  Uiso   1.00
C1167  C     0.78875   0.50338   0.54084   0.00000  Uiso   1.00
C1168  C     0.74662   0.96125   0.95916   0.00000  Uiso   1.00
C1169  C     0.74662   0.53876   0.04084   0.00000  Uiso   1.00
C1170  C     0.53876   0.74662   0.95916   0.00000  Uiso   1.00
C1171  C     0.96125   0.74661   0.04084   0.00000  Uiso   1.00
C1172  C     0.75339   0.53876   0.95916   0.00000  Uiso   1.00
C1173  C     0.75338   0.96125   0.04084   0.00000  Uiso   1.00
C1174  C     0.96124   0.75337   0.95916   0.00000  Uiso   1.00
C1175  C     0.75000   0.50000   0.14405   0.00000  Uiso   1.00
C1176  C     0.53876   0.75338   0.04084   0.00000  Uiso   1.00
C1177  C     0.50000   0.75000   0.47958   0.00000  Uiso   1.00
C1178  C     0.50000   0.75000   0.52042   0.00000  Uiso   1.00
C1179  C     0.75000   0.50000   0.47958   0.00000  Uiso   1.00
C1180  C     0.75000   0.50000   0.52042   0.00000  Uiso   1.00
C1181  C     0.75000   0.50000   0.97958   0.00000  Uiso   1.00
C1182  C     0.75000   0.50000   0.02042   0.00000  Uiso   1.00
C1183  C     0.50000   0.74999   0.97958   0.00000  Uiso   1.00
C1184  C     0.50000   0.74999   0.02042   0.00000  Uiso   1.00
C1185  C     0.99433   0.67262   0.48000   0.00000  Uiso   1.00
C1186  C     0.66996   0.58004   0.25000   0.00000  Uiso   1.00
C1187  C     0.99432   0.82738   0.52000   0.00000  Uiso   1.00
C1188  C     0.82738   0.99433   0.48000   0.00000  Uiso   1.00
C1189  C     0.67262   0.99432   0.52000   0.00000  Uiso   1.00
C1190  C     0.50568   0.82738   0.48000   0.00000  Uiso   1.00
C1191  C     0.50569   0.67262   0.52000   0.00000  Uiso   1.00
C1192  C     0.67262   0.50568   0.48000   0.00000  Uiso   1.00
C1193  C     0.82738   0.50569   0.52000   0.00000  Uiso   1.00
C1194  C     0.74432   0.92262   0.98000   0.00000  Uiso   1.00
C1195  C     0.74433   0.57738   0.02000   0.00000  Uiso   1.00
C1196  C     0.57738   0.74432   0.98000   0.00000  Uiso   1.00
H1197  H     0.50494   0.81664   0.40134   0.00000  Uiso   1.00
H1198  H     0.75494   0.93336   0.09866   0.00000  Uiso   1.00
H1199  H     0.85570   0.72570   0.01947   0.00000  Uiso   1.00
H1200  H     0.82171   0.66256   0.90752   0.00000  Uiso   1.00
H1201  H     0.83919   0.67604   0.95621   0.00000  Uiso   1.00
H1202  H     0.87267   0.64544   0.92465   0.00000  Uiso   1.00
H1203  H     0.83849   0.60010   0.97470   0.00000  Uiso   1.00
H1204  H     0.82296   0.58594   0.92607   0.00000  Uiso   1.00
H1205  H     0.75426   0.62633   0.93527   0.00000  Uiso   1.00
H1206  H     0.77426   0.64431   0.98051   0.00000  Uiso   1.00
H1207  H     0.82171   0.83739   0.09244   0.00000  Uiso   1.00
H1208  H     0.83923   0.82399   0.04373   0.00000  Uiso   1.00
H1209  H     0.93336   0.75494   0.90134   0.00000  Uiso   1.00
H1210  H     0.87267   0.85456   0.07535   0.00000  Uiso   1.00
H1211  H     0.83848   0.89994   0.02533   0.00000  Uiso   1.00
H1212  H     0.82294   0.91404   0.07396   0.00000  Uiso   1.00
H1213  H     0.75425   0.87366   0.06472   0.00000  Uiso   1.00
H1214  H     0.77427   0.85570   0.01948   0.00000  Uiso   1.00
H1215  H     0.83743   0.82169   0.90752   0.00000  Uiso   1.00
H1216  H     0.82395   0.83915   0.95622   0.00000  Uiso   1.00
H1217  H     0.85453   0.87265   0.92467   0.00000  Uiso   1.00
H1218  H     0.89989   0.83846   0.97470   0.00000  Uiso   1.00
H1219  H     0.91405   0.82294   0.92608   0.00000  Uiso   1.00
H1220  H     0.56664   0.75495   0.09866   0.00000  Uiso   1.00
H1221  H     0.87367   0.75423   0.93528   0.00000  Uiso   1.00
H1222  H     0.85569   0.77423   0.98051   0.00000  Uiso   1.00
H1223  H     0.66255   0.82173   0.09249   0.00000  Uiso   1.00
H1224  H     0.67603   0.83919   0.04379   0.00000  Uiso   1.00
H1225  H     0.64544   0.87268   0.07533   0.00000  Uiso   1.00
H1226  H     0.60010   0.83848   0.02530   0.00000  Uiso   1.00
H1227  H     0.58594   0.82296   0.07392   0.00000  Uiso   1.00
H1228  H     0.62633   0.75426   0.06473   0.00000  Uiso   1.00
H1229  H     0.64431   0.77426   0.01949   0.00000  Uiso   1.00
H1230  H     0.74505   0.93336   0.90134   0.00000  Uiso   1.00
H1231  H     0.74506   0.56664   0.09866   0.00000  Uiso   1.00
H1232  H     0.56664   0.74506   0.90134   0.00000  Uiso   1.00
H1233  H     0.93336   0.74506   0.09866   0.00000  Uiso   1.00
H1234  H     0.92832   0.58746   0.40749   0.00000  Uiso   1.00
H1235  H     0.91086   0.57394   0.45618   0.00000  Uiso   1.00
H1236  H     0.87736   0.60454   0.42464   0.00000  Uiso   1.00
H1237  H     0.50495   0.68336   0.59866   0.00000  Uiso   1.00
H1238  H     0.91153   0.64986   0.47470   0.00000  Uiso   1.00
H1239  H     0.92706   0.66406   0.42608   0.00000  Uiso   1.00
H1240  H     0.99577   0.62367   0.43528   0.00000  Uiso   1.00
H1241  H     0.97577   0.60569   0.48051   0.00000  Uiso   1.00
H1242  H     0.92828   0.91256   0.59248   0.00000  Uiso   1.00
H1243  H     0.91081   0.92603   0.54378   0.00000  Uiso   1.00
H1244  H     0.87732   0.89544   0.57533   0.00000  Uiso   1.00
H1245  H     0.91152   0.85009   0.52530   0.00000  Uiso   1.00
H1246  H     0.92704   0.83594   0.57393   0.00000  Uiso   1.00
H1247  H     0.99574   0.87633   0.56472   0.00000  Uiso   1.00
H1248  H     0.68336   0.50495   0.40134   0.00000  Uiso   1.00
H1249  H     0.97574   0.89431   0.51949   0.00000  Uiso   1.00
H1250  H     0.91258   0.92829   0.40754   0.00000  Uiso   1.00
H1251  H     0.92604   0.91082   0.45624   0.00000  Uiso   1.00
H1252  H     0.89545   0.87733   0.42467   0.00000  Uiso   1.00
H1253  H     0.85010   0.91153   0.47470   0.00000  Uiso   1.00
H1254  H     0.83595   0.92705   0.42607   0.00000  Uiso   1.00
H1255  H     0.87633   0.99575   0.43528   0.00000  Uiso   1.00
H1256  H     0.89431   0.97576   0.48052   0.00000  Uiso   1.00
H1257  H     0.58746   0.92829   0.59250   0.00000  Uiso   1.00
H1258  H     0.57395   0.91084   0.54380   0.00000  Uiso   1.00
H1259  H     0.81664   0.50494   0.59866   0.00000  Uiso   1.00
H1260  H     0.60455   0.87733   0.57533   0.00000  Uiso   1.00
H1261  H     0.64988   0.91152   0.52529   0.00000  Uiso   1.00
H1262  H     0.66406   0.92705   0.57392   0.00000  Uiso   1.00
H1263  H     0.62367   0.99575   0.56472   0.00000  Uiso   1.00
H1264  H     0.60569   0.97575   0.51949   0.00000  Uiso   1.00
H1265  H     0.57171   0.91257   0.40753   0.00000  Uiso   1.00
H1266  H     0.58918   0.92604   0.45623   0.00000  Uiso   1.00
H1267  H     0.62267   0.89545   0.42466   0.00000  Uiso   1.00
H1268  H     0.58848   0.85010   0.47470   0.00000  Uiso   1.00
H1269  H     0.57295   0.83595   0.42607   0.00000  Uiso   1.00
H1270  H     0.99506   0.68336   0.40134   0.00000  Uiso   1.00
H1271  H     0.50425   0.87633   0.43528   0.00000  Uiso   1.00
H1272  H     0.52425   0.89431   0.48051   0.00000  Uiso   1.00
H1273  H     0.57173   0.58742   0.59246   0.00000  Uiso   1.00
H1274  H     0.58922   0.57398   0.54375   0.00000  Uiso   1.00
H1275  H     0.62269   0.60457   0.57534   0.00000  Uiso   1.00
H1276  H     0.58849   0.64993   0.52532   0.00000  Uiso   1.00
H1277  H     0.57295   0.66405   0.57395   0.00000  Uiso   1.00
H1278  H     0.50426   0.62366   0.56472   0.00000  Uiso   1.00
H1279  H     0.52427   0.60569   0.51948   0.00000  Uiso   1.00
H1280  H     0.58747   0.57171   0.40749   0.00000  Uiso   1.00
H1281  H     0.99505   0.81664   0.59866   0.00000  Uiso   1.00
H1282  H     0.57395   0.58916   0.45618   0.00000  Uiso   1.00
H1283  H     0.60455   0.62267   0.42466   0.00000  Uiso   1.00
H1284  H     0.64988   0.58848   0.47471   0.00000  Uiso   1.00
H1285  H     0.66407   0.57296   0.42609   0.00000  Uiso   1.00
H1286  H     0.62367   0.50425   0.43527   0.00000  Uiso   1.00
H1287  H     0.60569   0.52425   0.48051   0.00000  Uiso   1.00
H1288  H     0.91261   0.57173   0.59243   0.00000  Uiso   1.00
H1289  H     0.92600   0.58925   0.54373   0.00000  Uiso   1.00
H1290  H     0.89543   0.62269   0.57534   0.00000  Uiso   1.00
H1291  H     0.85005   0.58849   0.52533   0.00000  Uiso   1.00
H1292  H     0.81664   0.99506   0.40134   0.00000  Uiso   1.00
H1293  H     0.83595   0.57294   0.57396   0.00000  Uiso   1.00
H1294  H     0.87634   0.50426   0.56471   0.00000  Uiso   1.00
H1295  H     0.89430   0.52428   0.51948   0.00000  Uiso   1.00
H1296  H     0.67829   0.83744   0.90752   0.00000  Uiso   1.00
H1297  H     0.66082   0.82396   0.95622   0.00000  Uiso   1.00
H1298  H     0.62733   0.85455   0.92467   0.00000  Uiso   1.00
H1299  H     0.66152   0.89990   0.97470   0.00000  Uiso   1.00
H1300  H     0.67705   0.91405   0.92607   0.00000  Uiso   1.00
H1301  H     0.74575   0.87367   0.93528   0.00000  Uiso   1.00
H1302  H     0.72575   0.85569   0.98051   0.00000  Uiso   1.00
H1303  H     0.68336   0.99505   0.59866   0.00000  Uiso   1.00
H1304  H     0.67830   0.66256   0.09249   0.00000  Uiso   1.00
H1305  H     0.66084   0.67605   0.04379   0.00000  Uiso   1.00
H1306  H     0.62734   0.64546   0.07534   0.00000  Uiso   1.00
H1307  H     0.66153   0.60012   0.02530   0.00000  Uiso   1.00
H1308  H     0.67705   0.58595   0.07392   0.00000  Uiso   1.00
H1309  H     0.74576   0.62633   0.06473   0.00000  Uiso   1.00
H1310  H     0.72576   0.64431   0.01949   0.00000  Uiso   1.00
H1311  H     0.66257   0.67830   0.90752   0.00000  Uiso   1.00
H1312  H     0.67605   0.66083   0.95622   0.00000  Uiso   1.00
H1313  H     0.64546   0.62734   0.92466   0.00000  Uiso   1.00
H1314  H     0.75495   0.56664   0.90134   0.00000  Uiso   1.00
H1315  H     0.60010   0.66152   0.97469   0.00000  Uiso   1.00
H1316  H     0.58595   0.67705   0.92607   0.00000  Uiso   1.00
H1317  H     0.62634   0.74576   0.93528   0.00000  Uiso   1.00
H1318  H     0.64431   0.72575   0.98051   0.00000  Uiso   1.00
H1319  H     0.83734   0.67826   0.09237   0.00000  Uiso   1.00
H1320  H     0.82403   0.66069   0.04366   0.00000  Uiso   1.00
H1321  H     0.85458   0.62729   0.07533   0.00000  Uiso   1.00
H1322  H     0.89999   0.66150   0.02534   0.00000  Uiso   1.00
H1323  H     0.91403   0.67706   0.07399   0.00000  Uiso   1.00
H1324  H     0.87366   0.74573   0.06471   0.00000  Uiso   1.00
O1325  O     0.75000   0.50000   0.25000   0.00000  Uiso   1.00
O1326  O     0.75000   0.96538   0.66251   0.00000  Uiso   1.00
O1327  O     0.96538   0.75000   0.33749   0.00000  Uiso   1.00
O1328  O     0.53461   0.75000   0.66251   0.00000  Uiso   1.00
O1329  O     0.50000   0.71538   0.83749   0.00000  Uiso   1.00
O1330  O     0.50000   0.78461   0.16251   0.00000  Uiso   1.00
O1331  O     0.78461   0.50000   0.83749   0.00000  Uiso   1.00
O1332  O     0.71538   0.50000   0.16251   0.00000  Uiso   1.00
O1333  O     0.50000   0.78461   0.83749   0.00000  Uiso   1.00
O1334  O     0.50000   0.71538   0.16251   0.00000  Uiso   1.00
O1335  O     0.71538   0.50000   0.83749   0.00000  Uiso   1.00
O1336  O     0.75000   0.50000   0.75000   0.00000  Uiso   1.00
O1337  O     0.78461   0.50000   0.16251   0.00000  Uiso   1.00
O1338  O     0.70126   0.58332   0.27298   0.00000  Uiso   1.00
O1339  O     0.79873   0.91668   0.72702   0.00000  Uiso   1.00
O1340  O     0.91668   0.70126   0.27298   0.00000  Uiso   1.00
O1341  O     0.58332   0.79873   0.72702   0.00000  Uiso   1.00
O1342  O     0.79873   0.91668   0.27298   0.00000  Uiso   1.00
O1343  O     0.70126   0.58332   0.72702   0.00000  Uiso   1.00
O1344  O     0.58332   0.79873   0.27298   0.00000  Uiso   1.00
O1345  O     0.91668   0.70126   0.72702   0.00000  Uiso   1.00
O1346  O     0.70126   0.91668   0.72702   0.00000  Uiso   1.00
O1347  O     0.50000   0.75000   0.25000   0.00000  Uiso   1.00
O1348  O     0.79873   0.58332   0.27298   0.00000  Uiso   1.00
O1349  O     0.91668   0.79873   0.72702   0.00000  Uiso   1.00
O1350  O     0.58332   0.70126   0.27298   0.00000  Uiso   1.00
O1351  O     0.79873   0.58332   0.72702   0.00000  Uiso   1.00
O1352  O     0.70126   0.91668   0.27298   0.00000  Uiso   1.00
O1353  O     0.58332   0.70126   0.72702   0.00000  Uiso   1.00
O1354  O     0.91668   0.79873   0.27298   0.00000  Uiso   1.00
O1355  O     0.95126   0.83332   0.77298   0.00000  Uiso   1.00
O1356  O     0.54873   0.66668   0.22702   0.00000  Uiso   1.00
O1357  O     0.66668   0.95126   0.77298   0.00000  Uiso   1.00
O1358  O     0.50000   0.75000   0.75000   0.00000  Uiso   1.00
O1359  O     0.83332   0.54873   0.22702   0.00000  Uiso   1.00
O1360  O     0.54873   0.66668   0.77298   0.00000  Uiso   1.00
O1361  O     0.95126   0.83332   0.22702   0.00000  Uiso   1.00
O1362  O     0.83332   0.54873   0.77298   0.00000  Uiso   1.00
O1363  O     0.66668   0.95126   0.22702   0.00000  Uiso   1.00
O1364  O     0.95126   0.66668   0.22702   0.00000  Uiso   1.00
O1365  O     0.54873   0.83332   0.77298   0.00000  Uiso   1.00
O1366  O     0.66668   0.54873   0.22702   0.00000  Uiso   1.00
O1367  O     0.83332   0.95126   0.77298   0.00000  Uiso   1.00
O1368  O     0.54873   0.83332   0.22702   0.00000  Uiso   1.00
O1369  O     0.75000   0.96538   0.33749   0.00000  Uiso   1.00
O1370  O     0.95126   0.66668   0.77298   0.00000  Uiso   1.00
O1371  O     0.83332   0.95126   0.22702   0.00000  Uiso   1.00
O1372  O     0.66668   0.54873   0.77298   0.00000  Uiso   1.00
O1373  O     0.75000   0.53461   0.66251   0.00000  Uiso   1.00
O1374  O     0.53461   0.75000   0.33749   0.00000  Uiso   1.00
O1375  O     0.96538   0.75000   0.66251   0.00000  Uiso   1.00
O1376  O     0.75000   0.53461   0.33749   0.00000  Uiso   1.00
Zn1377 Zn    0.70052   0.50000   0.21730   0.00000  Uiso   1.00
Zn1378 Zn    0.54947   0.75000   0.28270   0.00000  Uiso   1.00
Zn1379 Zn    0.75000   0.95052   0.71730   0.00000  Uiso   1.00
Zn1380 Zn    0.75000   0.54947   0.28270   0.00000  Uiso   1.00
Zn1381 Zn    0.54947   0.75000   0.71730   0.00000  Uiso   1.00
Zn1382 Zn    0.95052   0.75000   0.28270   0.00000  Uiso   1.00
Zn1383 Zn    0.75000   0.54947   0.71730   0.00000  Uiso   1.00
Zn1384 Zn    0.75000   0.95052   0.28270   0.00000  Uiso   1.00
Zn1385 Zn    0.79947   0.50000   0.78270   0.00000  Uiso   1.00
Zn1386 Zn    0.50000   0.70052   0.21730   0.00000  Uiso   1.00
Zn1387 Zn    0.50000   0.79947   0.78270   0.00000  Uiso   1.00
Zn1388 Zn    0.79947   0.50000   0.21730   0.00000  Uiso   1.00
Zn1389 Zn    0.70052   0.50000   0.78270   0.00000  Uiso   1.00
Zn1390 Zn    0.50000   0.79947   0.21730   0.00000  Uiso   1.00
Zn1391 Zn    0.50000   0.70052   0.78270   0.00000  Uiso   1.00
Zn1392 Zn    0.95052   0.75000   0.71730   0.00000  Uiso   1.00
loop_
_geom_bond_atom_site_label_1
_geom_bond_atom_site_label_2
_geom_bond_distance
_geom_bond_site_symmetry_2
_ccdc_geom_bond_type
C1     O332    1.269   .     A
C1     C108    1.452   .     S
C1     O1021   1.269   1_545 S
C2     O295    1.273   .     A
C2     O323    1.273   .     A
C2     C84     1.420   .     S
C3     C127    1.421   .     A
C3     C44     1.532   .     S
C3     C6      1.420   1_554 S
C4     C128    1.421   .     A
C4     C48     1.532   .     S
C4     C151    1.420   1_556 S
C5     C51     1.532   .     S
C5     C129    1.421   .     A
C5     C150    1.420   1_554 S
C6     C54     1.532   .     S
C6     C130    1.421   .     A
C6     C3      1.420   1_556 S
C7     C132    1.421   .     A
C7     C58     1.532   .     S
C7     C152    1.420   1_554 S
C8     H196    1.110   .     S
C8     C9      1.539   .     S
C8     H197    1.103   .     S
C8     C141    1.532   .     S
C9     H195    1.109   .     S
C9     C10     1.528   .     S
C9     H194    1.112   .     S
C10    H191    1.111   .     S
C10    H192    1.110   .     S
C10    H190    1.111   .     S
C11    C143    1.532   .     S
C11    H205    1.103   .     S
C11    H203    1.110   .     S
C11    C12     1.539   .     S
C12    H202    1.109   .     S
C12    H201    1.112   .     S
C12    C14     1.528   .     S
C13    O296    1.273   .     A
C13    O320    1.273   .     A
C13    C83     1.420   .     S
C14    H199    1.111   .     S
C14    H200    1.110   .     S
C14    H198    1.111   .     S
C15    H212    1.103   .     S
C15    C144    1.532   .     S
C15    C16     1.539   .     S
C15    H211    1.110   .     S
C16    H209    1.112   .     S
C16    C17     1.528   .     S
C16    H210    1.109   .     S
C17    H206    1.111   .     S
C17    H208    1.110   .     S
C17    H207    1.111   .     S
C18    H220    1.103   .     S
C18    C145    1.532   .     S
C18    C19     1.539   .     S
C18    H219    1.110   .     S
C19    C20     1.528   .     S
C19    H217    1.112   .     S
C19    H218    1.109   .     S
C20    H214    1.111   .     S
C20    H216    1.110   .     S
C20    H213    1.111   .     S
C21    C22     1.539   .     S
C21    H227    1.110   .     S
C21    C146    1.532   .     S
C21    H228    1.103   .     S
C22    H225    1.109   .     S
C22    C23     1.528   .     S
C22    H224    1.112   .     S
C23    H222    1.111   .     S
C23    H221    1.111   .     S
C23    H223    1.110   .     S
C24    O297    1.273   .     A
C24    O321    1.273   .     A
C24    C82     1.420   .     S
C25    C147    1.532   .     S
C25    C26     1.539   .     S
C25    H234    1.110   .     S
C25    H235    1.103   .     S
C26    C27     1.528   .     S
C26    H232    1.112   .     S
C26    H233    1.109   .     S
C27    H229    1.111   .     S
C27    H230    1.111   .     S
C27    H231    1.110   .     S
C28    H242    1.110   .     S
C28    C29     1.539   .     S
C28    C148    1.532   .     S
C28    H243    1.103   .     S
C29    C30     1.528   .     S
C29    H240    1.112   .     S
C29    H241    1.109   .     S
C30    H238    1.111   .     S
C30    H236    1.111   .     S
C30    H239    1.110   .     S
C31    H251    1.103   .     S
C31    C32     1.539   .     S
C31    C149    1.532   .     S
C31    H250    1.110   .     S
C32    H249    1.109   .     S
C32    H247    1.112   .     S
C32    C33     1.528   .     S
C33    H246    1.110   .     S
C33    H245    1.111   .     S
C33    H244    1.111   .     S
C34    H257    1.110   .     S
C34    C36     1.539   .     S
C34    C150    1.532   .     S
C34    H258    1.103   .     S
C35    O298    1.273   .     A
C35    O327    1.273   .     A
C35    C81     1.420   .     S
C36    H255    1.112   .     S
C36    H256    1.109   .     S
C36    C37     1.528   .     S
C37    H254    1.110   .     S
C37    H253    1.111   .     S
C37    H252    1.111   .     S
C38    C39     1.539   .     S
C38    C151    1.532   .     S
C38    H265    1.110   .     S
C38    H266    1.103   .     S
C39    C40     1.528   .     S
C39    H264    1.109   .     S
C39    H263    1.112   .     S
C40    H260    1.111   .     S
C40    H261    1.111   .     S
C40    H262    1.110   .     S
C41    H273    1.110   .     S
C41    C42     1.539   .     S
C41    H274    1.103   .     S
C41    C152    1.532   .     S
C42    H272    1.109   .     S
C42    C43     1.528   .     S
C42    H271    1.112   .     S
C43    H269    1.110   .     S
C43    H267    1.111   .     S
C43    H268    1.111   .     S
C44    H280    1.110   .     S
C44    C45     1.539   .     S
C44    H155    1.103   .     S
C45    C47     1.528   .     S
C45    H279    1.109   .     S
C45    H278    1.112   .     S
C46    C80     1.420   .     S
C46    O299    1.273   .     A
C46    O328    1.273   .     A
C47    H277    1.110   .     S
C47    H276    1.111   .     S
C47    H275    1.111   .     S
C48    H162    1.103   .     S
C48    H161    1.110   .     S
C48    C49     1.539   .     S
C49    H160    1.109   .     S
C49    C50     1.528   .     S
C49    H159    1.112   .     S
C50    H158    1.110   .     S
C50    H156    1.111   .     S
C50    H157    1.111   .     S
C51    C52     1.539   .     S
C51    H169    1.110   .     S
C51    H170    1.103   .     S
C52    C53     1.528   .     S
C52    H167    1.112   .     S
C52    H168    1.109   .     S
C53    H163    1.111   .     S
C53    H166    1.110   .     S
C53    H164    1.111   .     S
C54    H178    1.103   .     S
C54    C55     1.539   .     S
C54    H177    1.110   .     S
C55    C56     1.528   .     S
C55    H174    1.112   .     S
C55    H175    1.109   .     S
C56    H171    1.111   .     S
C56    H172    1.111   .     S
C56    H173    1.110   .     S
C57    O300    1.273   .     A
C57    O324    1.273   .     A
C57    C88     1.420   .     S
C58    H184    1.110   .     S
C58    H185    1.103   .     S
C58    C59     1.539   .     S
C59    C60     1.528   .     S
C59    H182    1.112   .     S
C59    H183    1.109   .     S
C60    H181    1.110   .     S
C60    H179    1.111   .     S
C60    H180    1.111   .     S
C61    O301    1.273   .     A
C61    C86     1.420   .     S
C61    O326    1.273   .     A
C62    C77     1.420   .     S
C62    O302    1.273   .     A
C62    O313    1.273   .     A
C63    O315    1.273   .     A
C63    O304    1.273   .     A
C63    C75     1.420   .     S
C64    O311    1.273   .     A
C64    O305    1.273   .     A
C64    C74     1.420   .     S
C65    C110    1.452   .     S
C65    O978    1.269   1_545 A
C65    O329    1.269   .     S
C66    O306    1.273   .     A
C66    O312    1.273   .     A
C66    C73     1.420   .     S
C67    O318    1.273   .     A
C67    O307    1.273   .     A
C67    C72     1.420   .     S
C68    C71     1.420   .     S
C68    O308    1.273   .     A
C68    O319    1.273   .     A
C69    O316    1.273   .     A
C69    C79     1.420   .     S
C69    O309    1.273   .     A
C70    O310    1.273   .     A
C70    C78     1.420   .     S
C70    O317    1.273   .     A
C71    C88     1.197   .     T
C72    C86     1.197   .     T
C73    C85     1.197   .     T
C74    C84     1.197   .     T
C75    C83     1.197   .     T
C76    O330    1.269   .     A
C76    C106    1.452   .     S
C76    O631    1.269   1_455 S
C77    C82     1.197   .     T
C78    C81     1.197   .     T
C79    C80     1.197   .     T
C85    C142    1.420   .     S
C87    C107    1.452   .     S
C87    O679    1.269   1_455 A
C87    O284    1.269   .     S
C89    C106    1.391   .     A
C89    C119    1.404   .     A
C89    H153    1.081   .     S
C90    H193    1.081   .     S
C90    C121    1.404   .     A
C90    C107    1.391   .     S
C91    C122    1.405   .     A
C91    H204    1.081   .     S
C91    C108    1.391   .     A
C92    C123    1.404   .     A
C92    H215    1.081   .     S
C92    C110    1.391   .     S
C93    C115    1.405   .     A
C93    H226    1.081   .     S
C93    C454    1.391   .     S
C94    H237    1.081   .     S
C94    C116    1.405   .     A
C94    C455    1.391   .     A
C95    C117    1.405   .     A
C95    H248    1.081   .     S
C95    C804    1.391   .     S
C96    H259    1.081   .     S
C96    C806    1.391   .     A
C96    C118    1.405   .     A
C97    H270    1.081   .     S
C97    C111    1.391   .     A
C97    C128    1.405   .     A
C98    O289    1.269   .     A
C98    O285    1.269   .     A
C98    C113    1.452   .     S
C99    C129    1.404   .     A
C99    H154    1.081   .     S
C99    C808    1.391   .     S
C100   C130    1.405   .     A
C100   H165    1.081   .     S
C100   C461    1.391   .     S
C101   C132    1.405   .     A
C101   H176    1.081   .     S
C101   C114    1.391   .     S
C102   H186    1.081   .     S
C102   C124    1.404   .     A
C102   C807    1.391   .     S
C103   H187    1.081   .     S
C103   C112    1.391   .     A
C103   C125    1.405   .     A
C104   H188    1.081   .     S
C104   C113    1.391   .     A
C104   C126    1.405   .     A
C105   H189    1.081   .     S
C105   C127    1.405   .     A
C105   C462    1.391   .     A
C106   C441    1.391   1_455 S
C107   C442    1.391   1_455 A
C108   C791    1.391   1_545 S
C109   C114    1.452   .     S
C109   O286    1.269   .     S
C109   O290    1.269   .     S
C110   C792    1.391   1_545 A
C111   C120    1.452   .     S
C111   C798    1.391   1_545 S
C112   C131    1.452   .     S
C112   C795    1.391   1_545 S
C113   C448    1.391   1_455 S
C114   C453    1.391   1_455 A
C115   C141    1.421   .     A
C115   C481    1.420   .     S
C116   C143    1.421   .     A
C116   C482    1.420   .     S
C117   C144    1.421   .     A
C117   C831    1.420   .     S
C118   C145    1.421   .     A
C118   C832    1.420   .     S
C119   C146    1.421   .     A
C119   C133    1.420   .     A
C120   O287    1.269   .     A
C120   O291    1.269   .     A
C121   C147    1.421   .     A
C121   C134    1.420   .     A
C122   C148    1.421   .     A
C122   C135    1.420   .     A
C123   C149    1.421   .     A
C123   C136    1.420   .     A
C124   C150    1.421   .     A
C124   C833    1.420   .     S
C125   C138    1.420   .     A
C125   C151    1.421   .     A
C126   C152    1.421   .     A
C126   C139    1.420   .     A
C127   C488    1.420   .     S
C128   C137    1.420   .     A
C129   C834    1.420   .     S
C130   C487    1.420   .     S
C131   O293    1.269   .     A
C131   O288    1.269   .     A
C132   C140    1.420   .     A
C133   C134    1.402   .     A
C133   C463    1.420   1_455 S
C134   C464    1.420   1_455 S
C135   C136    1.402   .     A
C135   C813    1.420   1_545 S
C136   C814    1.420   1_545 S
C137   C820    1.420   1_545 S
C137   C138    1.402   1_556 S
C138   C825    1.420   1_545 S
C138   C137    1.402   1_554 S
C139   C478    1.420   1_455 S
C139   C140    1.402   1_556 S
C140   C475    1.420   1_455 S
C140   C139    1.402   1_554 S
C141   C495    1.420   .     S
C142   O322    1.273   .     A
C142   O294    1.273   .     A
C143   C494    1.420   .     S
C144   C845    1.420   .     S
C145   C844    1.420   .     S
C146   C491    1.420   1_455 S
C147   C489    1.420   1_455 S
C148   C841    1.420   1_545 S
C149   C840    1.420   1_545 S
C150   C5      1.420   1_556 S
C151   C4      1.420   1_554 S
C152   C7      1.420   1_556 S
O281   Zn336   1.930   .     S
O281   Zn333   1.930   .     S
O281   Zn344   1.930   .     S
O281   Zn1036  1.930   1_545 S
O282   Zn335   1.939   .     S
O282   C761    1.269   .     A
O283   Zn338   1.939   .     S
O283   C424    1.269   .     S
O284   Zn337   1.939   .     S
O285   Zn347   1.939   .     S
O286   Zn346   1.939   .     S
O287   Zn341   1.939   .     S
O288   Zn333   1.939   .     S
O289   Zn343   1.939   .     S
O290   Zn342   1.939   .     S
O291   Zn345   1.939   .     S
O292   Zn341   1.930   .     S
O292   Zn339   1.930   .     S
O292   Zn345   1.930   .     S
O292   Zn1031  1.930   1_545 S
O293   Zn344   1.939   .     S
O294   Zn336   1.913   .     S
O295   Zn335   1.913   .     S
O296   Zn338   1.913   .     S
O297   Zn337   1.913   .     S
O298   Zn340   1.913   .     S
O299   Zn339   1.913   .     S
O300   Zn334   1.913   .     S
O301   Zn348   1.913   .     S
O302   Zn335   1.913   .     S
O303   Zn342   1.930   .     S
O303   Zn334   1.930   .     S
O303   Zn686   1.930   1_455 S
O303   Zn346   1.930   .     S
O304   Zn336   1.913   .     S
O305   Zn348   1.913   .     S
O306   Zn334   1.913   .     S
O307   Zn339   1.913   .     S
O308   Zn340   1.913   .     S
O309   Zn337   1.913   .     S
O310   Zn338   1.913   .     S
O311   Zn691   1.913   .     S
O312   Zn342   1.913   .     S
O313   Zn1041  1.913   .     S
O314   Zn343   1.930   .     S
O314   Zn347   1.930   .     S
O314   Zn337   1.930   .     S
O314   Zn696   1.930   1_455 S
O315   Zn344   1.913   .     S
O316   Zn347   1.913   .     S
O317   Zn694   1.913   .     S
O318   Zn341   1.913   .     S
O319   Zn1029  1.913   .     S
O320   Zn690   1.913   .     S
O321   Zn343   1.913   .     S
O322   Zn333   1.913   .     S
O323   Zn1037  1.913   .     S
O324   Zn346   1.913   .     S
O325   Zn340   1.939   .     S
O325   C697    1.269   .     S
O326   Zn695   1.913   .     S
O327   Zn1040  1.913   .     S
O328   Zn345   1.913   .     S
O329   Zn339   1.939   .     S
O330   Zn334   1.939   .     S
O331   Zn348   1.939   .     S
O331   C435    1.269   .     A
O332   Zn336   1.939   .     S
Zn333  O1015   1.913   1_545 S
Zn335  O988    1.930   .     S
Zn338  O651    1.930   .     S
Zn340  O977    1.930   .     S
Zn341  O1019   1.913   1_545 S
Zn342  O668    1.913   1_455 S
Zn343  O659    1.913   1_455 S
Zn344  O1023   1.913   1_545 S
Zn345  O1009   1.913   1_545 S
Zn346  O665    1.913   1_455 S
Zn347  O674    1.913   1_455 S
Zn348  O662    1.930   .     S
C349   O680    1.269   .     A
C349   C456    1.452   .     S
C349   O1369   1.269   1_545 S
C350   O643    1.273   .     A
C350   O671    1.273   .     A
C350   C432    1.420   .     S
C351   C475    1.421   .     A
C351   C392    1.532   .     S
C351   C354    1.420   1_554 S
C352   C476    1.421   .     A
C352   C396    1.532   .     S
C352   C499    1.420   1_556 S
C353   C399    1.532   .     S
C353   C477    1.421   .     A
C353   C498    1.420   1_554 S
C354   C402    1.532   .     S
C354   C478    1.421   .     A
C354   C351    1.420   1_556 S
C355   C480    1.421   .     A
C355   C406    1.532   .     S
C355   C500    1.420   1_554 S
C356   H544    1.110   .     S
C356   C357    1.539   .     S
C356   H545    1.103   .     S
C356   C489    1.532   .     S
C357   H543    1.109   .     S
C357   C358    1.528   .     S
C357   H542    1.112   .     S
C358   H539    1.111   .     S
C358   H540    1.110   .     S
C358   H538    1.111   .     S
C359   C491    1.532   .     S
C359   H553    1.103   .     S
C359   H551    1.110   .     S
C359   C360    1.539   .     S
C360   H550    1.109   .     S
C360   H549    1.112   .     S
C360   C362    1.528   .     S
C361   O644    1.273   .     A
C361   O668    1.273   .     A
C361   C431    1.420   .     S
C362   H547    1.111   .     S
C362   H548    1.110   .     S
C362   H546    1.111   .     S
C363   H560    1.103   .     S
C363   C492    1.532   .     S
C363   C364    1.539   .     S
C363   H559    1.110   .     S
C364   H557    1.112   .     S
C364   C365    1.528   .     S
C364   H558    1.109   .     S
C365   H554    1.111   .     S
C365   H556    1.110   .     S
C365   H555    1.111   .     S
C366   H568    1.103   .     S
C366   C493    1.532   .     S
C366   C367    1.539   .     S
C366   H567    1.110   .     S
C367   C368    1.528   .     S
C367   H565    1.112   .     S
C367   H566    1.109   .     S
C368   H562    1.111   .     S
C368   H564    1.110   .     S
C368   H561    1.111   .     S
C369   C370    1.539   .     S
C369   H575    1.110   .     S
C369   C494    1.532   .     S
C369   H576    1.103   .     S
C370   H573    1.109   .     S
C370   C371    1.528   .     S
C370   H572    1.112   .     S
C371   H570    1.111   .     S
C371   H569    1.111   .     S
C371   H571    1.110   .     S
C372   O645    1.273   .     A
C372   O669    1.273   .     A
C372   C430    1.420   .     S
C373   C495    1.532   .     S
C373   C374    1.539   .     S
C373   H582    1.110   .     S
C373   H583    1.103   .     S
C374   C375    1.528   .     S
C374   H580    1.112   .     S
C374   H581    1.109   .     S
C375   H577    1.111   .     S
C375   H578    1.111   .     S
C375   H579    1.110   .     S
C376   H590    1.110   .     S
C376   C377    1.539   .     S
C376   C496    1.532   .     S
C376   H591    1.103   .     S
C377   C378    1.528   .     S
C377   H588    1.112   .     S
C377   H589    1.109   .     S
C378   H586    1.111   .     S
C378   H584    1.111   .     S
C378   H587    1.110   .     S
C379   H599    1.103   .     S
C379   C380    1.539   .     S
C379   C497    1.532   .     S
C379   H598    1.110   .     S
C380   H597    1.109   .     S
C380   H595    1.112   .     S
C380   C381    1.528   .     S
C381   H594    1.110   .     S
C381   H593    1.111   .     S
C381   H592    1.111   .     S
C382   H605    1.110   .     S
C382   C384    1.539   .     S
C382   C498    1.532   .     S
C382   H606    1.103   .     S
C383   O646    1.273   .     A
C383   O675    1.273   .     A
C383   C429    1.420   .     S
C384   H603    1.112   .     S
C384   H604    1.109   .     S
C384   C385    1.528   .     S
C385   H602    1.110   .     S
C385   H601    1.111   .     S
C385   H600    1.111   .     S
C386   C387    1.539   .     S
C386   C499    1.532   .     S
C386   H613    1.110   .     S
C386   H614    1.103   .     S
C387   C388    1.528   .     S
C387   H612    1.109   .     S
C387   H611    1.112   .     S
C388   H608    1.111   .     S
C388   H609    1.111   .     S
C388   H610    1.110   .     S
C389   H621    1.110   .     S
C389   C390    1.539   .     S
C389   H622    1.103   .     S
C389   C500    1.532   .     S
C390   H620    1.109   .     S
C390   C391    1.528   .     S
C390   H619    1.112   .     S
C391   H617    1.110   .     S
C391   H615    1.111   .     S
C391   H616    1.111   .     S
C392   H628    1.110   .     S
C392   C393    1.539   .     S
C392   H503    1.103   .     S
C393   C395    1.528   .     S
C393   H627    1.109   .     S
C393   H626    1.112   .     S
C394   C428    1.420   .     S
C394   O647    1.273   .     A
C394   O676    1.273   .     A
C395   H625    1.110   .     S
C395   H624    1.111   .     S
C395   H623    1.111   .     S
C396   H510    1.103   .     S
C396   H509    1.110   .     S
C396   C397    1.539   .     S
C397   H508    1.109   .     S
C397   C398    1.528   .     S
C397   H507    1.112   .     S
C398   H506    1.110   .     S
C398   H504    1.111   .     S
C398   H505    1.111   .     S
C399   C400    1.539   .     S
C399   H517    1.110   .     S
C399   H518    1.103   .     S
C400   C401    1.528   .     S
C400   H515    1.112   .     S
C400   H516    1.109   .     S
C401   H511    1.111   .     S
C401   H514    1.110   .     S
C401   H512    1.111   .     S
C402   H526    1.103   .     S
C402   C403    1.539   .     S
C402   H525    1.110   .     S
C403   C404    1.528   .     S
C403   H522    1.112   .     S
C403   H523    1.109   .     S
C404   H519    1.111   .     S
C404   H520    1.111   .     S
C404   H521    1.110   .     S
C405   O648    1.273   .     A
C405   O672    1.273   .     A
C405   C436    1.420   .     S
C406   H532    1.110   .     S
C406   H533    1.103   .     S
C406   C407    1.539   .     S
C407   C408    1.528   .     S
C407   H530    1.112   .     S
C407   H531    1.109   .     S
C408   H529    1.110   .     S
C408   H527    1.111   .     S
C408   H528    1.111   .     S
C409   O649    1.273   .     A
C409   C434    1.420   .     S
C409   O674    1.273   .     A
C410   C425    1.420   .     S
C410   O650    1.273   .     A
C410   O661    1.273   .     A
C411   O663    1.273   .     A
C411   O652    1.273   .     A
C411   C423    1.420   .     S
C412   O659    1.273   .     A
C412   O653    1.273   .     A
C412   C422    1.420   .     S
C413   C458    1.452   .     S
C413   O1326   1.269   1_545 A
C413   O677    1.269   .     S
C414   O654    1.273   .     A
C414   O660    1.273   .     A
C414   C421    1.420   .     S
C415   O666    1.273   .     A
C415   O655    1.273   .     A
C415   C420    1.420   .     S
C416   C419    1.420   .     S
C416   O656    1.273   .     A
C416   O667    1.273   .     A
C417   O664    1.273   .     A
C417   C427    1.420   .     S
C417   O657    1.273   .     A
C418   O658    1.273   .     A
C418   C426    1.420   .     S
C418   O665    1.273   .     A
C419   C436    1.197   .     T
C420   C434    1.197   .     T
C421   C433    1.197   .     T
C422   C432    1.197   .     T
C423   C431    1.197   .     T
C424   O678    1.269   .     A
C424   C454    1.452   .     S
C425   C430    1.197   .     T
C426   C429    1.197   .     T
C427   C428    1.197   .     T
C433   C490    1.420   .     S
C435   C455    1.452   .     S
C435   O632    1.269   .     S
C437   C454    1.391   .     A
C437   C467    1.404   .     A
C437   H501    1.081   .     S
C438   H541    1.081   .     S
C438   C469    1.404   .     A
C438   C455    1.391   .     S
C439   C470    1.405   .     A
C439   H552    1.081   .     S
C439   C456    1.391   .     A
C440   C471    1.404   .     A
C440   H563    1.081   .     S
C440   C458    1.391   .     S
C441   C463    1.405   .     A
C441   H574    1.081   .     S
C441   C106    1.391   1_655 S
C442   H585    1.081   .     S
C442   C464    1.405   .     A
C442   C107    1.391   1_655 A
C443   C465    1.405   .     A
C443   H596    1.081   .     S
C443   C1152   1.391   .     S
C444   H607    1.081   .     S
C444   C1154   1.391   .     A
C444   C466    1.405   .     A
C445   H618    1.081   .     S
C445   C459    1.391   .     A
C445   C476    1.405   .     A
C446   O637    1.269   .     A
C446   O633    1.269   .     A
C446   C461    1.452   .     S
C447   C477    1.404   .     A
C447   H502    1.081   .     S
C447   C1156   1.391   .     S
C448   C478    1.405   .     A
C448   H513    1.081   .     S
C448   C113    1.391   1_655 S
C449   C480    1.405   .     A
C449   H524    1.081   .     S
C449   C462    1.391   .     S
C450   H534    1.081   .     S
C450   C472    1.404   .     A
C450   C1155   1.391   .     S
C451   H535    1.081   .     S
C451   C460    1.391   .     A
C451   C473    1.405   .     A
C452   H536    1.081   .     S
C452   C461    1.391   .     A
C452   C474    1.405   .     A
C453   H537    1.081   .     S
C453   C475    1.405   .     A
C453   C114    1.391   1_655 A
C456   C1139   1.391   1_545 S
C457   C462    1.452   .     S
C457   O634    1.269   .     S
C457   O638    1.269   .     S
C458   C1140   1.391   1_545 A
C459   C468    1.452   .     S
C459   C1146   1.391   1_545 S
C460   C479    1.452   .     S
C460   C1143   1.391   1_545 S
C463   C489    1.421   .     A
C463   C133    1.420   1_655 S
C464   C491    1.421   .     A
C464   C134    1.420   1_655 S
C465   C492    1.421   .     A
C465   C1179   1.420   .     S
C466   C493    1.421   .     A
C466   C1180   1.420   .     S
C467   C494    1.421   .     A
C467   C481    1.420   .     A
C468   O635    1.269   .     A
C468   O639    1.269   .     A
C469   C495    1.421   .     A
C469   C482    1.420   .     A
C470   C496    1.421   .     A
C470   C483    1.420   .     A
C471   C497    1.421   .     A
C471   C484    1.420   .     A
C472   C498    1.421   .     A
C472   C1181   1.420   .     S
C473   C486    1.420   .     A
C473   C499    1.421   .     A
C474   C500    1.421   .     A
C474   C487    1.420   .     A
C475   C140    1.420   1_655 S
C476   C485    1.420   .     A
C477   C1182   1.420   .     S
C478   C139    1.420   1_655 S
C479   O641    1.269   .     A
C479   O636    1.269   .     A
C480   C488    1.420   .     A
C481   C482    1.402   .     A
C483   C484    1.402   .     A
C483   C1161   1.420   1_545 S
C484   C1162   1.420   1_545 S
C485   C1168   1.420   1_545 S
C485   C486    1.402   1_556 S
C486   C1173   1.420   1_545 S
C486   C485    1.402   1_554 S
C487   C488    1.402   1_556 S
C488   C487    1.402   1_554 S
C489   C147    1.420   1_655 S
C490   O670    1.273   .     A
C490   O642    1.273   .     A
C491   C146    1.420   1_655 S
C492   C1193   1.420   .     S
C493   C1192   1.420   .     S
C496   C1189   1.420   1_545 S
C497   C1188   1.420   1_545 S
C498   C353    1.420   1_556 S
C499   C352    1.420   1_554 S
C500   C355    1.420   1_556 S
O629   Zn684   1.930   .     S
O629   Zn681   1.930   .     S
O629   Zn692   1.930   .     S
O629   Zn1384  1.930   1_545 S
O630   Zn683   1.939   .     S
O630   C1109   1.269   .     A
O631   Zn686   1.939   .     S
O631   C76     1.269   1_655 S
O632   Zn685   1.939   .     S
O633   Zn695   1.939   .     S
O634   Zn694   1.939   .     S
O635   Zn689   1.939   .     S
O636   Zn681   1.939   .     S
O637   Zn691   1.939   .     S
O638   Zn690   1.939   .     S
O639   Zn693   1.939   .     S
O640   Zn689   1.930   .     S
O640   Zn687   1.930   .     S
O640   Zn693   1.930   .     S
O640   Zn1379  1.930   1_545 S
O641   Zn692   1.939   .     S
O642   Zn684   1.913   .     S
O643   Zn683   1.913   .     S
O644   Zn686   1.913   .     S
O645   Zn685   1.913   .     S
O646   Zn688   1.913   .     S
O647   Zn687   1.913   .     S
O648   Zn682   1.913   .     S
O649   Zn696   1.913   .     S
O650   Zn683   1.913   .     S
O651   Zn690   1.930   .     S
O651   Zn682   1.930   .     S
O651   Zn694   1.930   .     S
O652   Zn684   1.913   .     S
O653   Zn696   1.913   .     S
O654   Zn682   1.913   .     S
O655   Zn687   1.913   .     S
O656   Zn688   1.913   .     S
O657   Zn685   1.913   .     S
O658   Zn686   1.913   .     S
O659   Zn343   1.913   1_655 S
O660   Zn690   1.913   .     S
O661   Zn1389  1.913   .     S
O662   Zn691   1.930   .     S
O662   Zn695   1.930   .     S
O662   Zn685   1.930   .     S
O663   Zn692   1.913   .     S
O664   Zn695   1.913   .     S
O665   Zn346   1.913   1_655 S
O666   Zn689   1.913   .     S
O667   Zn1377  1.913   .     S
O668   Zn342   1.913   1_655 S
O669   Zn691   1.913   .     S
O670   Zn681   1.913   .     S
O671   Zn1385  1.913   .     S
O672   Zn694   1.913   .     S
O673   Zn688   1.939   .     S
O673   C1045   1.269   .     S
O674   Zn347   1.913   1_655 S
O675   Zn1388  1.913   .     S
O676   Zn693   1.913   .     S
O677   Zn687   1.939   .     S
O678   Zn682   1.939   .     S
O679   Zn696   1.939   .     S
O679   C87     1.269   1_655 A
O680   Zn684   1.939   .     S
Zn681  O1363   1.913   1_545 S
Zn683  O1336   1.930   .     S
Zn686  O303    1.930   1_655 S
Zn688  O1325   1.930   .     S
Zn689  O1367   1.913   1_545 S
Zn692  O1371   1.913   1_545 S
Zn693  O1357   1.913   1_545 S
Zn696  O314    1.930   1_655 S
C697   O1028   1.269   .     A
C697   C804    1.452   .     S
C698   O991    1.273   .     A
C698   O1019   1.273   .     A
C698   C780    1.420   .     S
C699   C823    1.421   .     A
C699   C740    1.532   .     S
C699   C702    1.420   1_554 S
C700   C824    1.421   .     A
C700   C744    1.532   .     S
C700   C847    1.420   1_556 S
C701   C747    1.532   .     S
C701   C825    1.421   .     A
C701   C846    1.420   1_554 S
C702   C750    1.532   .     S
C702   C826    1.421   .     A
C702   C699    1.420   1_556 S
C703   C828    1.421   .     A
C703   C754    1.532   .     S
C703   C848    1.420   1_554 S
C704   H892    1.110   .     S
C704   C705    1.539   .     S
C704   H893    1.103   .     S
C704   C837    1.532   .     S
C705   H891    1.109   .     S
C705   C706    1.528   .     S
C705   H890    1.112   .     S
C706   H887    1.111   .     S
C706   H888    1.110   .     S
C706   H886    1.111   .     S
C707   C839    1.532   .     S
C707   H901    1.103   .     S
C707   H899    1.110   .     S
C707   C708    1.539   .     S
C708   H898    1.109   .     S
C708   H897    1.112   .     S
C708   C710    1.528   .     S
C709   O992    1.273   .     A
C709   O1016   1.273   .     A
C709   C779    1.420   .     S
C710   H895    1.111   .     S
C710   H896    1.110   .     S
C710   H894    1.111   .     S
C711   H908    1.103   .     S
C711   C840    1.532   .     S
C711   C712    1.539   .     S
C711   H907    1.110   .     S
C712   H905    1.112   .     S
C712   C713    1.528   .     S
C712   H906    1.109   .     S
C713   H902    1.111   .     S
C713   H904    1.110   .     S
C713   H903    1.111   .     S
C714   H916    1.103   .     S
C714   C841    1.532   .     S
C714   C715    1.539   .     S
C714   H915    1.110   .     S
C715   C716    1.528   .     S
C715   H913    1.112   .     S
C715   H914    1.109   .     S
C716   H910    1.111   .     S
C716   H912    1.110   .     S
C716   H909    1.111   .     S
C717   C718    1.539   .     S
C717   H923    1.110   .     S
C717   C842    1.532   .     S
C717   H924    1.103   .     S
C718   H921    1.109   .     S
C718   C719    1.528   .     S
C718   H920    1.112   .     S
C719   H918    1.111   .     S
C719   H917    1.111   .     S
C719   H919    1.110   .     S
C720   O993    1.273   .     A
C720   O1017   1.273   .     A
C720   C778    1.420   .     S
C721   C843    1.532   .     S
C721   C722    1.539   .     S
C721   H930    1.110   .     S
C721   H931    1.103   .     S
C722   C723    1.528   .     S
C722   H928    1.112   .     S
C722   H929    1.109   .     S
C723   H925    1.111   .     S
C723   H926    1.111   .     S
C723   H927    1.110   .     S
C724   H938    1.110   .     S
C724   C725    1.539   .     S
C724   C844    1.532   .     S
C724   H939    1.103   .     S
C725   C726    1.528   .     S
C725   H936    1.112   .     S
C725   H937    1.109   .     S
C726   H934    1.111   .     S
C726   H932    1.111   .     S
C726   H935    1.110   .     S
C727   H947    1.103   .     S
C727   C728    1.539   .     S
C727   C845    1.532   .     S
C727   H946    1.110   .     S
C728   H945    1.109   .     S
C728   H943    1.112   .     S
C728   C729    1.528   .     S
C729   H942    1.110   .     S
C729   H941    1.111   .     S
C729   H940    1.111   .     S
C730   H953    1.110   .     S
C730   C732    1.539   .     S
C730   C846    1.532   .     S
C730   H954    1.103   .     S
C731   O994    1.273   .     A
C731   O1023   1.273   .     A
C731   C777    1.420   .     S
C732   H951    1.112   .     S
C732   H952    1.109   .     S
C732   C733    1.528   .     S
C733   H950    1.110   .     S
C733   H949    1.111   .     S
C733   H948    1.111   .     S
C734   C735    1.539   .     S
C734   C847    1.532   .     S
C734   H961    1.110   .     S
C734   H962    1.103   .     S
C735   C736    1.528   .     S
C735   H960    1.109   .     S
C735   H959    1.112   .     S
C736   H956    1.111   .     S
C736   H957    1.111   .     S
C736   H958    1.110   .     S
C737   H969    1.110   .     S
C737   C738    1.539   .     S
C737   H970    1.103   .     S
C737   C848    1.532   .     S
C738   H968    1.109   .     S
C738   C739    1.528   .     S
C738   H967    1.112   .     S
C739   H965    1.110   .     S
C739   H963    1.111   .     S
C739   H964    1.111   .     S
C740   H976    1.110   .     S
C740   C741    1.539   .     S
C740   H851    1.103   .     S
C741   C743    1.528   .     S
C741   H975    1.109   .     S
C741   H974    1.112   .     S
C742   C776    1.420   .     S
C742   O995    1.273   .     A
C742   O1024   1.273   .     A
C743   H973    1.110   .     S
C743   H972    1.111   .     S
C743   H971    1.111   .     S
C744   H858    1.103   .     S
C744   H857    1.110   .     S
C744   C745    1.539   .     S
C745   H856    1.109   .     S
C745   C746    1.528   .     S
C745   H855    1.112   .     S
C746   H854    1.110   .     S
C746   H852    1.111   .     S
C746   H853    1.111   .     S
C747   C748    1.539   .     S
C747   H865    1.110   .     S
C747   H866    1.103   .     S
C748   C749    1.528   .     S
C748   H863    1.112   .     S
C748   H864    1.109   .     S
C749   H859    1.111   .     S
C749   H862    1.110   .     S
C749   H860    1.111   .     S
C750   H874    1.103   .     S
C750   C751    1.539   .     S
C750   H873    1.110   .     S
C751   C752    1.528   .     S
C751   H870    1.112   .     S
C751   H871    1.109   .     S
C752   H867    1.111   .     S
C752   H868    1.111   .     S
C752   H869    1.110   .     S
C753   O996    1.273   .     A
C753   O1020   1.273   .     A
C753   C784    1.420   .     S
C754   H880    1.110   .     S
C754   H881    1.103   .     S
C754   C755    1.539   .     S
C755   C756    1.528   .     S
C755   H878    1.112   .     S
C755   H879    1.109   .     S
C756   H877    1.110   .     S
C756   H875    1.111   .     S
C756   H876    1.111   .     S
C757   O997    1.273   .     A
C757   C782    1.420   .     S
C757   O1022   1.273   .     A
C758   C773    1.420   .     S
C758   O998    1.273   .     A
C758   O1009   1.273   .     A
C759   O1011   1.273   .     A
C759   O1000   1.273   .     A
C759   C771    1.420   .     S
C760   O1007   1.273   .     A
C760   O1001   1.273   .     A
C760   C770    1.420   .     S
C761   C806    1.452   .     S
C761   O1025   1.269   .     S
C762   O1002   1.273   .     A
C762   O1008   1.273   .     A
C762   C769    1.420   .     S
C763   O1014   1.273   .     A
C763   O1003   1.273   .     A
C763   C768    1.420   .     S
C764   C767    1.420   .     S
C764   O1004   1.273   .     A
C764   O1015   1.273   .     A
C765   O1012   1.273   .     A
C765   C775    1.420   .     S
C765   O1005   1.273   .     A
C766   O1006   1.273   .     A
C766   C774    1.420   .     S
C766   O1013   1.273   .     A
C767   C784    1.197   .     T
C768   C782    1.197   .     T
C769   C781    1.197   .     T
C770   C780    1.197   .     T
C771   C779    1.197   .     T
C772   O1026   1.269   .     A
C772   C802    1.452   .     S
C772   O1327   1.269   1_455 S
C773   C778    1.197   .     T
C774   C777    1.197   .     T
C775   C776    1.197   .     T
C781   C838    1.420   .     S
C783   C803    1.452   .     S
C783   O1375   1.269   1_455 A
C783   O980    1.269   .     S
C785   C802    1.391   .     A
C785   C815    1.404   .     A
C785   H849    1.081   .     S
C786   H889    1.081   .     S
C786   C817    1.404   .     A
C786   C803    1.391   .     S
C787   C818    1.405   .     A
C787   H900    1.081   .     S
C787   C804    1.391   .     A
C788   C819    1.404   .     A
C788   H911    1.081   .     S
C788   C806    1.391   .     S
C789   C811    1.405   .     A
C789   H922    1.081   .     S
C789   C1150   1.391   .     S
C790   H933    1.081   .     S
C790   C812    1.405   .     A
C790   C1151   1.391   .     A
C791   C813    1.405   .     A
C791   H944    1.081   .     S
C791   C108    1.391   1_565 S
C792   H955    1.081   .     S
C792   C110    1.391   1_565 A
C792   C814    1.405   .     A
C793   H966    1.081   .     S
C793   C807    1.391   .     A
C793   C824    1.405   .     A
C794   O985    1.269   .     A
C794   O981    1.269   .     A
C794   C809    1.452   .     S
C795   C825    1.404   .     A
C795   H850    1.081   .     S
C795   C112    1.391   1_565 S
C796   C826    1.405   .     A
C796   H861    1.081   .     S
C796   C1157   1.391   .     S
C797   C828    1.405   .     A
C797   H872    1.081   .     S
C797   C810    1.391   .     S
C798   H882    1.081   .     S
C798   C820    1.404   .     A
C798   C111    1.391   1_565 S
C799   H883    1.081   .     S
C799   C808    1.391   .     A
C799   C821    1.405   .     A
C800   H884    1.081   .     S
C800   C809    1.391   .     A
C800   C822    1.405   .     A
C801   H885    1.081   .     S
C801   C823    1.405   .     A
C801   C1158   1.391   .     A
C802   C1137   1.391   1_455 S
C803   C1138   1.391   1_455 A
C805   C810    1.452   .     S
C805   O982    1.269   .     S
C805   O986    1.269   .     S
C807   C816    1.452   .     S
C808   C827    1.452   .     S
C809   C1144   1.391   1_455 S
C810   C1149   1.391   1_455 A
C811   C837    1.421   .     A
C811   C1177   1.420   .     S
C812   C839    1.421   .     A
C812   C1178   1.420   .     S
C813   C840    1.421   .     A
C813   C135    1.420   1_565 S
C814   C841    1.421   .     A
C814   C136    1.420   1_565 S
C815   C842    1.421   .     A
C815   C829    1.420   .     A
C816   O983    1.269   .     A
C816   O987    1.269   .     A
C817   C843    1.421   .     A
C817   C830    1.420   .     A
C818   C844    1.421   .     A
C818   C831    1.420   .     A
C819   C845    1.421   .     A
C819   C832    1.420   .     A
C820   C846    1.421   .     A
C820   C137    1.420   1_565 S
C821   C834    1.420   .     A
C821   C847    1.421   .     A
C822   C848    1.421   .     A
C822   C835    1.420   .     A
C823   C1184   1.420   .     S
C824   C833    1.420   .     A
C825   C138    1.420   1_565 S
C826   C1183   1.420   .     S
C827   O989    1.269   .     A
C827   O984    1.269   .     A
C828   C836    1.420   .     A
C829   C830    1.402   .     A
C829   C1159   1.420   1_455 S
C830   C1160   1.420   1_455 S
C831   C832    1.402   .     A
C833   C834    1.402   1_556 S
C834   C833    1.402   1_554 S
C835   C1174   1.420   1_455 S
C835   C836    1.402   1_556 S
C836   C1171   1.420   1_455 S
C836   C835    1.402   1_554 S
C837   C1191   1.420   .     S
C838   O1018   1.273   .     A
C838   O990    1.273   .     A
C839   C1190   1.420   .     S
C840   C149    1.420   1_565 S
C841   C148    1.420   1_565 S
C842   C1187   1.420   1_455 S
C843   C1185   1.420   1_455 S
C846   C701    1.420   1_556 S
C847   C700    1.420   1_554 S
C848   C703    1.420   1_556 S
O977   Zn1032  1.930   .     S
O977   Zn1029  1.930   .     S
O977   Zn1040  1.930   .     S
O978   Zn1031  1.939   .     S
O978   C65     1.269   1_565 A
O979   Zn1034  1.939   .     S
O979   C1120   1.269   .     S
O980   Zn1033  1.939   .     S
O981   Zn1043  1.939   .     S
O982   Zn1042  1.939   .     S
O983   Zn1037  1.939   .     S
O984   Zn1029  1.939   .     S
O985   Zn1039  1.939   .     S
O986   Zn1038  1.939   .     S
O987   Zn1041  1.939   .     S
O988   Zn1037  1.930   .     S
O988   Zn1035  1.930   .     S
O988   Zn1041  1.930   .     S
O989   Zn1040  1.939   .     S
O990   Zn1032  1.913   .     S
O991   Zn1031  1.913   .     S
O992   Zn1034  1.913   .     S
O993   Zn1033  1.913   .     S
O994   Zn1036  1.913   .     S
O995   Zn1035  1.913   .     S
O996   Zn1030  1.913   .     S
O997   Zn1044  1.913   .     S
O998   Zn1031  1.913   .     S
O999   Zn1038  1.930   .     S
O999   Zn1030  1.930   .     S
O999   Zn1382  1.930   1_455 S
O999   Zn1042  1.930   .     S
O1000  Zn1032  1.913   .     S
O1001  Zn1044  1.913   .     S
O1002  Zn1030  1.913   .     S
O1003  Zn1035  1.913   .     S
O1004  Zn1036  1.913   .     S
O1005  Zn1033  1.913   .     S
O1006  Zn1034  1.913   .     S
O1007  Zn1387  1.913   .     S
O1008  Zn1038  1.913   .     S
O1009  Zn345   1.913   1_565 S
O1010  Zn1039  1.930   .     S
O1010  Zn1043  1.930   .     S
O1010  Zn1033  1.930   .     S
O1010  Zn1392  1.930   1_455 S
O1011  Zn1040  1.913   .     S
O1012  Zn1043  1.913   .     S
O1013  Zn1390  1.913   .     S
O1014  Zn1037  1.913   .     S
O1015  Zn333   1.913   1_565 S
O1016  Zn1386  1.913   .     S
O1017  Zn1039  1.913   .     S
O1018  Zn1029  1.913   .     S
O1019  Zn341   1.913   1_565 S
O1020  Zn1042  1.913   .     S
O1021  Zn1036  1.939   .     S
O1021  C1      1.269   1_565 S
O1022  Zn1391  1.913   .     S
O1023  Zn344   1.913   1_565 S
O1024  Zn1041  1.913   .     S
O1025  Zn1035  1.939   .     S
O1026  Zn1030  1.939   .     S
O1027  Zn1044  1.939   .     S
O1027  C1131   1.269   .     A
O1028  Zn1032  1.939   .     S
Zn1031 O292    1.930   1_565 S
Zn1034 O1347   1.930   .     S
Zn1036 O281    1.930   1_565 S
Zn1038 O1364   1.913   1_455 S
Zn1039 O1355   1.913   1_455 S
Zn1042 O1361   1.913   1_455 S
Zn1043 O1370   1.913   1_455 S
Zn1044 O1358   1.930   .     S
C1045  O1376   1.269   .     A
C1045  C1152   1.452   .     S
C1046  O1339   1.273   .     A
C1046  O1367   1.273   .     A
C1046  C1128   1.420   .     S
C1047  C1171   1.421   .     A
C1047  C1088   1.532   .     S
C1047  C1050   1.420   1_554 S
C1048  C1172   1.421   .     A
C1048  C1092   1.532   .     S
C1048  C1195   1.420   1_556 S
C1049  C1095   1.532   .     S
C1049  C1173   1.421   .     A
C1049  C1194   1.420   1_554 S
C1050  C1098   1.532   .     S
C1050  C1174   1.421   .     A
C1050  C1047   1.420   1_556 S
C1051  C1176   1.421   .     A
C1051  C1102   1.532   .     S
C1051  C1196   1.420   1_554 S
C1052  H1240   1.110   .     S
C1052  C1053   1.539   .     S
C1052  H1241   1.103   .     S
C1052  C1185   1.532   .     S
C1053  H1239   1.109   .     S
C1053  C1054   1.528   .     S
C1053  H1238   1.112   .     S
C1054  H1235   1.111   .     S
C1054  H1236   1.110   .     S
C1054  H1234   1.111   .     S
C1055  C1187   1.532   .     S
C1055  H1249   1.103   .     S
C1055  H1247   1.110   .     S
C1055  C1056   1.539   .     S
C1056  H1246   1.109   .     S
C1056  H1245   1.112   .     S
C1056  C1058   1.528   .     S
C1057  O1340   1.273   .     A
C1057  O1364   1.273   .     A
C1057  C1127   1.420   .     S
C1058  H1243   1.111   .     S
C1058  H1244   1.110   .     S
C1058  H1242   1.111   .     S
C1059  H1256   1.103   .     S
C1059  C1188   1.532   .     S
C1059  C1060   1.539   .     S
C1059  H1255   1.110   .     S
C1060  H1253   1.112   .     S
C1060  C1061   1.528   .     S
C1060  H1254   1.109   .     S
C1061  H1250   1.111   .     S
C1061  H1252   1.110   .     S
C1061  H1251   1.111   .     S
C1062  H1264   1.103   .     S
C1062  C1189   1.532   .     S
C1062  C1063   1.539   .     S
C1062  H1263   1.110   .     S
C1063  C1064   1.528   .     S
C1063  H1261   1.112   .     S
C1063  H1262   1.109   .     S
C1064  H1258   1.111   .     S
C1064  H1260   1.110   .     S
C1064  H1257   1.111   .     S
C1065  C1066   1.539   .     S
C1065  H1271   1.110   .     S
C1065  C1190   1.532   .     S
C1065  H1272   1.103   .     S
C1066  H1269   1.109   .     S
C1066  C1067   1.528   .     S
C1066  H1268   1.112   .     S
C1067  H1266   1.111   .     S
C1067  H1265   1.111   .     S
C1067  H1267   1.110   .     S
C1068  O1341   1.273   .     A
C1068  O1365   1.273   .     A
C1068  C1126   1.420   .     S
C1069  C1191   1.532   .     S
C1069  C1070   1.539   .     S
C1069  H1278   1.110   .     S
C1069  H1279   1.103   .     S
C1070  C1071   1.528   .     S
C1070  H1276   1.112   .     S
C1070  H1277   1.109   .     S
C1071  H1273   1.111   .     S
C1071  H1274   1.111   .     S
C1071  H1275   1.110   .     S
C1072  H1286   1.110   .     S
C1072  C1073   1.539   .     S
C1072  C1192   1.532   .     S
C1072  H1287   1.103   .     S
C1073  C1074   1.528   .     S
C1073  H1284   1.112   .     S
C1073  H1285   1.109   .     S
C1074  H1282   1.111   .     S
C1074  H1280   1.111   .     S
C1074  H1283   1.110   .     S
C1075  H1295   1.103   .     S
C1075  C1076   1.539   .     S
C1075  C1193   1.532   .     S
C1075  H1294   1.110   .     S
C1076  H1293   1.109   .     S
C1076  H1291   1.112   .     S
C1076  C1077   1.528   .     S
C1077  H1290   1.110   .     S
C1077  H1289   1.111   .     S
C1077  H1288   1.111   .     S
C1078  H1301   1.110   .     S
C1078  C1080   1.539   .     S
C1078  C1194   1.532   .     S
C1078  H1302   1.103   .     S
C1079  O1342   1.273   .     A
C1079  O1371   1.273   .     A
C1079  C1125   1.420   .     S
C1080  H1299   1.112   .     S
C1080  H1300   1.109   .     S
C1080  C1081   1.528   .     S
C1081  H1298   1.110   .     S
C1081  H1297   1.111   .     S
C1081  H1296   1.111   .     S
C1082  C1083   1.539   .     S
C1082  C1195   1.532   .     S
C1082  H1309   1.110   .     S
C1082  H1310   1.103   .     S
C1083  C1084   1.528   .     S
C1083  H1308   1.109   .     S
C1083  H1307   1.112   .     S
C1084  H1304   1.111   .     S
C1084  H1305   1.111   .     S
C1084  H1306   1.110   .     S
C1085  H1317   1.110   .     S
C1085  C1086   1.539   .     S
C1085  H1318   1.103   .     S
C1085  C1196   1.532   .     S
C1086  H1316   1.109   .     S
C1086  C1087   1.528   .     S
C1086  H1315   1.112   .     S
C1087  H1313   1.110   .     S
C1087  H1311   1.111   .     S
C1087  H1312   1.111   .     S
C1088  H1324   1.110   .     S
C1088  C1089   1.539   .     S
C1088  H1199   1.103   .     S
C1089  C1091   1.528   .     S
C1089  H1323   1.109   .     S
C1089  H1322   1.112   .     S
C1090  C1124   1.420   .     S
C1090  O1343   1.273   .     A
C1090  O1372   1.273   .     A
C1091  H1321   1.110   .     S
C1091  H1320   1.111   .     S
C1091  H1319   1.111   .     S
C1092  H1206   1.103   .     S
C1092  H1205   1.110   .     S
C1092  C1093   1.539   .     S
C1093  H1204   1.109   .     S
C1093  C1094   1.528   .     S
C1093  H1203   1.112   .     S
C1094  H1202   1.110   .     S
C1094  H1200   1.111   .     S
C1094  H1201   1.111   .     S
C1095  C1096   1.539   .     S
C1095  H1213   1.110   .     S
C1095  H1214   1.103   .     S
C1096  C1097   1.528   .     S
C1096  H1211   1.112   .     S
C1096  H1212   1.109   .     S
C1097  H1207   1.111   .     S
C1097  H1210   1.110   .     S
C1097  H1208   1.111   .     S
C1098  H1222   1.103   .     S
C1098  C1099   1.539   .     S
C1098  H1221   1.110   .     S
C1099  C1100   1.528   .     S
C1099  H1218   1.112   .     S
C1099  H1219   1.109   .     S
C1100  H1215   1.111   .     S
C1100  H1216   1.111   .     S
C1100  H1217   1.110   .     S
C1101  O1344   1.273   .     A
C1101  O1368   1.273   .     A
C1101  C1132   1.420   .     S
C1102  H1228   1.110   .     S
C1102  H1229   1.103   .     S
C1102  C1103   1.539   .     S
C1103  C1104   1.528   .     S
C1103  H1226   1.112   .     S
C1103  H1227   1.109   .     S
C1104  H1225   1.110   .     S
C1104  H1223   1.111   .     S
C1104  H1224   1.111   .     S
C1105  O1345   1.273   .     A
C1105  C1130   1.420   .     S
C1105  O1370   1.273   .     A
C1106  C1121   1.420   .     S
C1106  O1346   1.273   .     A
C1106  O1357   1.273   .     A
C1107  O1359   1.273   .     A
C1107  O1348   1.273   .     A
C1107  C1119   1.420   .     S
C1108  O1355   1.273   .     A
C1108  O1349   1.273   .     A
C1108  C1118   1.420   .     S
C1109  C1154   1.452   .     S
C1109  O1373   1.269   .     S
C1110  O1350   1.273   .     A
C1110  O1356   1.273   .     A
C1110  C1117   1.420   .     S
C1111  O1362   1.273   .     A
C1111  O1351   1.273   .     A
C1111  C1116   1.420   .     S
C1112  C1115   1.420   .     S
C1112  O1352   1.273   .     A
C1112  O1363   1.273   .     A
C1113  O1360   1.273   .     A
C1113  C1123   1.420   .     S
C1113  O1353   1.273   .     A
C1114  O1354   1.273   .     A
C1114  C1122   1.420   .     S
C1114  O1361   1.273   .     A
C1115  C1132   1.197   .     T
C1116  C1130   1.197   .     T
C1117  C1129   1.197   .     T
C1118  C1128   1.197   .     T
C1119  C1127   1.197   .     T
C1120  O1374   1.269   .     A
C1120  C1150   1.452   .     S
C1121  C1126   1.197   .     T
C1122  C1125   1.197   .     T
C1123  C1124   1.197   .     T
C1129  C1186   1.420   .     S
C1131  C1151   1.452   .     S
C1131  O1328   1.269   .     S
C1133  C1150   1.391   .     A
C1133  C1163   1.404   .     A
C1133  H1197   1.081   .     S
C1134  H1237   1.081   .     S
C1134  C1165   1.404   .     A
C1134  C1151   1.391   .     S
C1135  C1166   1.405   .     A
C1135  H1248   1.081   .     S
C1135  C1152   1.391   .     A
C1136  C1167   1.404   .     A
C1136  H1259   1.081   .     S
C1136  C1154   1.391   .     S
C1137  C1159   1.405   .     A
C1137  H1270   1.081   .     S
C1137  C802    1.391   1_655 S
C1138  H1281   1.081   .     S
C1138  C1160   1.405   .     A
C1138  C803    1.391   1_655 A
C1139  C1161   1.405   .     A
C1139  H1292   1.081   .     S
C1139  C456    1.391   1_565 S
C1140  H1303   1.081   .     S
C1140  C458    1.391   1_565 A
C1140  C1162   1.405   .     A
C1141  H1314   1.081   .     S
C1141  C1155   1.391   .     A
C1141  C1172   1.405   .     A
C1142  O1333   1.269   .     A
C1142  O1329   1.269   .     A
C1142  C1157   1.452   .     S
C1143  C1173   1.404   .     A
C1143  H1198   1.081   .     S
C1143  C460    1.391   1_565 S
C1144  C1174   1.405   .     A
C1144  H1209   1.081   .     S
C1144  C809    1.391   1_655 S
C1145  C1176   1.405   .     A
C1145  H1220   1.081   .     S
C1145  C1158   1.391   .     S
C1146  H1230   1.081   .     S
C1146  C1168   1.404   .     A
C1146  C459    1.391   1_565 S
C1147  H1231   1.081   .     S
C1147  C1156   1.391   .     A
C1147  C1169   1.405   .     A
C1148  H1232   1.081   .     S
C1148  C1157   1.391   .     A
C1148  C1170   1.405   .     A
C1149  H1233   1.081   .     S
C1149  C1171   1.405   .     A
C1149  C810    1.391   1_655 A
C1153  C1158   1.452   .     S
C1153  O1330   1.269   .     S
C1153  O1334   1.269   .     S
C1155  C1164   1.452   .     S
C1156  C1175   1.452   .     S
C1159  C1185   1.421   .     A
C1159  C829    1.420   1_655 S
C1160  C1187   1.421   .     A
C1160  C830    1.420   1_655 S
C1161  C1188   1.421   .     A
C1161  C483    1.420   1_565 S
C1162  C1189   1.421   .     A
C1162  C484    1.420   1_565 S
C1163  C1190   1.421   .     A
C1163  C1177   1.420   .     A
C1164  O1331   1.269   .     A
C1164  O1335   1.269   .     A
C1165  C1191   1.421   .     A
C1165  C1178   1.420   .     A
C1166  C1192   1.421   .     A
C1166  C1179   1.420   .     A
C1167  C1193   1.421   .     A
C1167  C1180   1.420   .     A
C1168  C1194   1.421   .     A
C1168  C485    1.420   1_565 S
C1169  C1182   1.420   .     A
C1169  C1195   1.421   .     A
C1170  C1196   1.421   .     A
C1170  C1183   1.420   .     A
C1171  C836    1.420   1_655 S
C1172  C1181   1.420   .     A
C1173  C486    1.420   1_565 S
C1174  C835    1.420   1_655 S
C1175  O1337   1.269   .     A
C1175  O1332   1.269   .     A
C1176  C1184   1.420   .     A
C1177  C1178   1.402   .     A
C1179  C1180   1.402   .     A
C1181  C1182   1.402   1_556 S
C1182  C1181   1.402   1_554 S
C1183  C1184   1.402   1_556 S
C1184  C1183   1.402   1_554 S
C1185  C843    1.420   1_655 S
C1186  O1366   1.273   .     A
C1186  O1338   1.273   .     A
C1187  C842    1.420   1_655 S
C1188  C497    1.420   1_565 S
C1189  C496    1.420   1_565 S
C1194  C1049   1.420   1_556 S
C1195  C1048   1.420   1_554 S
C1196  C1051   1.420   1_556 S
O1325  Zn1380  1.930   .     S
O1325  Zn1377  1.930   .     S
O1325  Zn1388  1.930   .     S
O1326  Zn1379  1.939   .     S
O1326  C413    1.269   1_565 A
O1327  Zn1382  1.939   .     S
O1327  C772    1.269   1_655 S
O1328  Zn1381  1.939   .     S
O1329  Zn1391  1.939   .     S
O1330  Zn1390  1.939   .     S
O1331  Zn1385  1.939   .     S
O1332  Zn1377  1.939   .     S
O1333  Zn1387  1.939   .     S
O1334  Zn1386  1.939   .     S
O1335  Zn1389  1.939   .     S
O1336  Zn1385  1.930   .     S
O1336  Zn1383  1.930   .     S
O1336  Zn1389  1.930   .     S
O1337  Zn1388  1.939   .     S
O1338  Zn1380  1.913   .     S
O1339  Zn1379  1.913   .     S
O1340  Zn1382  1.913   .     S
O1341  Zn1381  1.913   .     S
O1342  Zn1384  1.913   .     S
O1343  Zn1383  1.913   .     S
O1344  Zn1378  1.913   .     S
O1345  Zn1392  1.913   .     S
O1346  Zn1379  1.913   .     S
O1347  Zn1386  1.930   .     S
O1347  Zn1378  1.930   .     S
O1347  Zn1390  1.930   .     S
O1348  Zn1380  1.913   .     S
O1349  Zn1392  1.913   .     S
O1350  Zn1378  1.913   .     S
O1351  Zn1383  1.913   .     S
O1352  Zn1384  1.913   .     S
O1353  Zn1381  1.913   .     S
O1354  Zn1382  1.913   .     S
O1355  Zn1039  1.913   1_655 S
O1356  Zn1386  1.913   .     S
O1357  Zn693   1.913   1_565 S
O1358  Zn1387  1.930   .     S
O1358  Zn1391  1.930   .     S
O1358  Zn1381  1.930   .     S
O1359  Zn1388  1.913   .     S
O1360  Zn1391  1.913   .     S
O1361  Zn1042  1.913   1_655 S
O1362  Zn1385  1.913   .     S
O1363  Zn681   1.913   1_565 S
O1364  Zn1038  1.913   1_655 S
O1365  Zn1387  1.913   .     S
O1366  Zn1377  1.913   .     S
O1367  Zn689   1.913   1_565 S
O1368  Zn1390  1.913   .     S
O1369  Zn1384  1.939   .     S
O1369  C349    1.269   1_565 S
O1370  Zn1043  1.913   1_655 S
O1371  Zn692   1.913   1_565 S
O1372  Zn1389  1.913   .     S
O1373  Zn1383  1.939   .     S
O1374  Zn1378  1.939   .     S
O1375  Zn1392  1.939   .     S
O1375  C783    1.269   1_655 A
O1376  Zn1380  1.939   .     S
Zn1379 O640    1.930   1_565 S
Zn1382 O999    1.930   1_655 S
Zn1384 O629    1.930   1_565 S
Zn1392 O1010   1.930   1_655 S
