data_str_m3_o2_o10_pcu_sym.45
_audit_creation_date              2020-01-03
_audit_creation_method            'Materials Studio'
_symmetry_space_group_name_H-M    'P1'
_symmetry_Int_Tables_number       1
_symmetry_cell_setting            triclinic
loop_
_symmetry_equiv_pos_as_xyz
  x,y,z
_cell_length_a                    25.9396
_cell_length_b                    29.9155
_cell_length_c                    28.4359
_cell_angle_alpha                 88.6897
_cell_angle_beta                  97.8683
_cell_angle_gamma                 90.9782
loop_
_atom_site_label
_atom_site_type_symbol
_atom_site_fract_x
_atom_site_fract_y
_atom_site_fract_z
_atom_site_U_iso_or_equiv
_atom_site_adp_type
_atom_site_occupancy
C1     C     0.16847   0.16383   0.25076   0.00000  Uiso   1.00
C2     C     0.14662   0.21326   0.44592   0.00000  Uiso   1.00
C3     C     0.16623   0.25064   0.02671   0.00000  Uiso   1.00
C4     C     0.16567   0.25047   0.47319   0.00000  Uiso   1.00
C5     C     0.06735   0.24915   0.23795   0.00000  Uiso   1.00
C6     C     0.26597   0.25035   0.26211   0.00000  Uiso   1.00
C7     C     0.01295   0.24387   0.23213   0.00000  Uiso   1.00
C8     C     0.32048   0.25450   0.26835   0.00000  Uiso   1.00
C9     C     0.18566   0.04612   0.29727   0.00000  Uiso   1.00
C10    C     0.12317   0.45313   0.23508   0.00000  Uiso   1.00
C11    C     0.18843   0.09262   0.29600   0.00000  Uiso   1.00
C12    C     0.16692   0.33584   0.24953   0.00000  Uiso   1.00
C13    C     0.12338   0.40696   0.22997   0.00000  Uiso   1.00
C14    C     0.17297   0.11570   0.25255   0.00000  Uiso   1.00
C15    C     0.16799   0.38341   0.24868   0.00000  Uiso   1.00
C16    C     0.16168   0.09241   0.21023   0.00000  Uiso   1.00
C17    C     0.21347   0.40522   0.26827   0.00000  Uiso   1.00
C18    C     0.16249   0.04643   0.21120   0.00000  Uiso   1.00
C19    C     0.21471   0.45125   0.26968   0.00000  Uiso   1.00
C20    C     0.17242   0.02330   0.25460   0.00000  Uiso   1.00
C21    C     0.16954   0.47513   0.25401   0.00000  Uiso   1.00
C22    C     0.32201   0.18188   0.18905   0.00000  Uiso   1.00
C23    C     0.12630   0.22929   0.04850   0.00000  Uiso   1.00
C24    C     0.28962   0.16534   0.14397   0.00000  Uiso   1.00
C25    C     0.00819   0.31470   0.31546   0.00000  Uiso   1.00
C26    C     0.04315   0.33024   0.35956   0.00000  Uiso   1.00
C27    C     0.25784   0.12559   0.33989   0.00000  Uiso   1.00
C28    C     0.27509   0.15355   0.38341   0.00000  Uiso   1.00
C29    C     0.07961   0.38510   0.15966   0.00000  Uiso   1.00
C30    C     0.03293   0.35871   0.13630   0.00000  Uiso   1.00
C31    C     0.28648   0.26230   0.03445   0.00000  Uiso   1.00
C32    C     0.32484   0.28315   0.00408   0.00000  Uiso   1.00
C33    C     0.17095   0.14577   0.47864   0.00000  Uiso   1.00
C34    C     0.18446   0.28743   0.44837   0.00000  Uiso   1.00
C35    C     0.15375   0.10643   0.00782   0.00000  Uiso   1.00
C36    C     0.12806   0.22825   0.09809   0.00000  Uiso   1.00
C37    C     0.18671   0.28571   0.39933   0.00000  Uiso   1.00
C38    C     0.20409   0.27349   0.10619   0.00000  Uiso   1.00
C39    C     0.14375   0.21541   0.39607   0.00000  Uiso   1.00
C40    C     0.20668   0.27196   0.05706   0.00000  Uiso   1.00
Cl41   Cl    0.19702   0.01751   0.35269   0.00000  Uiso   1.00
Cl42   Cl    0.06441   0.48234   0.21944   0.00000  Uiso   1.00
Cl43   Cl    0.24778   0.30883   0.14077   0.00000  Uiso   1.00
Cl44   Cl    0.10626   0.17433   0.36331   0.00000  Uiso   1.00
H45    H     0.15133   0.10961   0.17639   0.00000  Uiso   1.00
H46    H     0.02908   0.16945   0.19025   0.00000  Uiso   1.00
H47    H     0.30670   0.17781   0.11233   0.00000  Uiso   1.00
H48    H     0.28888   0.12822   0.14418   0.00000  Uiso   1.00
H49    H     0.24909   0.17742   0.14179   0.00000  Uiso   1.00
H50    H     0.30085   0.32414   0.31856   0.00000  Uiso   1.00
H51    H     0.02112   0.33231   0.28399   0.00000  Uiso   1.00
H52    H     0.08426   0.32223   0.35688   0.00000  Uiso   1.00
H53    H     0.03986   0.36696   0.36290   0.00000  Uiso   1.00
H54    H     0.03145   0.31331   0.39172   0.00000  Uiso   1.00
H55    H     0.26625   0.14535   0.30803   0.00000  Uiso   1.00
H56    H     0.24802   0.38663   0.28181   0.00000  Uiso   1.00
H57    H     0.28114   0.09446   0.34292   0.00000  Uiso   1.00
H58    H     0.26957   0.13419   0.41616   0.00000  Uiso   1.00
H59    H     0.31691   0.16279   0.38484   0.00000  Uiso   1.00
H60    H     0.25203   0.18462   0.38167   0.00000  Uiso   1.00
H61    H     0.11542   0.36960   0.15013   0.00000  Uiso   1.00
H62    H     0.07700   0.41992   0.14491   0.00000  Uiso   1.00
H63    H     0.32996   0.37472   0.14355   0.00000  Uiso   1.00
H64    H     0.03330   0.35829   0.09732   0.00000  Uiso   1.00
H65    H     0.03411   0.32376   0.15041   0.00000  Uiso   1.00
H66    H     0.27025   0.23122   0.01677   0.00000  Uiso   1.00
H67    H     0.15369   0.02867   0.17819   0.00000  Uiso   1.00
H68    H     0.30777   0.25340   0.07003   0.00000  Uiso   1.00
H69    H     0.01134   0.31257   0.02201   0.00000  Uiso   1.00
H70    H     0.02109   0.25833   0.49822   0.00000  Uiso   1.00
H71    H     0.30406   0.29394   0.46900   0.00000  Uiso   1.00
H72    H     0.20475   0.16249   0.00011   0.00000  Uiso   1.00
H73    H     0.18335   0.13271   0.44566   0.00000  Uiso   1.00
H74    H     0.12051   0.08849   0.48727   0.00000  Uiso   1.00
H75    H     0.18646   0.08290   0.01675   0.00000  Uiso   1.00
H76    H     0.14167   0.11850   0.04127   0.00000  Uiso   1.00
H77    H     0.25066   0.46831   0.28335   0.00000  Uiso   1.00
H78    H     0.09330   0.21360   0.02766   0.00000  Uiso   1.00
H79    H     0.19727   0.31789   0.46636   0.00000  Uiso   1.00
H80    H     0.09761   0.21095   0.11403   0.00000  Uiso   1.00
H81    H     0.20293   0.31381   0.38145   0.00000  Uiso   1.00
H82    H     0.30460   0.16762   0.21998   0.00000  Uiso   1.00
N83    N     0.16667   0.24999   0.12623   0.00000  Uiso   1.00
N84    N     0.16667   0.25001   0.37376   0.00000  Uiso   1.00
O85    O     0.16667   0.18454   0.28974   0.00000  Uiso   1.00
O86    O     0.01189   0.26783   0.31241   0.00000  Uiso   1.00
O87    O     0.20420   0.11517   0.33760   0.00000  Uiso   1.00
O88    O     0.07930   0.38446   0.20935   0.00000  Uiso   1.00
O89    O     0.24747   0.29362   0.03908   0.00000  Uiso   1.00
O90    O     0.12885   0.17514   0.46728   0.00000  Uiso   1.00
O91    O     0.16666   0.31547   0.21026   0.00000  Uiso   1.00
O92    O     0.16667   0.18453   0.21026   0.00000  Uiso   1.00
O93    O     0.16666   0.31547   0.28974   0.00000  Uiso   1.00
O94    O     0.09058   0.25000   0.28044   0.00000  Uiso   1.00
O95    O     0.24275   0.25000   0.21955   0.00000  Uiso   1.00
O96    O     0.09058   0.25000   0.20096   0.00000  Uiso   1.00
O97    O     0.24275   0.25001   0.29903   0.00000  Uiso   1.00
O98    O     0.32184   0.22910   0.18858   0.00000  Uiso   1.00
Zn99   Zn    0.16667   0.25001   0.30307   0.00000  Uiso   1.00
Zn100  Zn    0.16667   0.25000   0.19693   0.00000  Uiso   1.00
C101   C     0.50181   0.16383   0.25076   0.00000  Uiso   1.00
C102   C     0.47995   0.21326   0.44592   0.00000  Uiso   1.00
C103   C     0.49956   0.25064   0.02671   0.00000  Uiso   1.00
C104   C     0.49901   0.25047   0.47319   0.00000  Uiso   1.00
C105   C     0.40068   0.24915   0.23795   0.00000  Uiso   1.00
C106   C     0.59930   0.25035   0.26211   0.00000  Uiso   1.00
C107   C     0.34629   0.24387   0.23213   0.00000  Uiso   1.00
C108   C     0.65381   0.25450   0.26835   0.00000  Uiso   1.00
C109   C     0.51899   0.04612   0.29727   0.00000  Uiso   1.00
C110   C     0.45651   0.45313   0.23508   0.00000  Uiso   1.00
C111   C     0.52176   0.09262   0.29600   0.00000  Uiso   1.00
C112   C     0.50025   0.33584   0.24953   0.00000  Uiso   1.00
C113   C     0.45671   0.40696   0.22997   0.00000  Uiso   1.00
C114   C     0.50630   0.11570   0.25255   0.00000  Uiso   1.00
C115   C     0.50132   0.38341   0.24868   0.00000  Uiso   1.00
C116   C     0.49501   0.09241   0.21023   0.00000  Uiso   1.00
C117   C     0.54681   0.40522   0.26827   0.00000  Uiso   1.00
C118   C     0.49582   0.04643   0.21120   0.00000  Uiso   1.00
C119   C     0.54805   0.45125   0.26968   0.00000  Uiso   1.00
C120   C     0.50576   0.02330   0.25460   0.00000  Uiso   1.00
C121   C     0.50287   0.47513   0.25401   0.00000  Uiso   1.00
C122   C     0.65535   0.18188   0.18905   0.00000  Uiso   1.00
C123   C     0.45963   0.22929   0.04850   0.00000  Uiso   1.00
C124   C     0.62295   0.16534   0.14397   0.00000  Uiso   1.00
C125   C     0.34152   0.31470   0.31546   0.00000  Uiso   1.00
C126   C     0.37648   0.33024   0.35956   0.00000  Uiso   1.00
C127   C     0.59118   0.12559   0.33989   0.00000  Uiso   1.00
C128   C     0.60842   0.15355   0.38341   0.00000  Uiso   1.00
C129   C     0.41294   0.38510   0.15966   0.00000  Uiso   1.00
C130   C     0.36626   0.35871   0.13630   0.00000  Uiso   1.00
C131   C     0.61982   0.26230   0.03445   0.00000  Uiso   1.00
C132   C     0.65817   0.28315   0.00408   0.00000  Uiso   1.00
C133   C     0.50428   0.14577   0.47864   0.00000  Uiso   1.00
C134   C     0.51779   0.28743   0.44837   0.00000  Uiso   1.00
C135   C     0.48708   0.10643   0.00782   0.00000  Uiso   1.00
C136   C     0.46139   0.22825   0.09809   0.00000  Uiso   1.00
C137   C     0.52004   0.28571   0.39933   0.00000  Uiso   1.00
C138   C     0.53743   0.27349   0.10619   0.00000  Uiso   1.00
C139   C     0.47709   0.21541   0.39607   0.00000  Uiso   1.00
C140   C     0.54002   0.27196   0.05706   0.00000  Uiso   1.00
Cl141  Cl    0.53035   0.01751   0.35269   0.00000  Uiso   1.00
Cl142  Cl    0.39775   0.48234   0.21944   0.00000  Uiso   1.00
Cl143  Cl    0.58111   0.30883   0.14077   0.00000  Uiso   1.00
Cl144  Cl    0.43960   0.17433   0.36331   0.00000  Uiso   1.00
H145   H     0.48467   0.10961   0.17639   0.00000  Uiso   1.00
H146   H     0.36242   0.16945   0.19025   0.00000  Uiso   1.00
H147   H     0.64004   0.17781   0.11233   0.00000  Uiso   1.00
H148   H     0.62221   0.12822   0.14418   0.00000  Uiso   1.00
H149   H     0.58242   0.17742   0.14179   0.00000  Uiso   1.00
H150   H     0.63419   0.32414   0.31856   0.00000  Uiso   1.00
H151   H     0.35445   0.33231   0.28399   0.00000  Uiso   1.00
H152   H     0.41760   0.32223   0.35688   0.00000  Uiso   1.00
H153   H     0.37319   0.36696   0.36290   0.00000  Uiso   1.00
H154   H     0.36478   0.31331   0.39172   0.00000  Uiso   1.00
H155   H     0.59959   0.14535   0.30803   0.00000  Uiso   1.00
H156   H     0.58135   0.38663   0.28181   0.00000  Uiso   1.00
H157   H     0.61448   0.09446   0.34292   0.00000  Uiso   1.00
H158   H     0.60290   0.13419   0.41616   0.00000  Uiso   1.00
H159   H     0.65025   0.16279   0.38484   0.00000  Uiso   1.00
H160   H     0.58536   0.18462   0.38167   0.00000  Uiso   1.00
H161   H     0.44875   0.36960   0.15013   0.00000  Uiso   1.00
H162   H     0.41033   0.41992   0.14491   0.00000  Uiso   1.00
H163   H     0.66329   0.37472   0.14355   0.00000  Uiso   1.00
H164   H     0.36663   0.35829   0.09732   0.00000  Uiso   1.00
H165   H     0.36744   0.32376   0.15041   0.00000  Uiso   1.00
H166   H     0.60359   0.23122   0.01677   0.00000  Uiso   1.00
H167   H     0.48702   0.02867   0.17819   0.00000  Uiso   1.00
H168   H     0.64110   0.25340   0.07003   0.00000  Uiso   1.00
H169   H     0.34467   0.31257   0.02201   0.00000  Uiso   1.00
H170   H     0.35443   0.25833   0.49822   0.00000  Uiso   1.00
H171   H     0.63740   0.29394   0.46900   0.00000  Uiso   1.00
H172   H     0.53809   0.16249   0.00011   0.00000  Uiso   1.00
H173   H     0.51669   0.13271   0.44566   0.00000  Uiso   1.00
H174   H     0.45384   0.08849   0.48727   0.00000  Uiso   1.00
H175   H     0.51980   0.08290   0.01675   0.00000  Uiso   1.00
H176   H     0.47500   0.11850   0.04127   0.00000  Uiso   1.00
H177   H     0.58399   0.46831   0.28335   0.00000  Uiso   1.00
H178   H     0.42663   0.21360   0.02766   0.00000  Uiso   1.00
H179   H     0.53060   0.31789   0.46636   0.00000  Uiso   1.00
H180   H     0.43094   0.21095   0.11403   0.00000  Uiso   1.00
H181   H     0.53627   0.31381   0.38145   0.00000  Uiso   1.00
H182   H     0.63793   0.16762   0.21998   0.00000  Uiso   1.00
N183   N     0.50000   0.24999   0.12623   0.00000  Uiso   1.00
N184   N     0.50000   0.25001   0.37376   0.00000  Uiso   1.00
O185   O     0.50000   0.18454   0.28974   0.00000  Uiso   1.00
O186   O     0.34522   0.26783   0.31241   0.00000  Uiso   1.00
O187   O     0.53754   0.11517   0.33760   0.00000  Uiso   1.00
O188   O     0.41264   0.38446   0.20935   0.00000  Uiso   1.00
O189   O     0.58081   0.29362   0.03908   0.00000  Uiso   1.00
O190   O     0.46218   0.17514   0.46728   0.00000  Uiso   1.00
O191   O     0.50000   0.31547   0.21026   0.00000  Uiso   1.00
O192   O     0.50000   0.18453   0.21026   0.00000  Uiso   1.00
O193   O     0.50000   0.31547   0.28974   0.00000  Uiso   1.00
O194   O     0.42392   0.25000   0.28044   0.00000  Uiso   1.00
O195   O     0.57608   0.25000   0.21955   0.00000  Uiso   1.00
O196   O     0.42392   0.25000   0.20096   0.00000  Uiso   1.00
O197   O     0.57608   0.25001   0.29903   0.00000  Uiso   1.00
O198   O     0.65518   0.22910   0.18858   0.00000  Uiso   1.00
Zn199  Zn    0.50000   0.25001   0.30307   0.00000  Uiso   1.00
Zn200  Zn    0.50000   0.25000   0.19693   0.00000  Uiso   1.00
C201   C     0.83514   0.16383   0.25076   0.00000  Uiso   1.00
C202   C     0.81329   0.21326   0.44592   0.00000  Uiso   1.00
C203   C     0.83290   0.25064   0.02671   0.00000  Uiso   1.00
C204   C     0.83234   0.25047   0.47319   0.00000  Uiso   1.00
C205   C     0.73402   0.24915   0.23795   0.00000  Uiso   1.00
C206   C     0.93264   0.25035   0.26211   0.00000  Uiso   1.00
C207   C     0.67962   0.24387   0.23213   0.00000  Uiso   1.00
C208   C     0.98714   0.25450   0.26835   0.00000  Uiso   1.00
C209   C     0.85232   0.04612   0.29727   0.00000  Uiso   1.00
C210   C     0.78984   0.45313   0.23508   0.00000  Uiso   1.00
C211   C     0.85510   0.09262   0.29600   0.00000  Uiso   1.00
C212   C     0.83358   0.33584   0.24953   0.00000  Uiso   1.00
C213   C     0.79004   0.40696   0.22997   0.00000  Uiso   1.00
C214   C     0.83963   0.11570   0.25255   0.00000  Uiso   1.00
C215   C     0.83465   0.38341   0.24868   0.00000  Uiso   1.00
C216   C     0.82835   0.09241   0.21023   0.00000  Uiso   1.00
C217   C     0.88014   0.40522   0.26827   0.00000  Uiso   1.00
C218   C     0.82915   0.04643   0.21120   0.00000  Uiso   1.00
C219   C     0.88138   0.45125   0.26968   0.00000  Uiso   1.00
C220   C     0.83909   0.02330   0.25460   0.00000  Uiso   1.00
C221   C     0.83620   0.47513   0.25401   0.00000  Uiso   1.00
C222   C     0.98868   0.18188   0.18905   0.00000  Uiso   1.00
C223   C     0.79297   0.22929   0.04850   0.00000  Uiso   1.00
C224   C     0.95629   0.16534   0.14397   0.00000  Uiso   1.00
C225   C     0.67486   0.31470   0.31546   0.00000  Uiso   1.00
C226   C     0.70981   0.33024   0.35956   0.00000  Uiso   1.00
C227   C     0.92451   0.12559   0.33989   0.00000  Uiso   1.00
C228   C     0.94175   0.15355   0.38341   0.00000  Uiso   1.00
C229   C     0.74628   0.38510   0.15966   0.00000  Uiso   1.00
C230   C     0.69960   0.35871   0.13630   0.00000  Uiso   1.00
C231   C     0.95315   0.26230   0.03445   0.00000  Uiso   1.00
C232   C     0.99150   0.28315   0.00408   0.00000  Uiso   1.00
C233   C     0.83761   0.14577   0.47864   0.00000  Uiso   1.00
C234   C     0.85112   0.28743   0.44837   0.00000  Uiso   1.00
C235   C     0.82042   0.10643   0.00782   0.00000  Uiso   1.00
C236   C     0.79472   0.22825   0.09809   0.00000  Uiso   1.00
C237   C     0.85338   0.28571   0.39933   0.00000  Uiso   1.00
C238   C     0.87076   0.27349   0.10619   0.00000  Uiso   1.00
C239   C     0.81042   0.21541   0.39607   0.00000  Uiso   1.00
C240   C     0.87335   0.27196   0.05706   0.00000  Uiso   1.00
Cl241  Cl    0.86368   0.01751   0.35269   0.00000  Uiso   1.00
Cl242  Cl    0.73108   0.48234   0.21944   0.00000  Uiso   1.00
Cl243  Cl    0.91445   0.30883   0.14077   0.00000  Uiso   1.00
Cl244  Cl    0.77293   0.17433   0.36331   0.00000  Uiso   1.00
H245   H     0.81800   0.10961   0.17639   0.00000  Uiso   1.00
H246   H     0.69575   0.16945   0.19025   0.00000  Uiso   1.00
H247   H     0.97337   0.17781   0.11233   0.00000  Uiso   1.00
H248   H     0.95554   0.12822   0.14418   0.00000  Uiso   1.00
H249   H     0.91575   0.17742   0.14179   0.00000  Uiso   1.00
H250   H     0.96752   0.32414   0.31856   0.00000  Uiso   1.00
H251   H     0.68779   0.33231   0.28399   0.00000  Uiso   1.00
H252   H     0.75093   0.32223   0.35688   0.00000  Uiso   1.00
H253   H     0.70653   0.36696   0.36290   0.00000  Uiso   1.00
H254   H     0.69811   0.31331   0.39172   0.00000  Uiso   1.00
H255   H     0.93292   0.14535   0.30803   0.00000  Uiso   1.00
H256   H     0.91468   0.38663   0.28181   0.00000  Uiso   1.00
H257   H     0.94781   0.09446   0.34292   0.00000  Uiso   1.00
H258   H     0.93624   0.13419   0.41616   0.00000  Uiso   1.00
H259   H     0.98358   0.16279   0.38484   0.00000  Uiso   1.00
H260   H     0.91869   0.18462   0.38167   0.00000  Uiso   1.00
H261   H     0.78208   0.36960   0.15013   0.00000  Uiso   1.00
H262   H     0.74367   0.41992   0.14491   0.00000  Uiso   1.00
H263   H     0.99662   0.37472   0.14355   0.00000  Uiso   1.00
H264   H     0.69996   0.35829   0.09732   0.00000  Uiso   1.00
H265   H     0.70077   0.32376   0.15041   0.00000  Uiso   1.00
H266   H     0.93692   0.23122   0.01677   0.00000  Uiso   1.00
H267   H     0.82036   0.02867   0.17819   0.00000  Uiso   1.00
H268   H     0.97443   0.25340   0.07003   0.00000  Uiso   1.00
H269   H     0.67801   0.31257   0.02201   0.00000  Uiso   1.00
H270   H     0.68776   0.25833   0.49822   0.00000  Uiso   1.00
H271   H     0.97073   0.29394   0.46900   0.00000  Uiso   1.00
H272   H     0.87142   0.16249   0.00011   0.00000  Uiso   1.00
H273   H     0.85002   0.13271   0.44566   0.00000  Uiso   1.00
H274   H     0.78717   0.08849   0.48727   0.00000  Uiso   1.00
H275   H     0.85313   0.08290   0.01675   0.00000  Uiso   1.00
H276   H     0.80833   0.11850   0.04127   0.00000  Uiso   1.00
H277   H     0.91733   0.46831   0.28335   0.00000  Uiso   1.00
H278   H     0.75996   0.21360   0.02766   0.00000  Uiso   1.00
H279   H     0.86394   0.31789   0.46636   0.00000  Uiso   1.00
H280   H     0.76427   0.21095   0.11403   0.00000  Uiso   1.00
H281   H     0.86960   0.31381   0.38145   0.00000  Uiso   1.00
H282   H     0.97127   0.16762   0.21998   0.00000  Uiso   1.00
N283   N     0.83333   0.24999   0.12623   0.00000  Uiso   1.00
N284   N     0.83333   0.25001   0.37376   0.00000  Uiso   1.00
O285   O     0.83334   0.18454   0.28974   0.00000  Uiso   1.00
O286   O     0.67856   0.26783   0.31241   0.00000  Uiso   1.00
O287   O     0.87087   0.11517   0.33760   0.00000  Uiso   1.00
O288   O     0.74597   0.38446   0.20935   0.00000  Uiso   1.00
O289   O     0.91414   0.29362   0.03908   0.00000  Uiso   1.00
O290   O     0.79551   0.17514   0.46728   0.00000  Uiso   1.00
O291   O     0.83333   0.31547   0.21026   0.00000  Uiso   1.00
O292   O     0.83334   0.18453   0.21026   0.00000  Uiso   1.00
O293   O     0.83333   0.31547   0.28974   0.00000  Uiso   1.00
O294   O     0.75725   0.25000   0.28044   0.00000  Uiso   1.00
O295   O     0.90942   0.25000   0.21955   0.00000  Uiso   1.00
O296   O     0.75725   0.25000   0.20096   0.00000  Uiso   1.00
O297   O     0.90942   0.25001   0.29903   0.00000  Uiso   1.00
O298   O     0.98851   0.22910   0.18858   0.00000  Uiso   1.00
Zn299  Zn    0.83333   0.25001   0.30307   0.00000  Uiso   1.00
Zn300  Zn    0.83333   0.25000   0.19693   0.00000  Uiso   1.00
C301   C     0.16847   0.66383   0.25076   0.00000  Uiso   1.00
C302   C     0.14662   0.71326   0.44592   0.00000  Uiso   1.00
C303   C     0.16623   0.75064   0.02671   0.00000  Uiso   1.00
C304   C     0.16567   0.75047   0.47319   0.00000  Uiso   1.00
C305   C     0.06735   0.74915   0.23795   0.00000  Uiso   1.00
C306   C     0.26597   0.75035   0.26211   0.00000  Uiso   1.00
C307   C     0.01295   0.74387   0.23213   0.00000  Uiso   1.00
C308   C     0.32048   0.75450   0.26835   0.00000  Uiso   1.00
C309   C     0.18566   0.54612   0.29727   0.00000  Uiso   1.00
C310   C     0.12317   0.95313   0.23508   0.00000  Uiso   1.00
C311   C     0.18843   0.59262   0.29600   0.00000  Uiso   1.00
C312   C     0.16692   0.83584   0.24953   0.00000  Uiso   1.00
C313   C     0.12338   0.90696   0.22997   0.00000  Uiso   1.00
C314   C     0.17297   0.61570   0.25255   0.00000  Uiso   1.00
C315   C     0.16799   0.88341   0.24868   0.00000  Uiso   1.00
C316   C     0.16168   0.59241   0.21023   0.00000  Uiso   1.00
C317   C     0.21347   0.90522   0.26827   0.00000  Uiso   1.00
C318   C     0.16249   0.54643   0.21120   0.00000  Uiso   1.00
C319   C     0.21471   0.95125   0.26968   0.00000  Uiso   1.00
C320   C     0.17242   0.52330   0.25460   0.00000  Uiso   1.00
C321   C     0.16954   0.97513   0.25401   0.00000  Uiso   1.00
C322   C     0.32201   0.68188   0.18905   0.00000  Uiso   1.00
C323   C     0.12630   0.72929   0.04850   0.00000  Uiso   1.00
C324   C     0.28962   0.66534   0.14397   0.00000  Uiso   1.00
C325   C     0.00819   0.81470   0.31546   0.00000  Uiso   1.00
C326   C     0.04315   0.83024   0.35956   0.00000  Uiso   1.00
C327   C     0.25784   0.62559   0.33989   0.00000  Uiso   1.00
C328   C     0.27509   0.65355   0.38341   0.00000  Uiso   1.00
C329   C     0.07961   0.88510   0.15966   0.00000  Uiso   1.00
C330   C     0.03293   0.85871   0.13630   0.00000  Uiso   1.00
C331   C     0.28648   0.76230   0.03445   0.00000  Uiso   1.00
C332   C     0.32484   0.78315   0.00408   0.00000  Uiso   1.00
C333   C     0.17095   0.64577   0.47864   0.00000  Uiso   1.00
C334   C     0.18446   0.78743   0.44837   0.00000  Uiso   1.00
C335   C     0.15375   0.60643   0.00782   0.00000  Uiso   1.00
C336   C     0.12806   0.72825   0.09809   0.00000  Uiso   1.00
C337   C     0.18671   0.78571   0.39933   0.00000  Uiso   1.00
C338   C     0.20409   0.77349   0.10619   0.00000  Uiso   1.00
C339   C     0.14375   0.71541   0.39607   0.00000  Uiso   1.00
C340   C     0.20668   0.77196   0.05706   0.00000  Uiso   1.00
Cl341  Cl    0.19702   0.51751   0.35269   0.00000  Uiso   1.00
Cl342  Cl    0.06441   0.98234   0.21944   0.00000  Uiso   1.00
Cl343  Cl    0.24778   0.80883   0.14077   0.00000  Uiso   1.00
Cl344  Cl    0.10626   0.67433   0.36331   0.00000  Uiso   1.00
H345   H     0.15133   0.60961   0.17639   0.00000  Uiso   1.00
H346   H     0.02908   0.66945   0.19025   0.00000  Uiso   1.00
H347   H     0.30670   0.67781   0.11233   0.00000  Uiso   1.00
H348   H     0.28888   0.62822   0.14418   0.00000  Uiso   1.00
H349   H     0.24909   0.67742   0.14179   0.00000  Uiso   1.00
H350   H     0.30085   0.82414   0.31856   0.00000  Uiso   1.00
H351   H     0.02112   0.83231   0.28399   0.00000  Uiso   1.00
H352   H     0.08426   0.82223   0.35688   0.00000  Uiso   1.00
H353   H     0.03986   0.86696   0.36290   0.00000  Uiso   1.00
H354   H     0.03145   0.81331   0.39172   0.00000  Uiso   1.00
H355   H     0.26625   0.64535   0.30803   0.00000  Uiso   1.00
H356   H     0.24802   0.88663   0.28181   0.00000  Uiso   1.00
H357   H     0.28114   0.59446   0.34292   0.00000  Uiso   1.00
H358   H     0.26957   0.63419   0.41616   0.00000  Uiso   1.00
H359   H     0.31691   0.66279   0.38484   0.00000  Uiso   1.00
H360   H     0.25203   0.68462   0.38167   0.00000  Uiso   1.00
H361   H     0.11542   0.86960   0.15013   0.00000  Uiso   1.00
H362   H     0.07700   0.91992   0.14491   0.00000  Uiso   1.00
H363   H     0.32996   0.87472   0.14355   0.00000  Uiso   1.00
H364   H     0.03330   0.85829   0.09732   0.00000  Uiso   1.00
H365   H     0.03411   0.82376   0.15041   0.00000  Uiso   1.00
H366   H     0.27025   0.73122   0.01677   0.00000  Uiso   1.00
H367   H     0.15369   0.52867   0.17819   0.00000  Uiso   1.00
H368   H     0.30777   0.75340   0.07003   0.00000  Uiso   1.00
H369   H     0.01134   0.81257   0.02201   0.00000  Uiso   1.00
H370   H     0.02109   0.75833   0.49822   0.00000  Uiso   1.00
H371   H     0.30406   0.79394   0.46900   0.00000  Uiso   1.00
H372   H     0.20475   0.66249   0.00011   0.00000  Uiso   1.00
H373   H     0.18335   0.63271   0.44566   0.00000  Uiso   1.00
H374   H     0.12051   0.58849   0.48727   0.00000  Uiso   1.00
H375   H     0.18646   0.58290   0.01675   0.00000  Uiso   1.00
H376   H     0.14167   0.61850   0.04127   0.00000  Uiso   1.00
H377   H     0.25066   0.96831   0.28335   0.00000  Uiso   1.00
H378   H     0.09330   0.71360   0.02766   0.00000  Uiso   1.00
H379   H     0.19727   0.81789   0.46636   0.00000  Uiso   1.00
H380   H     0.09761   0.71095   0.11403   0.00000  Uiso   1.00
H381   H     0.20293   0.81381   0.38145   0.00000  Uiso   1.00
H382   H     0.30460   0.66762   0.21998   0.00000  Uiso   1.00
N383   N     0.16667   0.74999   0.12623   0.00000  Uiso   1.00
N384   N     0.16667   0.75001   0.37376   0.00000  Uiso   1.00
O385   O     0.16667   0.68454   0.28974   0.00000  Uiso   1.00
O386   O     0.01189   0.76783   0.31241   0.00000  Uiso   1.00
O387   O     0.20420   0.61517   0.33760   0.00000  Uiso   1.00
O388   O     0.07930   0.88446   0.20935   0.00000  Uiso   1.00
O389   O     0.24747   0.79362   0.03908   0.00000  Uiso   1.00
O390   O     0.12885   0.67514   0.46728   0.00000  Uiso   1.00
O391   O     0.16666   0.81547   0.21026   0.00000  Uiso   1.00
O392   O     0.16667   0.68453   0.21026   0.00000  Uiso   1.00
O393   O     0.16666   0.81547   0.28974   0.00000  Uiso   1.00
O394   O     0.09058   0.75000   0.28044   0.00000  Uiso   1.00
O395   O     0.24275   0.75000   0.21955   0.00000  Uiso   1.00
O396   O     0.09058   0.75000   0.20096   0.00000  Uiso   1.00
O397   O     0.24275   0.75001   0.29903   0.00000  Uiso   1.00
O398   O     0.32184   0.72910   0.18858   0.00000  Uiso   1.00
Zn399  Zn    0.16667   0.75001   0.30307   0.00000  Uiso   1.00
Zn400  Zn    0.16667   0.75000   0.19693   0.00000  Uiso   1.00
C401   C     0.50181   0.66383   0.25076   0.00000  Uiso   1.00
C402   C     0.47995   0.71326   0.44592   0.00000  Uiso   1.00
C403   C     0.49956   0.75064   0.02671   0.00000  Uiso   1.00
C404   C     0.49901   0.75047   0.47319   0.00000  Uiso   1.00
C405   C     0.40068   0.74915   0.23795   0.00000  Uiso   1.00
C406   C     0.59930   0.75035   0.26211   0.00000  Uiso   1.00
C407   C     0.34629   0.74387   0.23213   0.00000  Uiso   1.00
C408   C     0.65381   0.75450   0.26835   0.00000  Uiso   1.00
C409   C     0.51899   0.54612   0.29727   0.00000  Uiso   1.00
C410   C     0.45651   0.95313   0.23508   0.00000  Uiso   1.00
C411   C     0.52176   0.59262   0.29600   0.00000  Uiso   1.00
C412   C     0.50025   0.83584   0.24953   0.00000  Uiso   1.00
C413   C     0.45671   0.90696   0.22997   0.00000  Uiso   1.00
C414   C     0.50630   0.61570   0.25255   0.00000  Uiso   1.00
C415   C     0.50132   0.88341   0.24868   0.00000  Uiso   1.00
C416   C     0.49501   0.59241   0.21023   0.00000  Uiso   1.00
C417   C     0.54681   0.90522   0.26827   0.00000  Uiso   1.00
C418   C     0.49582   0.54643   0.21120   0.00000  Uiso   1.00
C419   C     0.54805   0.95125   0.26968   0.00000  Uiso   1.00
C420   C     0.50576   0.52330   0.25460   0.00000  Uiso   1.00
C421   C     0.50287   0.97513   0.25401   0.00000  Uiso   1.00
C422   C     0.65535   0.68188   0.18905   0.00000  Uiso   1.00
C423   C     0.45963   0.72929   0.04850   0.00000  Uiso   1.00
C424   C     0.62295   0.66534   0.14397   0.00000  Uiso   1.00
C425   C     0.34152   0.81470   0.31546   0.00000  Uiso   1.00
C426   C     0.37648   0.83024   0.35956   0.00000  Uiso   1.00
C427   C     0.59118   0.62559   0.33989   0.00000  Uiso   1.00
C428   C     0.60842   0.65355   0.38341   0.00000  Uiso   1.00
C429   C     0.41294   0.88510   0.15966   0.00000  Uiso   1.00
C430   C     0.36626   0.85871   0.13630   0.00000  Uiso   1.00
C431   C     0.61982   0.76230   0.03445   0.00000  Uiso   1.00
C432   C     0.65817   0.78315   0.00408   0.00000  Uiso   1.00
C433   C     0.50428   0.64577   0.47864   0.00000  Uiso   1.00
C434   C     0.51779   0.78743   0.44837   0.00000  Uiso   1.00
C435   C     0.48708   0.60643   0.00782   0.00000  Uiso   1.00
C436   C     0.46139   0.72825   0.09809   0.00000  Uiso   1.00
C437   C     0.52004   0.78571   0.39933   0.00000  Uiso   1.00
C438   C     0.53743   0.77349   0.10619   0.00000  Uiso   1.00
C439   C     0.47709   0.71541   0.39607   0.00000  Uiso   1.00
C440   C     0.54002   0.77196   0.05706   0.00000  Uiso   1.00
Cl441  Cl    0.53035   0.51751   0.35269   0.00000  Uiso   1.00
Cl442  Cl    0.39775   0.98234   0.21944   0.00000  Uiso   1.00
Cl443  Cl    0.58111   0.80883   0.14077   0.00000  Uiso   1.00
Cl444  Cl    0.43960   0.67433   0.36331   0.00000  Uiso   1.00
H445   H     0.48467   0.60961   0.17639   0.00000  Uiso   1.00
H446   H     0.36242   0.66945   0.19025   0.00000  Uiso   1.00
H447   H     0.64004   0.67781   0.11233   0.00000  Uiso   1.00
H448   H     0.62221   0.62822   0.14418   0.00000  Uiso   1.00
H449   H     0.58242   0.67742   0.14179   0.00000  Uiso   1.00
H450   H     0.63419   0.82414   0.31856   0.00000  Uiso   1.00
H451   H     0.35445   0.83231   0.28399   0.00000  Uiso   1.00
H452   H     0.41760   0.82223   0.35688   0.00000  Uiso   1.00
H453   H     0.37319   0.86696   0.36290   0.00000  Uiso   1.00
H454   H     0.36478   0.81331   0.39172   0.00000  Uiso   1.00
H455   H     0.59959   0.64535   0.30803   0.00000  Uiso   1.00
H456   H     0.58135   0.88663   0.28181   0.00000  Uiso   1.00
H457   H     0.61448   0.59446   0.34292   0.00000  Uiso   1.00
H458   H     0.60290   0.63419   0.41616   0.00000  Uiso   1.00
H459   H     0.65025   0.66279   0.38484   0.00000  Uiso   1.00
H460   H     0.58536   0.68462   0.38167   0.00000  Uiso   1.00
H461   H     0.44875   0.86960   0.15013   0.00000  Uiso   1.00
H462   H     0.41033   0.91992   0.14491   0.00000  Uiso   1.00
H463   H     0.66329   0.87472   0.14355   0.00000  Uiso   1.00
H464   H     0.36663   0.85829   0.09732   0.00000  Uiso   1.00
H465   H     0.36744   0.82376   0.15041   0.00000  Uiso   1.00
H466   H     0.60359   0.73122   0.01677   0.00000  Uiso   1.00
H467   H     0.48702   0.52867   0.17819   0.00000  Uiso   1.00
H468   H     0.64110   0.75340   0.07003   0.00000  Uiso   1.00
H469   H     0.34467   0.81257   0.02201   0.00000  Uiso   1.00
H470   H     0.35443   0.75833   0.49822   0.00000  Uiso   1.00
H471   H     0.63740   0.79394   0.46900   0.00000  Uiso   1.00
H472   H     0.53809   0.66249   0.00011   0.00000  Uiso   1.00
H473   H     0.51669   0.63271   0.44566   0.00000  Uiso   1.00
H474   H     0.45384   0.58849   0.48727   0.00000  Uiso   1.00
H475   H     0.51980   0.58290   0.01675   0.00000  Uiso   1.00
H476   H     0.47500   0.61850   0.04127   0.00000  Uiso   1.00
H477   H     0.58399   0.96831   0.28335   0.00000  Uiso   1.00
H478   H     0.42663   0.71360   0.02766   0.00000  Uiso   1.00
H479   H     0.53060   0.81789   0.46636   0.00000  Uiso   1.00
H480   H     0.43094   0.71095   0.11403   0.00000  Uiso   1.00
H481   H     0.53627   0.81381   0.38145   0.00000  Uiso   1.00
H482   H     0.63793   0.66762   0.21998   0.00000  Uiso   1.00
N483   N     0.50000   0.74999   0.12623   0.00000  Uiso   1.00
N484   N     0.50000   0.75001   0.37376   0.00000  Uiso   1.00
O485   O     0.50000   0.68454   0.28974   0.00000  Uiso   1.00
O486   O     0.34522   0.76783   0.31241   0.00000  Uiso   1.00
O487   O     0.53754   0.61517   0.33760   0.00000  Uiso   1.00
O488   O     0.41264   0.88446   0.20935   0.00000  Uiso   1.00
O489   O     0.58081   0.79362   0.03908   0.00000  Uiso   1.00
O490   O     0.46218   0.67514   0.46728   0.00000  Uiso   1.00
O491   O     0.50000   0.81547   0.21026   0.00000  Uiso   1.00
O492   O     0.50000   0.68453   0.21026   0.00000  Uiso   1.00
O493   O     0.50000   0.81547   0.28974   0.00000  Uiso   1.00
O494   O     0.42392   0.75000   0.28044   0.00000  Uiso   1.00
O495   O     0.57608   0.75000   0.21955   0.00000  Uiso   1.00
O496   O     0.42392   0.75000   0.20096   0.00000  Uiso   1.00
O497   O     0.57608   0.75001   0.29903   0.00000  Uiso   1.00
O498   O     0.65518   0.72910   0.18858   0.00000  Uiso   1.00
Zn499  Zn    0.50000   0.75001   0.30307   0.00000  Uiso   1.00
Zn500  Zn    0.50000   0.75000   0.19693   0.00000  Uiso   1.00
C501   C     0.83514   0.66383   0.25076   0.00000  Uiso   1.00
C502   C     0.81329   0.71326   0.44592   0.00000  Uiso   1.00
C503   C     0.83290   0.75064   0.02671   0.00000  Uiso   1.00
C504   C     0.83234   0.75047   0.47319   0.00000  Uiso   1.00
C505   C     0.73402   0.74915   0.23795   0.00000  Uiso   1.00
C506   C     0.93264   0.75035   0.26211   0.00000  Uiso   1.00
C507   C     0.67962   0.74387   0.23213   0.00000  Uiso   1.00
C508   C     0.98714   0.75450   0.26835   0.00000  Uiso   1.00
C509   C     0.85232   0.54612   0.29727   0.00000  Uiso   1.00
C510   C     0.78984   0.95313   0.23508   0.00000  Uiso   1.00
C511   C     0.85510   0.59262   0.29600   0.00000  Uiso   1.00
C512   C     0.83358   0.83584   0.24953   0.00000  Uiso   1.00
C513   C     0.79004   0.90696   0.22997   0.00000  Uiso   1.00
C514   C     0.83963   0.61570   0.25255   0.00000  Uiso   1.00
C515   C     0.83465   0.88341   0.24868   0.00000  Uiso   1.00
C516   C     0.82835   0.59241   0.21023   0.00000  Uiso   1.00
C517   C     0.88014   0.90522   0.26827   0.00000  Uiso   1.00
C518   C     0.82915   0.54643   0.21120   0.00000  Uiso   1.00
C519   C     0.88138   0.95125   0.26968   0.00000  Uiso   1.00
C520   C     0.83909   0.52330   0.25460   0.00000  Uiso   1.00
C521   C     0.83620   0.97513   0.25401   0.00000  Uiso   1.00
C522   C     0.98868   0.68188   0.18905   0.00000  Uiso   1.00
C523   C     0.79297   0.72929   0.04850   0.00000  Uiso   1.00
C524   C     0.95629   0.66534   0.14397   0.00000  Uiso   1.00
C525   C     0.67486   0.81470   0.31546   0.00000  Uiso   1.00
C526   C     0.70981   0.83024   0.35956   0.00000  Uiso   1.00
C527   C     0.92451   0.62559   0.33989   0.00000  Uiso   1.00
C528   C     0.94175   0.65355   0.38341   0.00000  Uiso   1.00
C529   C     0.74628   0.88510   0.15966   0.00000  Uiso   1.00
C530   C     0.69960   0.85871   0.13630   0.00000  Uiso   1.00
C531   C     0.95315   0.76230   0.03445   0.00000  Uiso   1.00
C532   C     0.99150   0.78315   0.00408   0.00000  Uiso   1.00
C533   C     0.83761   0.64577   0.47864   0.00000  Uiso   1.00
C534   C     0.85112   0.78743   0.44837   0.00000  Uiso   1.00
C535   C     0.82042   0.60643   0.00782   0.00000  Uiso   1.00
C536   C     0.79472   0.72825   0.09809   0.00000  Uiso   1.00
C537   C     0.85338   0.78571   0.39933   0.00000  Uiso   1.00
C538   C     0.87076   0.77349   0.10619   0.00000  Uiso   1.00
C539   C     0.81042   0.71541   0.39607   0.00000  Uiso   1.00
C540   C     0.87335   0.77196   0.05706   0.00000  Uiso   1.00
Cl541  Cl    0.86368   0.51751   0.35269   0.00000  Uiso   1.00
Cl542  Cl    0.73108   0.98234   0.21944   0.00000  Uiso   1.00
Cl543  Cl    0.91445   0.80883   0.14077   0.00000  Uiso   1.00
Cl544  Cl    0.77293   0.67433   0.36331   0.00000  Uiso   1.00
H545   H     0.81800   0.60961   0.17639   0.00000  Uiso   1.00
H546   H     0.69575   0.66945   0.19025   0.00000  Uiso   1.00
H547   H     0.97337   0.67781   0.11233   0.00000  Uiso   1.00
H548   H     0.95554   0.62822   0.14418   0.00000  Uiso   1.00
H549   H     0.91575   0.67742   0.14179   0.00000  Uiso   1.00
H550   H     0.96752   0.82414   0.31856   0.00000  Uiso   1.00
H551   H     0.68779   0.83231   0.28399   0.00000  Uiso   1.00
H552   H     0.75093   0.82223   0.35688   0.00000  Uiso   1.00
H553   H     0.70653   0.86696   0.36290   0.00000  Uiso   1.00
H554   H     0.69811   0.81331   0.39172   0.00000  Uiso   1.00
H555   H     0.93292   0.64535   0.30803   0.00000  Uiso   1.00
H556   H     0.91468   0.88663   0.28181   0.00000  Uiso   1.00
H557   H     0.94781   0.59446   0.34292   0.00000  Uiso   1.00
H558   H     0.93624   0.63419   0.41616   0.00000  Uiso   1.00
H559   H     0.98358   0.66279   0.38484   0.00000  Uiso   1.00
H560   H     0.91869   0.68462   0.38167   0.00000  Uiso   1.00
H561   H     0.78208   0.86960   0.15013   0.00000  Uiso   1.00
H562   H     0.74367   0.91992   0.14491   0.00000  Uiso   1.00
H563   H     0.99662   0.87472   0.14355   0.00000  Uiso   1.00
H564   H     0.69996   0.85829   0.09732   0.00000  Uiso   1.00
H565   H     0.70077   0.82376   0.15041   0.00000  Uiso   1.00
H566   H     0.93692   0.73122   0.01677   0.00000  Uiso   1.00
H567   H     0.82036   0.52867   0.17819   0.00000  Uiso   1.00
H568   H     0.97443   0.75340   0.07003   0.00000  Uiso   1.00
H569   H     0.67801   0.81257   0.02201   0.00000  Uiso   1.00
H570   H     0.68776   0.75833   0.49822   0.00000  Uiso   1.00
H571   H     0.97073   0.79394   0.46900   0.00000  Uiso   1.00
H572   H     0.87142   0.66249   0.00011   0.00000  Uiso   1.00
H573   H     0.85002   0.63271   0.44566   0.00000  Uiso   1.00
H574   H     0.78717   0.58849   0.48727   0.00000  Uiso   1.00
H575   H     0.85313   0.58290   0.01675   0.00000  Uiso   1.00
H576   H     0.80833   0.61850   0.04127   0.00000  Uiso   1.00
H577   H     0.91733   0.96831   0.28335   0.00000  Uiso   1.00
H578   H     0.75996   0.71360   0.02766   0.00000  Uiso   1.00
H579   H     0.86394   0.81789   0.46636   0.00000  Uiso   1.00
H580   H     0.76427   0.71095   0.11403   0.00000  Uiso   1.00
H581   H     0.86960   0.81381   0.38145   0.00000  Uiso   1.00
H582   H     0.97127   0.66762   0.21998   0.00000  Uiso   1.00
N583   N     0.83333   0.74999   0.12623   0.00000  Uiso   1.00
N584   N     0.83333   0.75001   0.37376   0.00000  Uiso   1.00
O585   O     0.83334   0.68454   0.28974   0.00000  Uiso   1.00
O586   O     0.67856   0.76783   0.31241   0.00000  Uiso   1.00
O587   O     0.87087   0.61517   0.33760   0.00000  Uiso   1.00
O588   O     0.74597   0.88446   0.20935   0.00000  Uiso   1.00
O589   O     0.91414   0.79362   0.03908   0.00000  Uiso   1.00
O590   O     0.79551   0.67514   0.46728   0.00000  Uiso   1.00
O591   O     0.83333   0.81547   0.21026   0.00000  Uiso   1.00
O592   O     0.83334   0.68453   0.21026   0.00000  Uiso   1.00
O593   O     0.83333   0.81547   0.28974   0.00000  Uiso   1.00
O594   O     0.75725   0.75000   0.28044   0.00000  Uiso   1.00
O595   O     0.90942   0.75000   0.21955   0.00000  Uiso   1.00
O596   O     0.75725   0.75000   0.20096   0.00000  Uiso   1.00
O597   O     0.90942   0.75001   0.29903   0.00000  Uiso   1.00
O598   O     0.98851   0.72910   0.18858   0.00000  Uiso   1.00
Zn599  Zn    0.83333   0.75001   0.30307   0.00000  Uiso   1.00
Zn600  Zn    0.83333   0.75000   0.19693   0.00000  Uiso   1.00
C601   C     0.16847   0.16383   0.75076   0.00000  Uiso   1.00
C602   C     0.14662   0.21326   0.94592   0.00000  Uiso   1.00
C603   C     0.16623   0.25064   0.52671   0.00000  Uiso   1.00
C604   C     0.16567   0.25047   0.97319   0.00000  Uiso   1.00
C605   C     0.06735   0.24915   0.73795   0.00000  Uiso   1.00
C606   C     0.26597   0.25035   0.76211   0.00000  Uiso   1.00
C607   C     0.01295   0.24387   0.73213   0.00000  Uiso   1.00
C608   C     0.32048   0.25450   0.76835   0.00000  Uiso   1.00
C609   C     0.18566   0.04612   0.79727   0.00000  Uiso   1.00
C610   C     0.12317   0.45313   0.73508   0.00000  Uiso   1.00
C611   C     0.18843   0.09262   0.79600   0.00000  Uiso   1.00
C612   C     0.16692   0.33584   0.74953   0.00000  Uiso   1.00
C613   C     0.12338   0.40696   0.72997   0.00000  Uiso   1.00
C614   C     0.17297   0.11570   0.75255   0.00000  Uiso   1.00
C615   C     0.16799   0.38341   0.74868   0.00000  Uiso   1.00
C616   C     0.16168   0.09241   0.71023   0.00000  Uiso   1.00
C617   C     0.21347   0.40522   0.76827   0.00000  Uiso   1.00
C618   C     0.16249   0.04643   0.71120   0.00000  Uiso   1.00
C619   C     0.21471   0.45125   0.76968   0.00000  Uiso   1.00
C620   C     0.17242   0.02330   0.75460   0.00000  Uiso   1.00
C621   C     0.16954   0.47513   0.75401   0.00000  Uiso   1.00
C622   C     0.32201   0.18188   0.68905   0.00000  Uiso   1.00
C623   C     0.12630   0.22929   0.54850   0.00000  Uiso   1.00
C624   C     0.28962   0.16534   0.64397   0.00000  Uiso   1.00
C625   C     0.00819   0.31470   0.81546   0.00000  Uiso   1.00
C626   C     0.04315   0.33024   0.85956   0.00000  Uiso   1.00
C627   C     0.25784   0.12559   0.83989   0.00000  Uiso   1.00
C628   C     0.27509   0.15355   0.88341   0.00000  Uiso   1.00
C629   C     0.07961   0.38510   0.65966   0.00000  Uiso   1.00
C630   C     0.03293   0.35871   0.63630   0.00000  Uiso   1.00
C631   C     0.28648   0.26230   0.53445   0.00000  Uiso   1.00
C632   C     0.32484   0.28315   0.50408   0.00000  Uiso   1.00
C633   C     0.17095   0.14577   0.97864   0.00000  Uiso   1.00
C634   C     0.18446   0.28743   0.94837   0.00000  Uiso   1.00
C635   C     0.15375   0.10643   0.50782   0.00000  Uiso   1.00
C636   C     0.12806   0.22825   0.59809   0.00000  Uiso   1.00
C637   C     0.18671   0.28571   0.89933   0.00000  Uiso   1.00
C638   C     0.20409   0.27349   0.60619   0.00000  Uiso   1.00
C639   C     0.14375   0.21541   0.89607   0.00000  Uiso   1.00
C640   C     0.20668   0.27196   0.55706   0.00000  Uiso   1.00
Cl641  Cl    0.19702   0.01751   0.85269   0.00000  Uiso   1.00
Cl642  Cl    0.06441   0.48234   0.71944   0.00000  Uiso   1.00
Cl643  Cl    0.24778   0.30883   0.64077   0.00000  Uiso   1.00
Cl644  Cl    0.10626   0.17433   0.86331   0.00000  Uiso   1.00
H645   H     0.15133   0.10961   0.67639   0.00000  Uiso   1.00
H646   H     0.02908   0.16945   0.69025   0.00000  Uiso   1.00
H647   H     0.30670   0.17781   0.61233   0.00000  Uiso   1.00
H648   H     0.28888   0.12822   0.64418   0.00000  Uiso   1.00
H649   H     0.24909   0.17742   0.64179   0.00000  Uiso   1.00
H650   H     0.30085   0.32414   0.81856   0.00000  Uiso   1.00
H651   H     0.02112   0.33231   0.78399   0.00000  Uiso   1.00
H652   H     0.08426   0.32223   0.85688   0.00000  Uiso   1.00
H653   H     0.03986   0.36696   0.86290   0.00000  Uiso   1.00
H654   H     0.03145   0.31331   0.89172   0.00000  Uiso   1.00
H655   H     0.26625   0.14535   0.80803   0.00000  Uiso   1.00
H656   H     0.24802   0.38663   0.78181   0.00000  Uiso   1.00
H657   H     0.28114   0.09446   0.84292   0.00000  Uiso   1.00
H658   H     0.26957   0.13419   0.91616   0.00000  Uiso   1.00
H659   H     0.31691   0.16279   0.88484   0.00000  Uiso   1.00
H660   H     0.25203   0.18462   0.88167   0.00000  Uiso   1.00
H661   H     0.11542   0.36960   0.65013   0.00000  Uiso   1.00
H662   H     0.07700   0.41992   0.64491   0.00000  Uiso   1.00
H663   H     0.32996   0.37472   0.64355   0.00000  Uiso   1.00
H664   H     0.03330   0.35829   0.59732   0.00000  Uiso   1.00
H665   H     0.03411   0.32376   0.65041   0.00000  Uiso   1.00
H666   H     0.27025   0.23122   0.51677   0.00000  Uiso   1.00
H667   H     0.15369   0.02867   0.67819   0.00000  Uiso   1.00
H668   H     0.30777   0.25340   0.57003   0.00000  Uiso   1.00
H669   H     0.01134   0.31257   0.52201   0.00000  Uiso   1.00
H670   H     0.02109   0.25833   0.99822   0.00000  Uiso   1.00
H671   H     0.30406   0.29394   0.96900   0.00000  Uiso   1.00
H672   H     0.20475   0.16249   0.50011   0.00000  Uiso   1.00
H673   H     0.18335   0.13271   0.94566   0.00000  Uiso   1.00
H674   H     0.12051   0.08849   0.98727   0.00000  Uiso   1.00
H675   H     0.18646   0.08290   0.51675   0.00000  Uiso   1.00
H676   H     0.14167   0.11850   0.54127   0.00000  Uiso   1.00
H677   H     0.25066   0.46831   0.78335   0.00000  Uiso   1.00
H678   H     0.09330   0.21360   0.52766   0.00000  Uiso   1.00
H679   H     0.19727   0.31789   0.96636   0.00000  Uiso   1.00
H680   H     0.09761   0.21095   0.61403   0.00000  Uiso   1.00
H681   H     0.20293   0.31381   0.88145   0.00000  Uiso   1.00
H682   H     0.30460   0.16762   0.71998   0.00000  Uiso   1.00
N683   N     0.16667   0.24999   0.62623   0.00000  Uiso   1.00
N684   N     0.16667   0.25001   0.87376   0.00000  Uiso   1.00
O685   O     0.16667   0.18454   0.78974   0.00000  Uiso   1.00
O686   O     0.01189   0.26783   0.81241   0.00000  Uiso   1.00
O687   O     0.20420   0.11517   0.83760   0.00000  Uiso   1.00
O688   O     0.07930   0.38446   0.70935   0.00000  Uiso   1.00
O689   O     0.24747   0.29362   0.53908   0.00000  Uiso   1.00
O690   O     0.12885   0.17514   0.96728   0.00000  Uiso   1.00
O691   O     0.16666   0.31547   0.71026   0.00000  Uiso   1.00
O692   O     0.16667   0.18453   0.71026   0.00000  Uiso   1.00
O693   O     0.16666   0.31547   0.78974   0.00000  Uiso   1.00
O694   O     0.09058   0.25000   0.78044   0.00000  Uiso   1.00
O695   O     0.24275   0.25000   0.71955   0.00000  Uiso   1.00
O696   O     0.09058   0.25000   0.70096   0.00000  Uiso   1.00
O697   O     0.24275   0.25001   0.79903   0.00000  Uiso   1.00
O698   O     0.32184   0.22910   0.68858   0.00000  Uiso   1.00
Zn699  Zn    0.16667   0.25001   0.80307   0.00000  Uiso   1.00
Zn700  Zn    0.16667   0.25000   0.69693   0.00000  Uiso   1.00
C701   C     0.50181   0.16383   0.75076   0.00000  Uiso   1.00
C702   C     0.47995   0.21326   0.94592   0.00000  Uiso   1.00
C703   C     0.49956   0.25064   0.52671   0.00000  Uiso   1.00
C704   C     0.49901   0.25047   0.97319   0.00000  Uiso   1.00
C705   C     0.40068   0.24915   0.73795   0.00000  Uiso   1.00
C706   C     0.59930   0.25035   0.76211   0.00000  Uiso   1.00
C707   C     0.34629   0.24387   0.73213   0.00000  Uiso   1.00
C708   C     0.65381   0.25450   0.76835   0.00000  Uiso   1.00
C709   C     0.51899   0.04612   0.79727   0.00000  Uiso   1.00
C710   C     0.45651   0.45313   0.73508   0.00000  Uiso   1.00
C711   C     0.52176   0.09262   0.79600   0.00000  Uiso   1.00
C712   C     0.50025   0.33584   0.74953   0.00000  Uiso   1.00
C713   C     0.45671   0.40696   0.72997   0.00000  Uiso   1.00
C714   C     0.50630   0.11570   0.75255   0.00000  Uiso   1.00
C715   C     0.50132   0.38341   0.74868   0.00000  Uiso   1.00
C716   C     0.49501   0.09241   0.71023   0.00000  Uiso   1.00
C717   C     0.54681   0.40522   0.76827   0.00000  Uiso   1.00
C718   C     0.49582   0.04643   0.71120   0.00000  Uiso   1.00
C719   C     0.54805   0.45125   0.76968   0.00000  Uiso   1.00
C720   C     0.50576   0.02330   0.75460   0.00000  Uiso   1.00
C721   C     0.50287   0.47513   0.75401   0.00000  Uiso   1.00
C722   C     0.65535   0.18188   0.68905   0.00000  Uiso   1.00
C723   C     0.45963   0.22929   0.54850   0.00000  Uiso   1.00
C724   C     0.62295   0.16534   0.64397   0.00000  Uiso   1.00
C725   C     0.34152   0.31470   0.81546   0.00000  Uiso   1.00
C726   C     0.37648   0.33024   0.85956   0.00000  Uiso   1.00
C727   C     0.59118   0.12559   0.83989   0.00000  Uiso   1.00
C728   C     0.60842   0.15355   0.88341   0.00000  Uiso   1.00
C729   C     0.41294   0.38510   0.65966   0.00000  Uiso   1.00
C730   C     0.36626   0.35871   0.63630   0.00000  Uiso   1.00
C731   C     0.61982   0.26230   0.53445   0.00000  Uiso   1.00
C732   C     0.65817   0.28315   0.50408   0.00000  Uiso   1.00
C733   C     0.50428   0.14577   0.97864   0.00000  Uiso   1.00
C734   C     0.51779   0.28743   0.94837   0.00000  Uiso   1.00
C735   C     0.48708   0.10643   0.50782   0.00000  Uiso   1.00
C736   C     0.46139   0.22825   0.59809   0.00000  Uiso   1.00
C737   C     0.52004   0.28571   0.89933   0.00000  Uiso   1.00
C738   C     0.53743   0.27349   0.60619   0.00000  Uiso   1.00
C739   C     0.47709   0.21541   0.89607   0.00000  Uiso   1.00
C740   C     0.54002   0.27196   0.55706   0.00000  Uiso   1.00
Cl741  Cl    0.53035   0.01751   0.85269   0.00000  Uiso   1.00
Cl742  Cl    0.39775   0.48234   0.71944   0.00000  Uiso   1.00
Cl743  Cl    0.58111   0.30883   0.64077   0.00000  Uiso   1.00
Cl744  Cl    0.43960   0.17433   0.86331   0.00000  Uiso   1.00
H745   H     0.48467   0.10961   0.67639   0.00000  Uiso   1.00
H746   H     0.36242   0.16945   0.69025   0.00000  Uiso   1.00
H747   H     0.64004   0.17781   0.61233   0.00000  Uiso   1.00
H748   H     0.62221   0.12822   0.64418   0.00000  Uiso   1.00
H749   H     0.58242   0.17742   0.64179   0.00000  Uiso   1.00
H750   H     0.63419   0.32414   0.81856   0.00000  Uiso   1.00
H751   H     0.35445   0.33231   0.78399   0.00000  Uiso   1.00
H752   H     0.41760   0.32223   0.85688   0.00000  Uiso   1.00
H753   H     0.37319   0.36696   0.86290   0.00000  Uiso   1.00
H754   H     0.36478   0.31331   0.89172   0.00000  Uiso   1.00
H755   H     0.59959   0.14535   0.80803   0.00000  Uiso   1.00
H756   H     0.58135   0.38663   0.78181   0.00000  Uiso   1.00
H757   H     0.61448   0.09446   0.84292   0.00000  Uiso   1.00
H758   H     0.60290   0.13419   0.91616   0.00000  Uiso   1.00
H759   H     0.65025   0.16279   0.88484   0.00000  Uiso   1.00
H760   H     0.58536   0.18462   0.88167   0.00000  Uiso   1.00
H761   H     0.44875   0.36960   0.65013   0.00000  Uiso   1.00
H762   H     0.41033   0.41992   0.64491   0.00000  Uiso   1.00
H763   H     0.66329   0.37472   0.64355   0.00000  Uiso   1.00
H764   H     0.36663   0.35829   0.59732   0.00000  Uiso   1.00
H765   H     0.36744   0.32376   0.65041   0.00000  Uiso   1.00
H766   H     0.60359   0.23122   0.51677   0.00000  Uiso   1.00
H767   H     0.48702   0.02867   0.67819   0.00000  Uiso   1.00
H768   H     0.64110   0.25340   0.57003   0.00000  Uiso   1.00
H769   H     0.34467   0.31257   0.52201   0.00000  Uiso   1.00
H770   H     0.35443   0.25833   0.99822   0.00000  Uiso   1.00
H771   H     0.63740   0.29394   0.96900   0.00000  Uiso   1.00
H772   H     0.53809   0.16249   0.50011   0.00000  Uiso   1.00
H773   H     0.51669   0.13271   0.94566   0.00000  Uiso   1.00
H774   H     0.45384   0.08849   0.98727   0.00000  Uiso   1.00
H775   H     0.51980   0.08290   0.51675   0.00000  Uiso   1.00
H776   H     0.47500   0.11850   0.54127   0.00000  Uiso   1.00
H777   H     0.58399   0.46831   0.78335   0.00000  Uiso   1.00
H778   H     0.42663   0.21360   0.52766   0.00000  Uiso   1.00
H779   H     0.53060   0.31789   0.96636   0.00000  Uiso   1.00
H780   H     0.43094   0.21095   0.61403   0.00000  Uiso   1.00
H781   H     0.53627   0.31381   0.88145   0.00000  Uiso   1.00
H782   H     0.63793   0.16762   0.71998   0.00000  Uiso   1.00
N783   N     0.50000   0.24999   0.62623   0.00000  Uiso   1.00
N784   N     0.50000   0.25001   0.87376   0.00000  Uiso   1.00
O785   O     0.50000   0.18454   0.78974   0.00000  Uiso   1.00
O786   O     0.34522   0.26783   0.81241   0.00000  Uiso   1.00
O787   O     0.53754   0.11517   0.83760   0.00000  Uiso   1.00
O788   O     0.41264   0.38446   0.70935   0.00000  Uiso   1.00
O789   O     0.58081   0.29362   0.53908   0.00000  Uiso   1.00
O790   O     0.46218   0.17514   0.96728   0.00000  Uiso   1.00
O791   O     0.50000   0.31547   0.71026   0.00000  Uiso   1.00
O792   O     0.50000   0.18453   0.71026   0.00000  Uiso   1.00
O793   O     0.50000   0.31547   0.78974   0.00000  Uiso   1.00
O794   O     0.42392   0.25000   0.78044   0.00000  Uiso   1.00
O795   O     0.57608   0.25000   0.71955   0.00000  Uiso   1.00
O796   O     0.42392   0.25000   0.70096   0.00000  Uiso   1.00
O797   O     0.57608   0.25001   0.79903   0.00000  Uiso   1.00
O798   O     0.65518   0.22910   0.68858   0.00000  Uiso   1.00
Zn799  Zn    0.50000   0.25001   0.80307   0.00000  Uiso   1.00
Zn800  Zn    0.50000   0.25000   0.69693   0.00000  Uiso   1.00
C801   C     0.83514   0.16383   0.75076   0.00000  Uiso   1.00
C802   C     0.81329   0.21326   0.94592   0.00000  Uiso   1.00
C803   C     0.83290   0.25064   0.52671   0.00000  Uiso   1.00
C804   C     0.83234   0.25047   0.97319   0.00000  Uiso   1.00
C805   C     0.73402   0.24915   0.73795   0.00000  Uiso   1.00
C806   C     0.93264   0.25035   0.76211   0.00000  Uiso   1.00
C807   C     0.67962   0.24387   0.73213   0.00000  Uiso   1.00
C808   C     0.98714   0.25450   0.76835   0.00000  Uiso   1.00
C809   C     0.85232   0.04612   0.79727   0.00000  Uiso   1.00
C810   C     0.78984   0.45313   0.73508   0.00000  Uiso   1.00
C811   C     0.85510   0.09262   0.79600   0.00000  Uiso   1.00
C812   C     0.83358   0.33584   0.74953   0.00000  Uiso   1.00
C813   C     0.79004   0.40696   0.72997   0.00000  Uiso   1.00
C814   C     0.83963   0.11570   0.75255   0.00000  Uiso   1.00
C815   C     0.83465   0.38341   0.74868   0.00000  Uiso   1.00
C816   C     0.82835   0.09241   0.71023   0.00000  Uiso   1.00
C817   C     0.88014   0.40522   0.76827   0.00000  Uiso   1.00
C818   C     0.82915   0.04643   0.71120   0.00000  Uiso   1.00
C819   C     0.88138   0.45125   0.76968   0.00000  Uiso   1.00
C820   C     0.83909   0.02330   0.75460   0.00000  Uiso   1.00
C821   C     0.83620   0.47513   0.75401   0.00000  Uiso   1.00
C822   C     0.98868   0.18188   0.68905   0.00000  Uiso   1.00
C823   C     0.79297   0.22929   0.54850   0.00000  Uiso   1.00
C824   C     0.95629   0.16534   0.64397   0.00000  Uiso   1.00
C825   C     0.67486   0.31470   0.81546   0.00000  Uiso   1.00
C826   C     0.70981   0.33024   0.85956   0.00000  Uiso   1.00
C827   C     0.92451   0.12559   0.83989   0.00000  Uiso   1.00
C828   C     0.94175   0.15355   0.88341   0.00000  Uiso   1.00
C829   C     0.74628   0.38510   0.65966   0.00000  Uiso   1.00
C830   C     0.69960   0.35871   0.63630   0.00000  Uiso   1.00
C831   C     0.95315   0.26230   0.53445   0.00000  Uiso   1.00
C832   C     0.99150   0.28315   0.50408   0.00000  Uiso   1.00
C833   C     0.83761   0.14577   0.97864   0.00000  Uiso   1.00
C834   C     0.85112   0.28743   0.94837   0.00000  Uiso   1.00
C835   C     0.82042   0.10643   0.50782   0.00000  Uiso   1.00
C836   C     0.79472   0.22825   0.59809   0.00000  Uiso   1.00
C837   C     0.85338   0.28571   0.89933   0.00000  Uiso   1.00
C838   C     0.87076   0.27349   0.60619   0.00000  Uiso   1.00
C839   C     0.81042   0.21541   0.89607   0.00000  Uiso   1.00
C840   C     0.87335   0.27196   0.55706   0.00000  Uiso   1.00
Cl841  Cl    0.86368   0.01751   0.85269   0.00000  Uiso   1.00
Cl842  Cl    0.73108   0.48234   0.71944   0.00000  Uiso   1.00
Cl843  Cl    0.91445   0.30883   0.64077   0.00000  Uiso   1.00
Cl844  Cl    0.77293   0.17433   0.86331   0.00000  Uiso   1.00
H845   H     0.81800   0.10961   0.67639   0.00000  Uiso   1.00
H846   H     0.69575   0.16945   0.69025   0.00000  Uiso   1.00
H847   H     0.97337   0.17781   0.61233   0.00000  Uiso   1.00
H848   H     0.95554   0.12822   0.64418   0.00000  Uiso   1.00
H849   H     0.91575   0.17742   0.64179   0.00000  Uiso   1.00
H850   H     0.96752   0.32414   0.81856   0.00000  Uiso   1.00
H851   H     0.68779   0.33231   0.78399   0.00000  Uiso   1.00
H852   H     0.75093   0.32223   0.85688   0.00000  Uiso   1.00
H853   H     0.70653   0.36696   0.86290   0.00000  Uiso   1.00
H854   H     0.69811   0.31331   0.89172   0.00000  Uiso   1.00
H855   H     0.93292   0.14535   0.80803   0.00000  Uiso   1.00
H856   H     0.91468   0.38663   0.78181   0.00000  Uiso   1.00
H857   H     0.94781   0.09446   0.84292   0.00000  Uiso   1.00
H858   H     0.93624   0.13419   0.91616   0.00000  Uiso   1.00
H859   H     0.98358   0.16279   0.88484   0.00000  Uiso   1.00
H860   H     0.91869   0.18462   0.88167   0.00000  Uiso   1.00
H861   H     0.78208   0.36960   0.65013   0.00000  Uiso   1.00
H862   H     0.74367   0.41992   0.64491   0.00000  Uiso   1.00
H863   H     0.99662   0.37472   0.64355   0.00000  Uiso   1.00
H864   H     0.69996   0.35829   0.59732   0.00000  Uiso   1.00
H865   H     0.70077   0.32376   0.65041   0.00000  Uiso   1.00
H866   H     0.93692   0.23122   0.51677   0.00000  Uiso   1.00
H867   H     0.82036   0.02867   0.67819   0.00000  Uiso   1.00
H868   H     0.97443   0.25340   0.57003   0.00000  Uiso   1.00
H869   H     0.67801   0.31257   0.52201   0.00000  Uiso   1.00
H870   H     0.68776   0.25833   0.99822   0.00000  Uiso   1.00
H871   H     0.97073   0.29394   0.96900   0.00000  Uiso   1.00
H872   H     0.87142   0.16249   0.50011   0.00000  Uiso   1.00
H873   H     0.85002   0.13271   0.94566   0.00000  Uiso   1.00
H874   H     0.78717   0.08849   0.98727   0.00000  Uiso   1.00
H875   H     0.85313   0.08290   0.51675   0.00000  Uiso   1.00
H876   H     0.80833   0.11850   0.54127   0.00000  Uiso   1.00
H877   H     0.91733   0.46831   0.78335   0.00000  Uiso   1.00
H878   H     0.75996   0.21360   0.52766   0.00000  Uiso   1.00
H879   H     0.86394   0.31789   0.96636   0.00000  Uiso   1.00
H880   H     0.76427   0.21095   0.61403   0.00000  Uiso   1.00
H881   H     0.86960   0.31381   0.88145   0.00000  Uiso   1.00
H882   H     0.97127   0.16762   0.71998   0.00000  Uiso   1.00
N883   N     0.83333   0.24999   0.62623   0.00000  Uiso   1.00
N884   N     0.83333   0.25001   0.87376   0.00000  Uiso   1.00
O885   O     0.83334   0.18454   0.78974   0.00000  Uiso   1.00
O886   O     0.67856   0.26783   0.81241   0.00000  Uiso   1.00
O887   O     0.87087   0.11517   0.83760   0.00000  Uiso   1.00
O888   O     0.74597   0.38446   0.70935   0.00000  Uiso   1.00
O889   O     0.91414   0.29362   0.53908   0.00000  Uiso   1.00
O890   O     0.79551   0.17514   0.96728   0.00000  Uiso   1.00
O891   O     0.83333   0.31547   0.71026   0.00000  Uiso   1.00
O892   O     0.83334   0.18453   0.71026   0.00000  Uiso   1.00
O893   O     0.83333   0.31547   0.78974   0.00000  Uiso   1.00
O894   O     0.75725   0.25000   0.78044   0.00000  Uiso   1.00
O895   O     0.90942   0.25000   0.71955   0.00000  Uiso   1.00
O896   O     0.75725   0.25000   0.70096   0.00000  Uiso   1.00
O897   O     0.90942   0.25001   0.79903   0.00000  Uiso   1.00
O898   O     0.98851   0.22910   0.68858   0.00000  Uiso   1.00
Zn899  Zn    0.83333   0.25001   0.80307   0.00000  Uiso   1.00
Zn900  Zn    0.83333   0.25000   0.69693   0.00000  Uiso   1.00
C901   C     0.16847   0.66383   0.75076   0.00000  Uiso   1.00
C902   C     0.14662   0.71326   0.94592   0.00000  Uiso   1.00
C903   C     0.16623   0.75064   0.52671   0.00000  Uiso   1.00
C904   C     0.16567   0.75047   0.97319   0.00000  Uiso   1.00
C905   C     0.06735   0.74915   0.73795   0.00000  Uiso   1.00
C906   C     0.26597   0.75035   0.76211   0.00000  Uiso   1.00
C907   C     0.01295   0.74387   0.73213   0.00000  Uiso   1.00
C908   C     0.32048   0.75450   0.76835   0.00000  Uiso   1.00
C909   C     0.18566   0.54612   0.79727   0.00000  Uiso   1.00
C910   C     0.12317   0.95313   0.73508   0.00000  Uiso   1.00
C911   C     0.18843   0.59262   0.79600   0.00000  Uiso   1.00
C912   C     0.16692   0.83584   0.74953   0.00000  Uiso   1.00
C913   C     0.12338   0.90696   0.72997   0.00000  Uiso   1.00
C914   C     0.17297   0.61570   0.75255   0.00000  Uiso   1.00
C915   C     0.16799   0.88341   0.74868   0.00000  Uiso   1.00
C916   C     0.16168   0.59241   0.71023   0.00000  Uiso   1.00
C917   C     0.21347   0.90522   0.76827   0.00000  Uiso   1.00
C918   C     0.16249   0.54643   0.71120   0.00000  Uiso   1.00
C919   C     0.21471   0.95125   0.76968   0.00000  Uiso   1.00
C920   C     0.17242   0.52330   0.75460   0.00000  Uiso   1.00
C921   C     0.16954   0.97513   0.75401   0.00000  Uiso   1.00
C922   C     0.32201   0.68188   0.68905   0.00000  Uiso   1.00
C923   C     0.12630   0.72929   0.54850   0.00000  Uiso   1.00
C924   C     0.28962   0.66534   0.64397   0.00000  Uiso   1.00
C925   C     0.00819   0.81470   0.81546   0.00000  Uiso   1.00
C926   C     0.04315   0.83024   0.85956   0.00000  Uiso   1.00
C927   C     0.25784   0.62559   0.83989   0.00000  Uiso   1.00
C928   C     0.27509   0.65355   0.88341   0.00000  Uiso   1.00
C929   C     0.07961   0.88510   0.65966   0.00000  Uiso   1.00
C930   C     0.03293   0.85871   0.63630   0.00000  Uiso   1.00
C931   C     0.28648   0.76230   0.53445   0.00000  Uiso   1.00
C932   C     0.32484   0.78315   0.50408   0.00000  Uiso   1.00
C933   C     0.17095   0.64577   0.97864   0.00000  Uiso   1.00
C934   C     0.18446   0.78743   0.94837   0.00000  Uiso   1.00
C935   C     0.15375   0.60643   0.50782   0.00000  Uiso   1.00
C936   C     0.12806   0.72825   0.59809   0.00000  Uiso   1.00
C937   C     0.18671   0.78571   0.89933   0.00000  Uiso   1.00
C938   C     0.20409   0.77349   0.60619   0.00000  Uiso   1.00
C939   C     0.14375   0.71541   0.89607   0.00000  Uiso   1.00
C940   C     0.20668   0.77196   0.55706   0.00000  Uiso   1.00
Cl941  Cl    0.19702   0.51751   0.85269   0.00000  Uiso   1.00
Cl942  Cl    0.06441   0.98234   0.71944   0.00000  Uiso   1.00
Cl943  Cl    0.24778   0.80883   0.64077   0.00000  Uiso   1.00
Cl944  Cl    0.10626   0.67433   0.86331   0.00000  Uiso   1.00
H945   H     0.15133   0.60961   0.67639   0.00000  Uiso   1.00
H946   H     0.02908   0.66945   0.69025   0.00000  Uiso   1.00
H947   H     0.30670   0.67781   0.61233   0.00000  Uiso   1.00
H948   H     0.28888   0.62822   0.64418   0.00000  Uiso   1.00
H949   H     0.24909   0.67742   0.64179   0.00000  Uiso   1.00
H950   H     0.30085   0.82414   0.81856   0.00000  Uiso   1.00
H951   H     0.02112   0.83231   0.78399   0.00000  Uiso   1.00
H952   H     0.08426   0.82223   0.85688   0.00000  Uiso   1.00
H953   H     0.03986   0.86696   0.86290   0.00000  Uiso   1.00
H954   H     0.03145   0.81331   0.89172   0.00000  Uiso   1.00
H955   H     0.26625   0.64535   0.80803   0.00000  Uiso   1.00
H956   H     0.24802   0.88663   0.78181   0.00000  Uiso   1.00
H957   H     0.28114   0.59446   0.84292   0.00000  Uiso   1.00
H958   H     0.26957   0.63419   0.91616   0.00000  Uiso   1.00
H959   H     0.31691   0.66279   0.88484   0.00000  Uiso   1.00
H960   H     0.25203   0.68462   0.88167   0.00000  Uiso   1.00
H961   H     0.11542   0.86960   0.65013   0.00000  Uiso   1.00
H962   H     0.07700   0.91992   0.64491   0.00000  Uiso   1.00
H963   H     0.32996   0.87472   0.64355   0.00000  Uiso   1.00
H964   H     0.03330   0.85829   0.59732   0.00000  Uiso   1.00
H965   H     0.03411   0.82376   0.65041   0.00000  Uiso   1.00
H966   H     0.27025   0.73122   0.51677   0.00000  Uiso   1.00
H967   H     0.15369   0.52867   0.67819   0.00000  Uiso   1.00
H968   H     0.30777   0.75340   0.57003   0.00000  Uiso   1.00
H969   H     0.01134   0.81257   0.52201   0.00000  Uiso   1.00
H970   H     0.02109   0.75833   0.99822   0.00000  Uiso   1.00
H971   H     0.30406   0.79394   0.96900   0.00000  Uiso   1.00
H972   H     0.20475   0.66249   0.50011   0.00000  Uiso   1.00
H973   H     0.18335   0.63271   0.94566   0.00000  Uiso   1.00
H974   H     0.12051   0.58849   0.98727   0.00000  Uiso   1.00
H975   H     0.18646   0.58290   0.51675   0.00000  Uiso   1.00
H976   H     0.14167   0.61850   0.54127   0.00000  Uiso   1.00
H977   H     0.25066   0.96831   0.78335   0.00000  Uiso   1.00
H978   H     0.09330   0.71360   0.52766   0.00000  Uiso   1.00
H979   H     0.19727   0.81789   0.96636   0.00000  Uiso   1.00
H980   H     0.09761   0.71095   0.61403   0.00000  Uiso   1.00
H981   H     0.20293   0.81381   0.88145   0.00000  Uiso   1.00
H982   H     0.30460   0.66762   0.71998   0.00000  Uiso   1.00
N983   N     0.16667   0.74999   0.62623   0.00000  Uiso   1.00
N984   N     0.16667   0.75001   0.87376   0.00000  Uiso   1.00
O985   O     0.16667   0.68454   0.78974   0.00000  Uiso   1.00
O986   O     0.01189   0.76783   0.81241   0.00000  Uiso   1.00
O987   O     0.20420   0.61517   0.83760   0.00000  Uiso   1.00
O988   O     0.07930   0.88446   0.70935   0.00000  Uiso   1.00
O989   O     0.24747   0.79362   0.53908   0.00000  Uiso   1.00
O990   O     0.12885   0.67514   0.96728   0.00000  Uiso   1.00
O991   O     0.16666   0.81547   0.71026   0.00000  Uiso   1.00
O992   O     0.16667   0.68453   0.71026   0.00000  Uiso   1.00
O993   O     0.16666   0.81547   0.78974   0.00000  Uiso   1.00
O994   O     0.09058   0.75000   0.78044   0.00000  Uiso   1.00
O995   O     0.24275   0.75000   0.71955   0.00000  Uiso   1.00
O996   O     0.09058   0.75000   0.70096   0.00000  Uiso   1.00
O997   O     0.24275   0.75001   0.79903   0.00000  Uiso   1.00
O998   O     0.32184   0.72910   0.68858   0.00000  Uiso   1.00
Zn999  Zn    0.16667   0.75001   0.80307   0.00000  Uiso   1.00
Zn1000 Zn    0.16667   0.75000   0.69693   0.00000  Uiso   1.00
C1001  C     0.50181   0.66383   0.75076   0.00000  Uiso   1.00
C1002  C     0.47995   0.71326   0.94592   0.00000  Uiso   1.00
C1003  C     0.49956   0.75064   0.52671   0.00000  Uiso   1.00
C1004  C     0.49901   0.75047   0.97319   0.00000  Uiso   1.00
C1005  C     0.40068   0.74915   0.73795   0.00000  Uiso   1.00
C1006  C     0.59930   0.75035   0.76211   0.00000  Uiso   1.00
C1007  C     0.34629   0.74387   0.73213   0.00000  Uiso   1.00
C1008  C     0.65381   0.75450   0.76835   0.00000  Uiso   1.00
C1009  C     0.51899   0.54612   0.79727   0.00000  Uiso   1.00
C1010  C     0.45651   0.95313   0.73508   0.00000  Uiso   1.00
C1011  C     0.52176   0.59262   0.79600   0.00000  Uiso   1.00
C1012  C     0.50025   0.83584   0.74953   0.00000  Uiso   1.00
C1013  C     0.45671   0.90696   0.72997   0.00000  Uiso   1.00
C1014  C     0.50630   0.61570   0.75255   0.00000  Uiso   1.00
C1015  C     0.50132   0.88341   0.74868   0.00000  Uiso   1.00
C1016  C     0.49501   0.59241   0.71023   0.00000  Uiso   1.00
C1017  C     0.54681   0.90522   0.76827   0.00000  Uiso   1.00
C1018  C     0.49582   0.54643   0.71120   0.00000  Uiso   1.00
C1019  C     0.54805   0.95125   0.76968   0.00000  Uiso   1.00
C1020  C     0.50576   0.52330   0.75460   0.00000  Uiso   1.00
C1021  C     0.50287   0.97513   0.75401   0.00000  Uiso   1.00
C1022  C     0.65535   0.68188   0.68905   0.00000  Uiso   1.00
C1023  C     0.45963   0.72929   0.54850   0.00000  Uiso   1.00
C1024  C     0.62295   0.66534   0.64397   0.00000  Uiso   1.00
C1025  C     0.34152   0.81470   0.81546   0.00000  Uiso   1.00
C1026  C     0.37648   0.83024   0.85956   0.00000  Uiso   1.00
C1027  C     0.59118   0.62559   0.83989   0.00000  Uiso   1.00
C1028  C     0.60842   0.65355   0.88341   0.00000  Uiso   1.00
C1029  C     0.41294   0.88510   0.65966   0.00000  Uiso   1.00
C1030  C     0.36626   0.85871   0.63630   0.00000  Uiso   1.00
C1031  C     0.61982   0.76230   0.53445   0.00000  Uiso   1.00
C1032  C     0.65817   0.78315   0.50408   0.00000  Uiso   1.00
C1033  C     0.50428   0.64577   0.97864   0.00000  Uiso   1.00
C1034  C     0.51779   0.78743   0.94837   0.00000  Uiso   1.00
C1035  C     0.48708   0.60643   0.50782   0.00000  Uiso   1.00
C1036  C     0.46139   0.72825   0.59809   0.00000  Uiso   1.00
C1037  C     0.52004   0.78571   0.89933   0.00000  Uiso   1.00
C1038  C     0.53743   0.77349   0.60619   0.00000  Uiso   1.00
C1039  C     0.47709   0.71541   0.89607   0.00000  Uiso   1.00
C1040  C     0.54002   0.77196   0.55706   0.00000  Uiso   1.00
Cl1041 Cl    0.53035   0.51751   0.85269   0.00000  Uiso   1.00
Cl1042 Cl    0.39775   0.98234   0.71944   0.00000  Uiso   1.00
Cl1043 Cl    0.58111   0.80883   0.64077   0.00000  Uiso   1.00
Cl1044 Cl    0.43960   0.67433   0.86331   0.00000  Uiso   1.00
H1045  H     0.48467   0.60961   0.67639   0.00000  Uiso   1.00
H1046  H     0.36242   0.66945   0.69025   0.00000  Uiso   1.00
H1047  H     0.64004   0.67781   0.61233   0.00000  Uiso   1.00
H1048  H     0.62221   0.62822   0.64418   0.00000  Uiso   1.00
H1049  H     0.58242   0.67742   0.64179   0.00000  Uiso   1.00
H1050  H     0.63419   0.82414   0.81856   0.00000  Uiso   1.00
H1051  H     0.35445   0.83231   0.78399   0.00000  Uiso   1.00
H1052  H     0.41760   0.82223   0.85688   0.00000  Uiso   1.00
H1053  H     0.37319   0.86696   0.86290   0.00000  Uiso   1.00
H1054  H     0.36478   0.81331   0.89172   0.00000  Uiso   1.00
H1055  H     0.59959   0.64535   0.80803   0.00000  Uiso   1.00
H1056  H     0.58135   0.88663   0.78181   0.00000  Uiso   1.00
H1057  H     0.61448   0.59446   0.84292   0.00000  Uiso   1.00
H1058  H     0.60290   0.63419   0.91616   0.00000  Uiso   1.00
H1059  H     0.65025   0.66279   0.88484   0.00000  Uiso   1.00
H1060  H     0.58536   0.68462   0.88167   0.00000  Uiso   1.00
H1061  H     0.44875   0.86960   0.65013   0.00000  Uiso   1.00
H1062  H     0.41033   0.91992   0.64491   0.00000  Uiso   1.00
H1063  H     0.66329   0.87472   0.64355   0.00000  Uiso   1.00
H1064  H     0.36663   0.85829   0.59732   0.00000  Uiso   1.00
H1065  H     0.36744   0.82376   0.65041   0.00000  Uiso   1.00
H1066  H     0.60359   0.73122   0.51677   0.00000  Uiso   1.00
H1067  H     0.48702   0.52867   0.67819   0.00000  Uiso   1.00
H1068  H     0.64110   0.75340   0.57003   0.00000  Uiso   1.00
H1069  H     0.34467   0.81257   0.52201   0.00000  Uiso   1.00
H1070  H     0.35443   0.75833   0.99822   0.00000  Uiso   1.00
H1071  H     0.63740   0.79394   0.96900   0.00000  Uiso   1.00
H1072  H     0.53809   0.66249   0.50011   0.00000  Uiso   1.00
H1073  H     0.51669   0.63271   0.94566   0.00000  Uiso   1.00
H1074  H     0.45384   0.58849   0.98727   0.00000  Uiso   1.00
H1075  H     0.51980   0.58290   0.51675   0.00000  Uiso   1.00
H1076  H     0.47500   0.61850   0.54127   0.00000  Uiso   1.00
H1077  H     0.58399   0.96831   0.78335   0.00000  Uiso   1.00
H1078  H     0.42663   0.71360   0.52766   0.00000  Uiso   1.00
H1079  H     0.53060   0.81789   0.96636   0.00000  Uiso   1.00
H1080  H     0.43094   0.71095   0.61403   0.00000  Uiso   1.00
H1081  H     0.53627   0.81381   0.88145   0.00000  Uiso   1.00
H1082  H     0.63793   0.66762   0.71998   0.00000  Uiso   1.00
N1083  N     0.50000   0.74999   0.62623   0.00000  Uiso   1.00
N1084  N     0.50000   0.75001   0.87376   0.00000  Uiso   1.00
O1085  O     0.50000   0.68454   0.78974   0.00000  Uiso   1.00
O1086  O     0.34522   0.76783   0.81241   0.00000  Uiso   1.00
O1087  O     0.53754   0.61517   0.83760   0.00000  Uiso   1.00
O1088  O     0.41264   0.88446   0.70935   0.00000  Uiso   1.00
O1089  O     0.58081   0.79362   0.53908   0.00000  Uiso   1.00
O1090  O     0.46218   0.67514   0.96728   0.00000  Uiso   1.00
O1091  O     0.50000   0.81547   0.71026   0.00000  Uiso   1.00
O1092  O     0.50000   0.68453   0.71026   0.00000  Uiso   1.00
O1093  O     0.50000   0.81547   0.78974   0.00000  Uiso   1.00
O1094  O     0.42392   0.75000   0.78044   0.00000  Uiso   1.00
O1095  O     0.57608   0.75000   0.71955   0.00000  Uiso   1.00
O1096  O     0.42392   0.75000   0.70096   0.00000  Uiso   1.00
O1097  O     0.57608   0.75001   0.79903   0.00000  Uiso   1.00
O1098  O     0.65518   0.72910   0.68858   0.00000  Uiso   1.00
Zn1099 Zn    0.50000   0.75001   0.80307   0.00000  Uiso   1.00
Zn1100 Zn    0.50000   0.75000   0.69693   0.00000  Uiso   1.00
C1101  C     0.83514   0.66383   0.75076   0.00000  Uiso   1.00
C1102  C     0.81329   0.71326   0.94592   0.00000  Uiso   1.00
C1103  C     0.83290   0.75064   0.52671   0.00000  Uiso   1.00
C1104  C     0.83234   0.75047   0.97319   0.00000  Uiso   1.00
C1105  C     0.73402   0.74915   0.73795   0.00000  Uiso   1.00
C1106  C     0.93264   0.75035   0.76211   0.00000  Uiso   1.00
C1107  C     0.67962   0.74387   0.73213   0.00000  Uiso   1.00
C1108  C     0.98714   0.75450   0.76835   0.00000  Uiso   1.00
C1109  C     0.85232   0.54612   0.79727   0.00000  Uiso   1.00
C1110  C     0.78984   0.95313   0.73508   0.00000  Uiso   1.00
C1111  C     0.85510   0.59262   0.79600   0.00000  Uiso   1.00
C1112  C     0.83358   0.83584   0.74953   0.00000  Uiso   1.00
C1113  C     0.79004   0.90696   0.72997   0.00000  Uiso   1.00
C1114  C     0.83963   0.61570   0.75255   0.00000  Uiso   1.00
C1115  C     0.83465   0.88341   0.74868   0.00000  Uiso   1.00
C1116  C     0.82835   0.59241   0.71023   0.00000  Uiso   1.00
C1117  C     0.88014   0.90522   0.76827   0.00000  Uiso   1.00
C1118  C     0.82915   0.54643   0.71120   0.00000  Uiso   1.00
C1119  C     0.88138   0.95125   0.76968   0.00000  Uiso   1.00
C1120  C     0.83909   0.52330   0.75460   0.00000  Uiso   1.00
C1121  C     0.83620   0.97513   0.75401   0.00000  Uiso   1.00
C1122  C     0.98868   0.68188   0.68905   0.00000  Uiso   1.00
C1123  C     0.79297   0.72929   0.54850   0.00000  Uiso   1.00
C1124  C     0.95629   0.66534   0.64397   0.00000  Uiso   1.00
C1125  C     0.67486   0.81470   0.81546   0.00000  Uiso   1.00
C1126  C     0.70981   0.83024   0.85956   0.00000  Uiso   1.00
C1127  C     0.92451   0.62559   0.83989   0.00000  Uiso   1.00
C1128  C     0.94175   0.65355   0.88341   0.00000  Uiso   1.00
C1129  C     0.74628   0.88510   0.65966   0.00000  Uiso   1.00
C1130  C     0.69960   0.85871   0.63630   0.00000  Uiso   1.00
C1131  C     0.95315   0.76230   0.53445   0.00000  Uiso   1.00
C1132  C     0.99150   0.78315   0.50408   0.00000  Uiso   1.00
C1133  C     0.83761   0.64577   0.97864   0.00000  Uiso   1.00
C1134  C     0.85112   0.78743   0.94837   0.00000  Uiso   1.00
C1135  C     0.82042   0.60643   0.50782   0.00000  Uiso   1.00
C1136  C     0.79472   0.72825   0.59809   0.00000  Uiso   1.00
C1137  C     0.85338   0.78571   0.89933   0.00000  Uiso   1.00
C1138  C     0.87076   0.77349   0.60619   0.00000  Uiso   1.00
C1139  C     0.81042   0.71541   0.89607   0.00000  Uiso   1.00
C1140  C     0.87335   0.77196   0.55706   0.00000  Uiso   1.00
Cl1141 Cl    0.86368   0.51751   0.85269   0.00000  Uiso   1.00
Cl1142 Cl    0.73108   0.98234   0.71944   0.00000  Uiso   1.00
Cl1143 Cl    0.91445   0.80883   0.64077   0.00000  Uiso   1.00
Cl1144 Cl    0.77293   0.67433   0.86331   0.00000  Uiso   1.00
H1145  H     0.81800   0.60961   0.67639   0.00000  Uiso   1.00
H1146  H     0.69575   0.66945   0.69025   0.00000  Uiso   1.00
H1147  H     0.97337   0.67781   0.61233   0.00000  Uiso   1.00
H1148  H     0.95554   0.62822   0.64418   0.00000  Uiso   1.00
H1149  H     0.91575   0.67742   0.64179   0.00000  Uiso   1.00
H1150  H     0.96752   0.82414   0.81856   0.00000  Uiso   1.00
H1151  H     0.68779   0.83231   0.78399   0.00000  Uiso   1.00
H1152  H     0.75093   0.82223   0.85688   0.00000  Uiso   1.00
H1153  H     0.70653   0.86696   0.86290   0.00000  Uiso   1.00
H1154  H     0.69811   0.81331   0.89172   0.00000  Uiso   1.00
H1155  H     0.93292   0.64535   0.80803   0.00000  Uiso   1.00
H1156  H     0.91468   0.88663   0.78181   0.00000  Uiso   1.00
H1157  H     0.94781   0.59446   0.84292   0.00000  Uiso   1.00
H1158  H     0.93624   0.63419   0.91616   0.00000  Uiso   1.00
H1159  H     0.98358   0.66279   0.88484   0.00000  Uiso   1.00
H1160  H     0.91869   0.68462   0.88167   0.00000  Uiso   1.00
H1161  H     0.78208   0.86960   0.65013   0.00000  Uiso   1.00
H1162  H     0.74367   0.91992   0.64491   0.00000  Uiso   1.00
H1163  H     0.99662   0.87472   0.64355   0.00000  Uiso   1.00
H1164  H     0.69996   0.85829   0.59732   0.00000  Uiso   1.00
H1165  H     0.70077   0.82376   0.65041   0.00000  Uiso   1.00
H1166  H     0.93692   0.73122   0.51677   0.00000  Uiso   1.00
H1167  H     0.82036   0.52867   0.67819   0.00000  Uiso   1.00
H1168  H     0.97443   0.75340   0.57003   0.00000  Uiso   1.00
H1169  H     0.67801   0.81257   0.52201   0.00000  Uiso   1.00
H1170  H     0.68776   0.75833   0.99822   0.00000  Uiso   1.00
H1171  H     0.97073   0.79394   0.96900   0.00000  Uiso   1.00
H1172  H     0.87142   0.66249   0.50011   0.00000  Uiso   1.00
H1173  H     0.85002   0.63271   0.94566   0.00000  Uiso   1.00
H1174  H     0.78717   0.58849   0.98727   0.00000  Uiso   1.00
H1175  H     0.85313   0.58290   0.51675   0.00000  Uiso   1.00
H1176  H     0.80833   0.61850   0.54127   0.00000  Uiso   1.00
H1177  H     0.91733   0.96831   0.78335   0.00000  Uiso   1.00
H1178  H     0.75996   0.71360   0.52766   0.00000  Uiso   1.00
H1179  H     0.86394   0.81789   0.96636   0.00000  Uiso   1.00
H1180  H     0.76427   0.71095   0.61403   0.00000  Uiso   1.00
H1181  H     0.86960   0.81381   0.88145   0.00000  Uiso   1.00
H1182  H     0.97127   0.66762   0.71998   0.00000  Uiso   1.00
N1183  N     0.83333   0.74999   0.62623   0.00000  Uiso   1.00
N1184  N     0.83333   0.75001   0.87376   0.00000  Uiso   1.00
O1185  O     0.83334   0.68454   0.78974   0.00000  Uiso   1.00
O1186  O     0.67856   0.76783   0.81241   0.00000  Uiso   1.00
O1187  O     0.87087   0.61517   0.83760   0.00000  Uiso   1.00
O1188  O     0.74597   0.88446   0.70935   0.00000  Uiso   1.00
O1189  O     0.91414   0.79362   0.53908   0.00000  Uiso   1.00
O1190  O     0.79551   0.67514   0.96728   0.00000  Uiso   1.00
O1191  O     0.83333   0.81547   0.71026   0.00000  Uiso   1.00
O1192  O     0.83334   0.68453   0.71026   0.00000  Uiso   1.00
O1193  O     0.83333   0.81547   0.78974   0.00000  Uiso   1.00
O1194  O     0.75725   0.75000   0.78044   0.00000  Uiso   1.00
O1195  O     0.90942   0.75000   0.71955   0.00000  Uiso   1.00
O1196  O     0.75725   0.75000   0.70096   0.00000  Uiso   1.00
O1197  O     0.90942   0.75001   0.79903   0.00000  Uiso   1.00
O1198  O     0.98851   0.72910   0.68858   0.00000  Uiso   1.00
Zn1199 Zn    0.83333   0.75001   0.80307   0.00000  Uiso   1.00
Zn1200 Zn    0.83333   0.75000   0.69693   0.00000  Uiso   1.00
loop_
_geom_bond_atom_site_label_1
_geom_bond_atom_site_label_2
_geom_bond_distance
_geom_bond_site_symmetry_2
_ccdc_geom_bond_type
C1     O85     1.289   .     A
C1     O92     1.291   .     A
C1     C14     1.446   .     S
C2     O90     1.382   .     S
C2     C39     1.409   .     A
C2     C4      1.414   .     A
C3     C23     1.414   .     A
C3     C40     1.417   .     A
C3     C604    1.520   1_554 S
C4     C34     1.413   .     A
C4     C603    1.520   .     S
C5     O94     1.275   .     A
C5     C7      1.405   .     S
C5     O96     1.281   .     A
C6     O97     1.280   .     A
C6     C8      1.404   .     S
C6     O95     1.276   .     A
C7     C208    1.349   1_455 S
C7     O298    1.390   1_455 S
C8     C107    1.349   .     S
C8     O186    1.391   .     S
C9     C20     1.404   .     A
C9     C11     1.392   .     A
C9     Cl41    1.767   .     S
C10    Cl42    1.768   .     S
C10    C21     1.408   .     A
C10    C13     1.392   .     A
C11    C14     1.414   .     A
C11    O87     1.384   .     S
C12    O91     1.284   .     A
C12    C15     1.423   .     S
C12    O93     1.284   .     A
C13    C15     1.400   .     A
C13    O88     1.383   .     S
C14    C16     1.398   .     A
C15    C17     1.392   .     A
C16    H45     1.084   .     S
C16    C18     1.376   .     A
C17    C19     1.378   .     A
C17    H56     1.083   .     S
C18    C20     1.396   .     A
C18    H67     1.084   .     S
C19    C21     1.398   .     A
C19    H77     1.084   .     S
C20    C321    1.442   1_545 S
C21    C320    1.442   .     S
C22    O98     1.412   .     S
C22    H82     1.116   .     S
C22    C24     1.521   .     S
C22    H146    1.114   .     S
C23    C36     1.404   .     A
C23    H78     1.079   .     S
C24    H47     1.110   .     S
C24    H48     1.110   .     S
C24    H49     1.111   .     S
C25    C26     1.521   .     S
C25    H51     1.116   .     S
C25    O86     1.412   .     S
C25    H250    1.112   1_455 S
C26    H54     1.111   .     S
C26    H52     1.110   .     S
C26    H53     1.110   .     S
C27    H55     1.115   .     S
C27    H57     1.114   .     S
C27    O87     1.414   .     S
C27    C28     1.521   .     S
C28    H60     1.110   .     S
C28    H59     1.111   .     S
C28    H58     1.110   .     S
C29    O88     1.414   .     S
C29    H61     1.114   .     S
C29    C30     1.517   .     S
C29    H62     1.114   .     S
C30    H64     1.110   .     S
C30    H65     1.111   .     S
C30    H263    1.110   1_455 S
C31    H66     1.116   .     S
C31    O89     1.412   .     S
C31    H68     1.113   .     S
C31    C32     1.521   .     S
C32    H169    1.110   .     S
C32    H770    1.108   1_554 S
C32    H671    1.111   1_554 S
C33    H73     1.113   .     S
C33    O90     1.412   .     S
C33    C635    1.520   .     S
C33    H672    1.115   .     S
C34    C37     1.406   .     A
C34    H79     1.080   .     S
C35    H75     1.110   .     S
C35    H76     1.111   .     S
C35    C633    1.520   1_554 S
C35    H674    1.111   1_554 S
C36    N83     1.360   .     A
C36    H80     1.082   .     S
C37    N84     1.361   .     A
C37    H81     1.081   .     S
C38    N83     1.368   .     A
C38    Cl43    1.752   .     S
C38    C40     1.410   .     A
C39    N84     1.371   .     A
C39    Cl44    1.757   .     S
C40    O89     1.382   .     S
H46    C222    1.114   1_455 S
H50    C125    1.112   .     S
H63    C130    1.110   .     S
H69    C232    1.110   1_455 S
H70    C832    1.108   1_455 S
H71    C632    1.111   .     S
H72    C633    1.115   1_554 S
H74    C635    1.111   .     S
N83    Zn100   2.010   .     S
N84    Zn99    2.010   .     S
O85    Zn99    2.003   .     S
O86    C208    1.391   1_455 S
O91    Zn100   2.003   .     S
O92    Zn100   1.986   .     S
O93    Zn99    1.986   .     S
O94    Zn99    1.990   .     S
O95    Zn100   1.990   .     S
O96    Zn100   1.993   .     S
O97    Zn99    1.993   .     S
O98    C107    1.390   .     S
C101   O185    1.289   .     A
C101   O192    1.291   .     A
C101   C114    1.446   .     S
C102   O190    1.382   .     S
C102   C139    1.409   .     A
C102   C104    1.414   .     A
C103   C123    1.414   .     A
C103   C140    1.417   .     A
C103   C704    1.520   1_554 S
C104   C134    1.413   .     A
C104   C703    1.520   .     S
C105   O194    1.275   .     A
C105   C107    1.405   .     S
C105   O196    1.281   .     A
C106   O197    1.280   .     A
C106   C108    1.404   .     S
C106   O195    1.276   .     A
C108   C207    1.349   .     S
C108   O286    1.391   .     S
C109   C120    1.404   .     A
C109   C111    1.392   .     A
C109   Cl141   1.767   .     S
C110   Cl142   1.768   .     S
C110   C121    1.408   .     A
C110   C113    1.392   .     A
C111   C114    1.414   .     A
C111   O187    1.384   .     S
C112   O191    1.284   .     A
C112   C115    1.423   .     S
C112   O193    1.284   .     A
C113   C115    1.400   .     A
C113   O188    1.383   .     S
C114   C116    1.398   .     A
C115   C117    1.392   .     A
C116   H145    1.084   .     S
C116   C118    1.376   .     A
C117   C119    1.378   .     A
C117   H156    1.083   .     S
C118   C120    1.396   .     A
C118   H167    1.084   .     S
C119   C121    1.398   .     A
C119   H177    1.084   .     S
C120   C421    1.442   1_545 S
C121   C420    1.442   .     S
C122   O198    1.412   .     S
C122   H182    1.116   .     S
C122   C124    1.521   .     S
C122   H246    1.114   .     S
C123   C136    1.404   .     A
C123   H178    1.079   .     S
C124   H147    1.110   .     S
C124   H148    1.110   .     S
C124   H149    1.111   .     S
C125   C126    1.521   .     S
C125   H151    1.116   .     S
C125   O186    1.412   .     S
C126   H154    1.111   .     S
C126   H152    1.110   .     S
C126   H153    1.110   .     S
C127   H155    1.115   .     S
C127   H157    1.114   .     S
C127   O187    1.414   .     S
C127   C128    1.521   .     S
C128   H160    1.110   .     S
C128   H159    1.111   .     S
C128   H158    1.110   .     S
C129   O188    1.414   .     S
C129   H161    1.114   .     S
C129   C130    1.517   .     S
C129   H162    1.114   .     S
C130   H164    1.110   .     S
C130   H165    1.111   .     S
C131   H166    1.116   .     S
C131   O189    1.412   .     S
C131   H168    1.113   .     S
C131   C132    1.521   .     S
C132   H269    1.110   .     S
C132   H870    1.108   1_554 S
C132   H771    1.111   1_554 S
C133   H173    1.113   .     S
C133   O190    1.412   .     S
C133   C735    1.520   .     S
C133   H772    1.115   .     S
C134   C137    1.406   .     A
C134   H179    1.080   .     S
C135   H175    1.110   .     S
C135   H176    1.111   .     S
C135   C733    1.520   1_554 S
C135   H774    1.111   1_554 S
C136   N183    1.360   .     A
C136   H180    1.082   .     S
C137   N184    1.361   .     A
C137   H181    1.081   .     S
C138   N183    1.368   .     A
C138   Cl143   1.752   .     S
C138   C140    1.410   .     A
C139   N184    1.371   .     A
C139   Cl144   1.757   .     S
C140   O189    1.382   .     S
H150   C225    1.112   .     S
H163   C230    1.110   .     S
H170   C632    1.108   .     S
H171   C732    1.111   .     S
H172   C733    1.115   1_554 S
H174   C735    1.111   .     S
N183   Zn200   2.010   .     S
N184   Zn199   2.010   .     S
O185   Zn199   2.003   .     S
O191   Zn200   2.003   .     S
O192   Zn200   1.986   .     S
O193   Zn199   1.986   .     S
O194   Zn199   1.990   .     S
O195   Zn200   1.990   .     S
O196   Zn200   1.993   .     S
O197   Zn199   1.993   .     S
O198   C207    1.390   .     S
C201   O285    1.289   .     A
C201   O292    1.291   .     A
C201   C214    1.446   .     S
C202   O290    1.382   .     S
C202   C239    1.409   .     A
C202   C204    1.414   .     A
C203   C223    1.414   .     A
C203   C240    1.417   .     A
C203   C804    1.520   1_554 S
C204   C234    1.413   .     A
C204   C803    1.520   .     S
C205   O294    1.275   .     A
C205   C207    1.405   .     S
C205   O296    1.281   .     A
C206   O297    1.280   .     A
C206   C208    1.404   .     S
C206   O295    1.276   .     A
C208   C7      1.349   1_655 S
C208   O86     1.391   1_655 S
C209   C220    1.404   .     A
C209   C211    1.392   .     A
C209   Cl241   1.767   .     S
C210   Cl242   1.768   .     S
C210   C221    1.408   .     A
C210   C213    1.392   .     A
C211   C214    1.414   .     A
C211   O287    1.384   .     S
C212   O291    1.284   .     A
C212   C215    1.423   .     S
C212   O293    1.284   .     A
C213   C215    1.400   .     A
C213   O288    1.383   .     S
C214   C216    1.398   .     A
C215   C217    1.392   .     A
C216   H245    1.084   .     S
C216   C218    1.376   .     A
C217   C219    1.378   .     A
C217   H256    1.083   .     S
C218   C220    1.396   .     A
C218   H267    1.084   .     S
C219   C221    1.398   .     A
C219   H277    1.084   .     S
C220   C521    1.442   1_545 S
C221   C520    1.442   .     S
C222   O298    1.412   .     S
C222   H282    1.116   .     S
C222   C224    1.521   .     S
C222   H46     1.114   1_655 S
C223   C236    1.404   .     A
C223   H278    1.079   .     S
C224   H247    1.110   .     S
C224   H248    1.110   .     S
C224   H249    1.111   .     S
C225   C226    1.521   .     S
C225   H251    1.116   .     S
C225   O286    1.412   .     S
C226   H254    1.111   .     S
C226   H252    1.110   .     S
C226   H253    1.110   .     S
C227   H255    1.115   .     S
C227   H257    1.114   .     S
C227   O287    1.414   .     S
C227   C228    1.521   .     S
C228   H260    1.110   .     S
C228   H259    1.111   .     S
C228   H258    1.110   .     S
C229   O288    1.414   .     S
C229   H261    1.114   .     S
C229   C230    1.517   .     S
C229   H262    1.114   .     S
C230   H264    1.110   .     S
C230   H265    1.111   .     S
C231   H266    1.116   .     S
C231   O289    1.412   .     S
C231   H268    1.113   .     S
C231   C232    1.521   .     S
C232   H69     1.110   1_655 S
C232   H670    1.108   1_654 S
C232   H871    1.111   1_554 S
C233   H273    1.113   .     S
C233   O290    1.412   .     S
C233   C835    1.520   .     S
C233   H872    1.115   .     S
C234   C237    1.406   .     A
C234   H279    1.080   .     S
C235   H275    1.110   .     S
C235   H276    1.111   .     S
C235   C833    1.520   1_554 S
C235   H874    1.111   1_554 S
C236   N283    1.360   .     A
C236   H280    1.082   .     S
C237   N284    1.361   .     A
C237   H281    1.081   .     S
C238   N283    1.368   .     A
C238   Cl243   1.752   .     S
C238   C240    1.410   .     A
C239   N284    1.371   .     A
C239   Cl244   1.757   .     S
C240   O289    1.382   .     S
H250   C25     1.112   1_655 S
H263   C30     1.110   1_655 S
H270   C732    1.108   .     S
H271   C832    1.111   .     S
H272   C833    1.115   1_554 S
H274   C835    1.111   .     S
N283   Zn300   2.010   .     S
N284   Zn299   2.010   .     S
O285   Zn299   2.003   .     S
O291   Zn300   2.003   .     S
O292   Zn300   1.986   .     S
O293   Zn299   1.986   .     S
O294   Zn299   1.990   .     S
O295   Zn300   1.990   .     S
O296   Zn300   1.993   .     S
O297   Zn299   1.993   .     S
O298   C7      1.390   1_655 S
C301   O385    1.289   .     A
C301   O392    1.291   .     A
C301   C314    1.446   .     S
C302   O390    1.382   .     S
C302   C339    1.409   .     A
C302   C304    1.414   .     A
C303   C323    1.414   .     A
C303   C340    1.417   .     A
C303   C904    1.520   1_554 S
C304   C334    1.413   .     A
C304   C903    1.520   .     S
C305   O394    1.275   .     A
C305   C307    1.405   .     S
C305   O396    1.281   .     A
C306   O397    1.280   .     A
C306   C308    1.404   .     S
C306   O395    1.276   .     A
C307   C508    1.349   1_455 S
C307   O598    1.390   1_455 S
C308   C407    1.349   .     S
C308   O486    1.391   .     S
C309   C320    1.404   .     A
C309   C311    1.392   .     A
C309   Cl341   1.767   .     S
C310   Cl342   1.768   .     S
C310   C321    1.408   .     A
C310   C313    1.392   .     A
C311   C314    1.414   .     A
C311   O387    1.384   .     S
C312   O391    1.284   .     A
C312   C315    1.423   .     S
C312   O393    1.284   .     A
C313   C315    1.400   .     A
C313   O388    1.383   .     S
C314   C316    1.398   .     A
C315   C317    1.392   .     A
C316   H345    1.084   .     S
C316   C318    1.376   .     A
C317   C319    1.378   .     A
C317   H356    1.083   .     S
C318   C320    1.396   .     A
C318   H367    1.084   .     S
C319   C321    1.398   .     A
C319   H377    1.084   .     S
C321   C20     1.442   1_565 S
C322   O398    1.412   .     S
C322   H382    1.116   .     S
C322   C324    1.521   .     S
C322   H446    1.114   .     S
C323   C336    1.404   .     A
C323   H378    1.079   .     S
C324   H347    1.110   .     S
C324   H348    1.110   .     S
C324   H349    1.111   .     S
C325   C326    1.521   .     S
C325   H351    1.116   .     S
C325   O386    1.412   .     S
C325   H550    1.112   1_455 S
C326   H354    1.111   .     S
C326   H352    1.110   .     S
C326   H353    1.110   .     S
C327   H355    1.115   .     S
C327   H357    1.114   .     S
C327   O387    1.414   .     S
C327   C328    1.521   .     S
C328   H360    1.110   .     S
C328   H359    1.111   .     S
C328   H358    1.110   .     S
C329   O388    1.414   .     S
C329   H361    1.114   .     S
C329   C330    1.517   .     S
C329   H362    1.114   .     S
C330   H364    1.110   .     S
C330   H365    1.111   .     S
C330   H563    1.110   1_455 S
C331   H366    1.116   .     S
C331   O389    1.412   .     S
C331   H368    1.113   .     S
C331   C332    1.521   .     S
C332   H469    1.110   .     S
C332   H1070   1.108   1_554 S
C332   H971    1.111   1_554 S
C333   H373    1.113   .     S
C333   O390    1.412   .     S
C333   C935    1.520   .     S
C333   H972    1.115   .     S
C334   C337    1.406   .     A
C334   H379    1.080   .     S
C335   H375    1.110   .     S
C335   H376    1.111   .     S
C335   C933    1.520   1_554 S
C335   H974    1.111   1_554 S
C336   N383    1.360   .     A
C336   H380    1.082   .     S
C337   N384    1.361   .     A
C337   H381    1.081   .     S
C338   N383    1.368   .     A
C338   Cl343   1.752   .     S
C338   C340    1.410   .     A
C339   N384    1.371   .     A
C339   Cl344   1.757   .     S
C340   O389    1.382   .     S
H346   C522    1.114   1_455 S
H350   C425    1.112   .     S
H363   C430    1.110   .     S
H369   C532    1.110   1_455 S
H370   C1132   1.108   1_455 S
H371   C932    1.111   .     S
H372   C933    1.115   1_554 S
H374   C935    1.111   .     S
N383   Zn400   2.010   .     S
N384   Zn399   2.010   .     S
O385   Zn399   2.003   .     S
O386   C508    1.391   1_455 S
O391   Zn400   2.003   .     S
O392   Zn400   1.986   .     S
O393   Zn399   1.986   .     S
O394   Zn399   1.990   .     S
O395   Zn400   1.990   .     S
O396   Zn400   1.993   .     S
O397   Zn399   1.993   .     S
O398   C407    1.390   .     S
C401   O485    1.289   .     A
C401   O492    1.291   .     A
C401   C414    1.446   .     S
C402   O490    1.382   .     S
C402   C439    1.409   .     A
C402   C404    1.414   .     A
C403   C423    1.414   .     A
C403   C440    1.417   .     A
C403   C1004   1.520   1_554 S
C404   C434    1.413   .     A
C404   C1003   1.520   .     S
C405   O494    1.275   .     A
C405   C407    1.405   .     S
C405   O496    1.281   .     A
C406   O497    1.280   .     A
C406   C408    1.404   .     S
C406   O495    1.276   .     A
C408   C507    1.349   .     S
C408   O586    1.391   .     S
C409   C420    1.404   .     A
C409   C411    1.392   .     A
C409   Cl441   1.767   .     S
C410   Cl442   1.768   .     S
C410   C421    1.408   .     A
C410   C413    1.392   .     A
C411   C414    1.414   .     A
C411   O487    1.384   .     S
C412   O491    1.284   .     A
C412   C415    1.423   .     S
C412   O493    1.284   .     A
C413   C415    1.400   .     A
C413   O488    1.383   .     S
C414   C416    1.398   .     A
C415   C417    1.392   .     A
C416   H445    1.084   .     S
C416   C418    1.376   .     A
C417   C419    1.378   .     A
C417   H456    1.083   .     S
C418   C420    1.396   .     A
C418   H467    1.084   .     S
C419   C421    1.398   .     A
C419   H477    1.084   .     S
C421   C120    1.442   1_565 S
C422   O498    1.412   .     S
C422   H482    1.116   .     S
C422   C424    1.521   .     S
C422   H546    1.114   .     S
C423   C436    1.404   .     A
C423   H478    1.079   .     S
C424   H447    1.110   .     S
C424   H448    1.110   .     S
C424   H449    1.111   .     S
C425   C426    1.521   .     S
C425   H451    1.116   .     S
C425   O486    1.412   .     S
C426   H454    1.111   .     S
C426   H452    1.110   .     S
C426   H453    1.110   .     S
C427   H455    1.115   .     S
C427   H457    1.114   .     S
C427   O487    1.414   .     S
C427   C428    1.521   .     S
C428   H460    1.110   .     S
C428   H459    1.111   .     S
C428   H458    1.110   .     S
C429   O488    1.414   .     S
C429   H461    1.114   .     S
C429   C430    1.517   .     S
C429   H462    1.114   .     S
C430   H464    1.110   .     S
C430   H465    1.111   .     S
C431   H466    1.116   .     S
C431   O489    1.412   .     S
C431   H468    1.113   .     S
C431   C432    1.521   .     S
C432   H569    1.110   .     S
C432   H1170   1.108   1_554 S
C432   H1071   1.111   1_554 S
C433   H473    1.113   .     S
C433   O490    1.412   .     S
C433   C1035   1.520   .     S
C433   H1072   1.115   .     S
C434   C437    1.406   .     A
C434   H479    1.080   .     S
C435   H475    1.110   .     S
C435   H476    1.111   .     S
C435   C1033   1.520   1_554 S
C435   H1074   1.111   1_554 S
C436   N483    1.360   .     A
C436   H480    1.082   .     S
C437   N484    1.361   .     A
C437   H481    1.081   .     S
C438   N483    1.368   .     A
C438   Cl443   1.752   .     S
C438   C440    1.410   .     A
C439   N484    1.371   .     A
C439   Cl444   1.757   .     S
C440   O489    1.382   .     S
H450   C525    1.112   .     S
H463   C530    1.110   .     S
H470   C932    1.108   .     S
H471   C1032   1.111   .     S
H472   C1033   1.115   1_554 S
H474   C1035   1.111   .     S
N483   Zn500   2.010   .     S
N484   Zn499   2.010   .     S
O485   Zn499   2.003   .     S
O491   Zn500   2.003   .     S
O492   Zn500   1.986   .     S
O493   Zn499   1.986   .     S
O494   Zn499   1.990   .     S
O495   Zn500   1.990   .     S
O496   Zn500   1.993   .     S
O497   Zn499   1.993   .     S
O498   C507    1.390   .     S
C501   O585    1.289   .     A
C501   O592    1.291   .     A
C501   C514    1.446   .     S
C502   O590    1.382   .     S
C502   C539    1.409   .     A
C502   C504    1.414   .     A
C503   C523    1.414   .     A
C503   C540    1.417   .     A
C503   C1104   1.520   1_554 S
C504   C534    1.413   .     A
C504   C1103   1.520   .     S
C505   O594    1.275   .     A
C505   C507    1.405   .     S
C505   O596    1.281   .     A
C506   O597    1.280   .     A
C506   C508    1.404   .     S
C506   O595    1.276   .     A
C508   C307    1.349   1_655 S
C508   O386    1.391   1_655 S
C509   C520    1.404   .     A
C509   C511    1.392   .     A
C509   Cl541   1.767   .     S
C510   Cl542   1.768   .     S
C510   C521    1.408   .     A
C510   C513    1.392   .     A
C511   C514    1.414   .     A
C511   O587    1.384   .     S
C512   O591    1.284   .     A
C512   C515    1.423   .     S
C512   O593    1.284   .     A
C513   C515    1.400   .     A
C513   O588    1.383   .     S
C514   C516    1.398   .     A
C515   C517    1.392   .     A
C516   H545    1.084   .     S
C516   C518    1.376   .     A
C517   C519    1.378   .     A
C517   H556    1.083   .     S
C518   C520    1.396   .     A
C518   H567    1.084   .     S
C519   C521    1.398   .     A
C519   H577    1.084   .     S
C521   C220    1.442   1_565 S
C522   O598    1.412   .     S
C522   H582    1.116   .     S
C522   C524    1.521   .     S
C522   H346    1.114   1_655 S
C523   C536    1.404   .     A
C523   H578    1.079   .     S
C524   H547    1.110   .     S
C524   H548    1.110   .     S
C524   H549    1.111   .     S
C525   C526    1.521   .     S
C525   H551    1.116   .     S
C525   O586    1.412   .     S
C526   H554    1.111   .     S
C526   H552    1.110   .     S
C526   H553    1.110   .     S
C527   H555    1.115   .     S
C527   H557    1.114   .     S
C527   O587    1.414   .     S
C527   C528    1.521   .     S
C528   H560    1.110   .     S
C528   H559    1.111   .     S
C528   H558    1.110   .     S
C529   O588    1.414   .     S
C529   H561    1.114   .     S
C529   C530    1.517   .     S
C529   H562    1.114   .     S
C530   H564    1.110   .     S
C530   H565    1.111   .     S
C531   H566    1.116   .     S
C531   O589    1.412   .     S
C531   H568    1.113   .     S
C531   C532    1.521   .     S
C532   H369    1.110   1_655 S
C532   H970    1.108   1_654 S
C532   H1171   1.111   1_554 S
C533   H573    1.113   .     S
C533   O590    1.412   .     S
C533   C1135   1.520   .     S
C533   H1172   1.115   .     S
C534   C537    1.406   .     A
C534   H579    1.080   .     S
C535   H575    1.110   .     S
C535   H576    1.111   .     S
C535   C1133   1.520   1_554 S
C535   H1174   1.111   1_554 S
C536   N583    1.360   .     A
C536   H580    1.082   .     S
C537   N584    1.361   .     A
C537   H581    1.081   .     S
C538   N583    1.368   .     A
C538   Cl543   1.752   .     S
C538   C540    1.410   .     A
C539   N584    1.371   .     A
C539   Cl544   1.757   .     S
C540   O589    1.382   .     S
H550   C325    1.112   1_655 S
H563   C330    1.110   1_655 S
H570   C1032   1.108   .     S
H571   C1132   1.111   .     S
H572   C1133   1.115   1_554 S
H574   C1135   1.111   .     S
N583   Zn600   2.010   .     S
N584   Zn599   2.010   .     S
O585   Zn599   2.003   .     S
O591   Zn600   2.003   .     S
O592   Zn600   1.986   .     S
O593   Zn599   1.986   .     S
O594   Zn599   1.990   .     S
O595   Zn600   1.990   .     S
O596   Zn600   1.993   .     S
O597   Zn599   1.993   .     S
O598   C307    1.390   1_655 S
C601   O685    1.289   .     A
C601   O692    1.291   .     A
C601   C614    1.446   .     S
C602   O690    1.382   .     S
C602   C639    1.409   .     A
C602   C604    1.414   .     A
C603   C623    1.414   .     A
C603   C640    1.417   .     A
C604   C634    1.413   .     A
C604   C3      1.520   1_556 S
C605   O694    1.275   .     A
C605   C607    1.405   .     S
C605   O696    1.281   .     A
C606   O697    1.280   .     A
C606   C608    1.404   .     S
C606   O695    1.276   .     A
C607   C808    1.349   1_455 S
C607   O898    1.390   1_455 S
C608   C707    1.349   .     S
C608   O786    1.391   .     S
C609   C620    1.404   .     A
C609   C611    1.392   .     A
C609   Cl641   1.767   .     S
C610   Cl642   1.768   .     S
C610   C621    1.408   .     A
C610   C613    1.392   .     A
C611   C614    1.414   .     A
C611   O687    1.384   .     S
C612   O691    1.284   .     A
C612   C615    1.423   .     S
C612   O693    1.284   .     A
C613   C615    1.400   .     A
C613   O688    1.383   .     S
C614   C616    1.398   .     A
C615   C617    1.392   .     A
C616   H645    1.084   .     S
C616   C618    1.376   .     A
C617   C619    1.378   .     A
C617   H656    1.083   .     S
C618   C620    1.396   .     A
C618   H667    1.084   .     S
C619   C621    1.398   .     A
C619   H677    1.084   .     S
C620   C921    1.442   1_545 S
C621   C920    1.442   .     S
C622   O698    1.412   .     S
C622   H682    1.116   .     S
C622   C624    1.521   .     S
C622   H746    1.114   .     S
C623   C636    1.404   .     A
C623   H678    1.079   .     S
C624   H647    1.110   .     S
C624   H648    1.110   .     S
C624   H649    1.111   .     S
C625   C626    1.521   .     S
C625   H651    1.116   .     S
C625   O686    1.412   .     S
C625   H850    1.112   1_455 S
C626   H654    1.111   .     S
C626   H652    1.110   .     S
C626   H653    1.110   .     S
C627   H655    1.115   .     S
C627   H657    1.114   .     S
C627   O687    1.414   .     S
C627   C628    1.521   .     S
C628   H660    1.110   .     S
C628   H659    1.111   .     S
C628   H658    1.110   .     S
C629   O688    1.414   .     S
C629   H661    1.114   .     S
C629   C630    1.517   .     S
C629   H662    1.114   .     S
C630   H664    1.110   .     S
C630   H665    1.111   .     S
C630   H863    1.110   1_455 S
C631   H666    1.116   .     S
C631   O689    1.412   .     S
C631   H668    1.113   .     S
C631   C632    1.521   .     S
C632   H769    1.110   .     S
C633   H673    1.113   .     S
C633   O690    1.412   .     S
C633   C35     1.520   1_556 S
C633   H72     1.115   1_556 S
C634   C637    1.406   .     A
C634   H679    1.080   .     S
C635   H675    1.110   .     S
C635   H676    1.111   .     S
C636   N683    1.360   .     A
C636   H680    1.082   .     S
C637   N684    1.361   .     A
C637   H681    1.081   .     S
C638   N683    1.368   .     A
C638   Cl643   1.752   .     S
C638   C640    1.410   .     A
C639   N684    1.371   .     A
C639   Cl644   1.757   .     S
C640   O689    1.382   .     S
H646   C822    1.114   1_455 S
H650   C725    1.112   .     S
H663   C730    1.110   .     S
H669   C832    1.110   1_455 S
H670   C232    1.108   1_456 S
H671   C32     1.111   1_556 S
H674   C35     1.111   1_556 S
N683   Zn700   2.010   .     S
N684   Zn699   2.010   .     S
O685   Zn699   2.003   .     S
O686   C808    1.391   1_455 S
O691   Zn700   2.003   .     S
O692   Zn700   1.986   .     S
O693   Zn699   1.986   .     S
O694   Zn699   1.990   .     S
O695   Zn700   1.990   .     S
O696   Zn700   1.993   .     S
O697   Zn699   1.993   .     S
O698   C707    1.390   .     S
C701   O785    1.289   .     A
C701   O792    1.291   .     A
C701   C714    1.446   .     S
C702   O790    1.382   .     S
C702   C739    1.409   .     A
C702   C704    1.414   .     A
C703   C723    1.414   .     A
C703   C740    1.417   .     A
C704   C734    1.413   .     A
C704   C103    1.520   1_556 S
C705   O794    1.275   .     A
C705   C707    1.405   .     S
C705   O796    1.281   .     A
C706   O797    1.280   .     A
C706   C708    1.404   .     S
C706   O795    1.276   .     A
C708   C807    1.349   .     S
C708   O886    1.391   .     S
C709   C720    1.404   .     A
C709   C711    1.392   .     A
C709   Cl741   1.767   .     S
C710   Cl742   1.768   .     S
C710   C721    1.408   .     A
C710   C713    1.392   .     A
C711   C714    1.414   .     A
C711   O787    1.384   .     S
C712   O791    1.284   .     A
C712   C715    1.423   .     S
C712   O793    1.284   .     A
C713   C715    1.400   .     A
C713   O788    1.383   .     S
C714   C716    1.398   .     A
C715   C717    1.392   .     A
C716   H745    1.084   .     S
C716   C718    1.376   .     A
C717   C719    1.378   .     A
C717   H756    1.083   .     S
C718   C720    1.396   .     A
C718   H767    1.084   .     S
C719   C721    1.398   .     A
C719   H777    1.084   .     S
C720   C1021   1.442   1_545 S
C721   C1020   1.442   .     S
C722   O798    1.412   .     S
C722   H782    1.116   .     S
C722   C724    1.521   .     S
C722   H846    1.114   .     S
C723   C736    1.404   .     A
C723   H778    1.079   .     S
C724   H747    1.110   .     S
C724   H748    1.110   .     S
C724   H749    1.111   .     S
C725   C726    1.521   .     S
C725   H751    1.116   .     S
C725   O786    1.412   .     S
C726   H754    1.111   .     S
C726   H752    1.110   .     S
C726   H753    1.110   .     S
C727   H755    1.115   .     S
C727   H757    1.114   .     S
C727   O787    1.414   .     S
C727   C728    1.521   .     S
C728   H760    1.110   .     S
C728   H759    1.111   .     S
C728   H758    1.110   .     S
C729   O788    1.414   .     S
C729   H761    1.114   .     S
C729   C730    1.517   .     S
C729   H762    1.114   .     S
C730   H764    1.110   .     S
C730   H765    1.111   .     S
C731   H766    1.116   .     S
C731   O789    1.412   .     S
C731   H768    1.113   .     S
C731   C732    1.521   .     S
C732   H869    1.110   .     S
C733   H773    1.113   .     S
C733   O790    1.412   .     S
C733   C135    1.520   1_556 S
C733   H172    1.115   1_556 S
C734   C737    1.406   .     A
C734   H779    1.080   .     S
C735   H775    1.110   .     S
C735   H776    1.111   .     S
C736   N783    1.360   .     A
C736   H780    1.082   .     S
C737   N784    1.361   .     A
C737   H781    1.081   .     S
C738   N783    1.368   .     A
C738   Cl743   1.752   .     S
C738   C740    1.410   .     A
C739   N784    1.371   .     A
C739   Cl744   1.757   .     S
C740   O789    1.382   .     S
H750   C825    1.112   .     S
H763   C830    1.110   .     S
H770   C32     1.108   1_556 S
H771   C132    1.111   1_556 S
H774   C135    1.111   1_556 S
N783   Zn800   2.010   .     S
N784   Zn799   2.010   .     S
O785   Zn799   2.003   .     S
O791   Zn800   2.003   .     S
O792   Zn800   1.986   .     S
O793   Zn799   1.986   .     S
O794   Zn799   1.990   .     S
O795   Zn800   1.990   .     S
O796   Zn800   1.993   .     S
O797   Zn799   1.993   .     S
O798   C807    1.390   .     S
C801   O885    1.289   .     A
C801   O892    1.291   .     A
C801   C814    1.446   .     S
C802   O890    1.382   .     S
C802   C839    1.409   .     A
C802   C804    1.414   .     A
C803   C823    1.414   .     A
C803   C840    1.417   .     A
C804   C834    1.413   .     A
C804   C203    1.520   1_556 S
C805   O894    1.275   .     A
C805   C807    1.405   .     S
C805   O896    1.281   .     A
C806   O897    1.280   .     A
C806   C808    1.404   .     S
C806   O895    1.276   .     A
C808   C607    1.349   1_655 S
C808   O686    1.391   1_655 S
C809   C820    1.404   .     A
C809   C811    1.392   .     A
C809   Cl841   1.767   .     S
C810   Cl842   1.768   .     S
C810   C821    1.408   .     A
C810   C813    1.392   .     A
C811   C814    1.414   .     A
C811   O887    1.384   .     S
C812   O891    1.284   .     A
C812   C815    1.423   .     S
C812   O893    1.284   .     A
C813   C815    1.400   .     A
C813   O888    1.383   .     S
C814   C816    1.398   .     A
C815   C817    1.392   .     A
C816   H845    1.084   .     S
C816   C818    1.376   .     A
C817   C819    1.378   .     A
C817   H856    1.083   .     S
C818   C820    1.396   .     A
C818   H867    1.084   .     S
C819   C821    1.398   .     A
C819   H877    1.084   .     S
C820   C1121   1.442   1_545 S
C821   C1120   1.442   .     S
C822   O898    1.412   .     S
C822   H882    1.116   .     S
C822   C824    1.521   .     S
C822   H646    1.114   1_655 S
C823   C836    1.404   .     A
C823   H878    1.079   .     S
C824   H847    1.110   .     S
C824   H848    1.110   .     S
C824   H849    1.111   .     S
C825   C826    1.521   .     S
C825   H851    1.116   .     S
C825   O886    1.412   .     S
C826   H854    1.111   .     S
C826   H852    1.110   .     S
C826   H853    1.110   .     S
C827   H855    1.115   .     S
C827   H857    1.114   .     S
C827   O887    1.414   .     S
C827   C828    1.521   .     S
C828   H860    1.110   .     S
C828   H859    1.111   .     S
C828   H858    1.110   .     S
C829   O888    1.414   .     S
C829   H861    1.114   .     S
C829   C830    1.517   .     S
C829   H862    1.114   .     S
C830   H864    1.110   .     S
C830   H865    1.111   .     S
C831   H866    1.116   .     S
C831   O889    1.412   .     S
C831   H868    1.113   .     S
C831   C832    1.521   .     S
C832   H669    1.110   1_655 S
C832   H70     1.108   1_655 S
C833   H873    1.113   .     S
C833   O890    1.412   .     S
C833   C235    1.520   1_556 S
C833   H272    1.115   1_556 S
C834   C837    1.406   .     A
C834   H879    1.080   .     S
C835   H875    1.110   .     S
C835   H876    1.111   .     S
C836   N883    1.360   .     A
C836   H880    1.082   .     S
C837   N884    1.361   .     A
C837   H881    1.081   .     S
C838   N883    1.368   .     A
C838   Cl843   1.752   .     S
C838   C840    1.410   .     A
C839   N884    1.371   .     A
C839   Cl844   1.757   .     S
C840   O889    1.382   .     S
H850   C625    1.112   1_655 S
H863   C630    1.110   1_655 S
H870   C132    1.108   1_556 S
H871   C232    1.111   1_556 S
H874   C235    1.111   1_556 S
N883   Zn900   2.010   .     S
N884   Zn899   2.010   .     S
O885   Zn899   2.003   .     S
O891   Zn900   2.003   .     S
O892   Zn900   1.986   .     S
O893   Zn899   1.986   .     S
O894   Zn899   1.990   .     S
O895   Zn900   1.990   .     S
O896   Zn900   1.993   .     S
O897   Zn899   1.993   .     S
O898   C607    1.390   1_655 S
C901   O985    1.289   .     A
C901   O992    1.291   .     A
C901   C914    1.446   .     S
C902   O990    1.382   .     S
C902   C939    1.409   .     A
C902   C904    1.414   .     A
C903   C923    1.414   .     A
C903   C940    1.417   .     A
C904   C934    1.413   .     A
C904   C303    1.520   1_556 S
C905   O994    1.275   .     A
C905   C907    1.405   .     S
C905   O996    1.281   .     A
C906   O997    1.280   .     A
C906   C908    1.404   .     S
C906   O995    1.276   .     A
C907   C1108   1.349   1_455 S
C907   O1198   1.390   1_455 S
C908   C1007   1.349   .     S
C908   O1086   1.391   .     S
C909   C920    1.404   .     A
C909   C911    1.392   .     A
C909   Cl941   1.767   .     S
C910   Cl942   1.768   .     S
C910   C921    1.408   .     A
C910   C913    1.392   .     A
C911   C914    1.414   .     A
C911   O987    1.384   .     S
C912   O991    1.284   .     A
C912   C915    1.423   .     S
C912   O993    1.284   .     A
C913   C915    1.400   .     A
C913   O988    1.383   .     S
C914   C916    1.398   .     A
C915   C917    1.392   .     A
C916   H945    1.084   .     S
C916   C918    1.376   .     A
C917   C919    1.378   .     A
C917   H956    1.083   .     S
C918   C920    1.396   .     A
C918   H967    1.084   .     S
C919   C921    1.398   .     A
C919   H977    1.084   .     S
C921   C620    1.442   1_565 S
C922   O998    1.412   .     S
C922   H982    1.116   .     S
C922   C924    1.521   .     S
C922   H1046   1.114   .     S
C923   C936    1.404   .     A
C923   H978    1.079   .     S
C924   H947    1.110   .     S
C924   H948    1.110   .     S
C924   H949    1.111   .     S
C925   C926    1.521   .     S
C925   H951    1.116   .     S
C925   O986    1.412   .     S
C925   H1150   1.112   1_455 S
C926   H954    1.111   .     S
C926   H952    1.110   .     S
C926   H953    1.110   .     S
C927   H955    1.115   .     S
C927   H957    1.114   .     S
C927   O987    1.414   .     S
C927   C928    1.521   .     S
C928   H960    1.110   .     S
C928   H959    1.111   .     S
C928   H958    1.110   .     S
C929   O988    1.414   .     S
C929   H961    1.114   .     S
C929   C930    1.517   .     S
C929   H962    1.114   .     S
C930   H964    1.110   .     S
C930   H965    1.111   .     S
C930   H1163   1.110   1_455 S
C931   H966    1.116   .     S
C931   O989    1.412   .     S
C931   H968    1.113   .     S
C931   C932    1.521   .     S
C932   H1069   1.110   .     S
C933   H973    1.113   .     S
C933   O990    1.412   .     S
C933   C335    1.520   1_556 S
C933   H372    1.115   1_556 S
C934   C937    1.406   .     A
C934   H979    1.080   .     S
C935   H975    1.110   .     S
C935   H976    1.111   .     S
C936   N983    1.360   .     A
C936   H980    1.082   .     S
C937   N984    1.361   .     A
C937   H981    1.081   .     S
C938   N983    1.368   .     A
C938   Cl943   1.752   .     S
C938   C940    1.410   .     A
C939   N984    1.371   .     A
C939   Cl944   1.757   .     S
C940   O989    1.382   .     S
H946   C1122   1.114   1_455 S
H950   C1025   1.112   .     S
H963   C1030   1.110   .     S
H969   C1132   1.110   1_455 S
H970   C532    1.108   1_456 S
H971   C332    1.111   1_556 S
H974   C335    1.111   1_556 S
N983   Zn1000  2.010   .     S
N984   Zn999   2.010   .     S
O985   Zn999   2.003   .     S
O986   C1108   1.391   1_455 S
O991   Zn1000  2.003   .     S
O992   Zn1000  1.986   .     S
O993   Zn999   1.986   .     S
O994   Zn999   1.990   .     S
O995   Zn1000  1.990   .     S
O996   Zn1000  1.993   .     S
O997   Zn999   1.993   .     S
O998   C1007   1.390   .     S
C1001  O1085   1.289   .     A
C1001  O1092   1.291   .     A
C1001  C1014   1.446   .     S
C1002  O1090   1.382   .     S
C1002  C1039   1.409   .     A
C1002  C1004   1.414   .     A
C1003  C1023   1.414   .     A
C1003  C1040   1.417   .     A
C1004  C1034   1.413   .     A
C1004  C403    1.520   1_556 S
C1005  O1094   1.275   .     A
C1005  C1007   1.405   .     S
C1005  O1096   1.281   .     A
C1006  O1097   1.280   .     A
C1006  C1008   1.404   .     S
C1006  O1095   1.276   .     A
C1008  C1107   1.349   .     S
C1008  O1186   1.391   .     S
C1009  C1020   1.404   .     A
C1009  C1011   1.392   .     A
C1009  Cl1041  1.767   .     S
C1010  Cl1042  1.768   .     S
C1010  C1021   1.408   .     A
C1010  C1013   1.392   .     A
C1011  C1014   1.414   .     A
C1011  O1087   1.384   .     S
C1012  O1091   1.284   .     A
C1012  C1015   1.423   .     S
C1012  O1093   1.284   .     A
C1013  C1015   1.400   .     A
C1013  O1088   1.383   .     S
C1014  C1016   1.398   .     A
C1015  C1017   1.392   .     A
C1016  H1045   1.084   .     S
C1016  C1018   1.376   .     A
C1017  C1019   1.378   .     A
C1017  H1056   1.083   .     S
C1018  C1020   1.396   .     A
C1018  H1067   1.084   .     S
C1019  C1021   1.398   .     A
C1019  H1077   1.084   .     S
C1021  C720    1.442   1_565 S
C1022  O1098   1.412   .     S
C1022  H1082   1.116   .     S
C1022  C1024   1.521   .     S
C1022  H1146   1.114   .     S
C1023  C1036   1.404   .     A
C1023  H1078   1.079   .     S
C1024  H1047   1.110   .     S
C1024  H1048   1.110   .     S
C1024  H1049   1.111   .     S
C1025  C1026   1.521   .     S
C1025  H1051   1.116   .     S
C1025  O1086   1.412   .     S
C1026  H1054   1.111   .     S
C1026  H1052   1.110   .     S
C1026  H1053   1.110   .     S
C1027  H1055   1.115   .     S
C1027  H1057   1.114   .     S
C1027  O1087   1.414   .     S
C1027  C1028   1.521   .     S
C1028  H1060   1.110   .     S
C1028  H1059   1.111   .     S
C1028  H1058   1.110   .     S
C1029  O1088   1.414   .     S
C1029  H1061   1.114   .     S
C1029  C1030   1.517   .     S
C1029  H1062   1.114   .     S
C1030  H1064   1.110   .     S
C1030  H1065   1.111   .     S
C1031  H1066   1.116   .     S
C1031  O1089   1.412   .     S
C1031  H1068   1.113   .     S
C1031  C1032   1.521   .     S
C1032  H1169   1.110   .     S
C1033  H1073   1.113   .     S
C1033  O1090   1.412   .     S
C1033  C435    1.520   1_556 S
C1033  H472    1.115   1_556 S
C1034  C1037   1.406   .     A
C1034  H1079   1.080   .     S
C1035  H1075   1.110   .     S
C1035  H1076   1.111   .     S
C1036  N1083   1.360   .     A
C1036  H1080   1.082   .     S
C1037  N1084   1.361   .     A
C1037  H1081   1.081   .     S
C1038  N1083   1.368   .     A
C1038  Cl1043  1.752   .     S
C1038  C1040   1.410   .     A
C1039  N1084   1.371   .     A
C1039  Cl1044  1.757   .     S
C1040  O1089   1.382   .     S
H1050  C1125   1.112   .     S
H1063  C1130   1.110   .     S
H1070  C332    1.108   1_556 S
H1071  C432    1.111   1_556 S
H1074  C435    1.111   1_556 S
N1083  Zn1100  2.010   .     S
N1084  Zn1099  2.010   .     S
O1085  Zn1099  2.003   .     S
O1091  Zn1100  2.003   .     S
O1092  Zn1100  1.986   .     S
O1093  Zn1099  1.986   .     S
O1094  Zn1099  1.990   .     S
O1095  Zn1100  1.990   .     S
O1096  Zn1100  1.993   .     S
O1097  Zn1099  1.993   .     S
O1098  C1107   1.390   .     S
C1101  O1185   1.289   .     A
C1101  O1192   1.291   .     A
C1101  C1114   1.446   .     S
C1102  O1190   1.382   .     S
C1102  C1139   1.409   .     A
C1102  C1104   1.414   .     A
C1103  C1123   1.414   .     A
C1103  C1140   1.417   .     A
C1104  C1134   1.413   .     A
C1104  C503    1.520   1_556 S
C1105  O1194   1.275   .     A
C1105  C1107   1.405   .     S
C1105  O1196   1.281   .     A
C1106  O1197   1.280   .     A
C1106  C1108   1.404   .     S
C1106  O1195   1.276   .     A
C1108  C907    1.349   1_655 S
C1108  O986    1.391   1_655 S
C1109  C1120   1.404   .     A
C1109  C1111   1.392   .     A
C1109  Cl1141  1.767   .     S
C1110  Cl1142  1.768   .     S
C1110  C1121   1.408   .     A
C1110  C1113   1.392   .     A
C1111  C1114   1.414   .     A
C1111  O1187   1.384   .     S
C1112  O1191   1.284   .     A
C1112  C1115   1.423   .     S
C1112  O1193   1.284   .     A
C1113  C1115   1.400   .     A
C1113  O1188   1.383   .     S
C1114  C1116   1.398   .     A
C1115  C1117   1.392   .     A
C1116  H1145   1.084   .     S
C1116  C1118   1.376   .     A
C1117  C1119   1.378   .     A
C1117  H1156   1.083   .     S
C1118  C1120   1.396   .     A
C1118  H1167   1.084   .     S
C1119  C1121   1.398   .     A
C1119  H1177   1.084   .     S
C1121  C820    1.442   1_565 S
C1122  O1198   1.412   .     S
C1122  H1182   1.116   .     S
C1122  C1124   1.521   .     S
C1122  H946    1.114   1_655 S
C1123  C1136   1.404   .     A
C1123  H1178   1.079   .     S
C1124  H1147   1.110   .     S
C1124  H1148   1.110   .     S
C1124  H1149   1.111   .     S
C1125  C1126   1.521   .     S
C1125  H1151   1.116   .     S
C1125  O1186   1.412   .     S
C1126  H1154   1.111   .     S
C1126  H1152   1.110   .     S
C1126  H1153   1.110   .     S
C1127  H1155   1.115   .     S
C1127  H1157   1.114   .     S
C1127  O1187   1.414   .     S
C1127  C1128   1.521   .     S
C1128  H1160   1.110   .     S
C1128  H1159   1.111   .     S
C1128  H1158   1.110   .     S
C1129  O1188   1.414   .     S
C1129  H1161   1.114   .     S
C1129  C1130   1.517   .     S
C1129  H1162   1.114   .     S
C1130  H1164   1.110   .     S
C1130  H1165   1.111   .     S
C1131  H1166   1.116   .     S
C1131  O1189   1.412   .     S
C1131  H1168   1.113   .     S
C1131  C1132   1.521   .     S
C1132  H969    1.110   1_655 S
C1132  H370    1.108   1_655 S
C1133  H1173   1.113   .     S
C1133  O1190   1.412   .     S
C1133  C535    1.520   1_556 S
C1133  H572    1.115   1_556 S
C1134  C1137   1.406   .     A
C1134  H1179   1.080   .     S
C1135  H1175   1.110   .     S
C1135  H1176   1.111   .     S
C1136  N1183   1.360   .     A
C1136  H1180   1.082   .     S
C1137  N1184   1.361   .     A
C1137  H1181   1.081   .     S
C1138  N1183   1.368   .     A
C1138  Cl1143  1.752   .     S
C1138  C1140   1.410   .     A
C1139  N1184   1.371   .     A
C1139  Cl1144  1.757   .     S
C1140  O1189   1.382   .     S
H1150  C925    1.112   1_655 S
H1163  C930    1.110   1_655 S
H1170  C432    1.108   1_556 S
H1171  C532    1.111   1_556 S
H1174  C535    1.111   1_556 S
N1183  Zn1200  2.010   .     S
N1184  Zn1199  2.010   .     S
O1185  Zn1199  2.003   .     S
O1191  Zn1200  2.003   .     S
O1192  Zn1200  1.986   .     S
O1193  Zn1199  1.986   .     S
O1194  Zn1199  1.990   .     S
O1195  Zn1200  1.990   .     S
O1196  Zn1200  1.993   .     S
O1197  Zn1199  1.993   .     S
O1198  C907    1.390   1_655 S
