data_str_m3_o1_o18_pcu_sym.209
_audit_creation_date              2020-01-03
_audit_creation_method            'Materials Studio'
_symmetry_space_group_name_H-M    'P1'
_symmetry_Int_Tables_number       1
_symmetry_cell_setting            triclinic
loop_
_symmetry_equiv_pos_as_xyz
  x,y,z
_cell_length_a                    29.7260
_cell_length_b                    32.4595
_cell_length_c                    31.0920
_cell_angle_alpha                 91.9162
_cell_angle_beta                  68.3949
_cell_angle_gamma                 89.0354
loop_
_atom_site_label
_atom_site_type_symbol
_atom_site_fract_x
_atom_site_fract_y
_atom_site_fract_z
_atom_site_U_iso_or_equiv
_atom_site_adp_type
_atom_site_occupancy
O1     O     0.12846   0.22775   0.25001   0.00000  Uiso   1.00
O2     O     0.20488   0.10558   0.25000   0.00000  Uiso   1.00
O3     O     0.20490   0.22774   0.25000   0.00000  Uiso   1.00
O4     O     0.12843   0.10559   0.25000   0.00000  Uiso   1.00
C5     C     0.16593   0.24668   0.25020   0.00000  Uiso   1.00
C6     C     0.16729   0.08667   0.25016   0.00000  Uiso   1.00
O7     O     0.10661   0.16667   0.31612   0.00000  Uiso   1.00
O8     O     0.22672   0.16666   0.18388   0.00000  Uiso   1.00
O9     O     0.18305   0.16666   0.31612   0.00000  Uiso   1.00
O10    O     0.15028   0.16667   0.18388   0.00000  Uiso   1.00
C11    C     0.13645   0.16624   0.33770   0.00000  Uiso   1.00
C12    C     0.19688   0.16635   0.16225   0.00000  Uiso   1.00
Zn13   Zn    0.11562   0.16667   0.25000   0.00000  Uiso   1.00
Zn14   Zn    0.21771   0.16666   0.25000   0.00000  Uiso   1.00
C15    C     0.11765   0.16374   0.38783   0.00000  Uiso   1.00
C16    C     0.21513   0.16091   0.11206   0.00000  Uiso   1.00
C17    C     0.05371   0.17351   0.46288   0.00000  Uiso   1.00
C18    C     0.27270   0.13071   0.04057   0.00000  Uiso   1.00
C19    C     0.06900   0.17289   0.41482   0.00000  Uiso   1.00
C20    C     0.26085   0.14291   0.08695   0.00000  Uiso   1.00
C21    C     0.14999   0.15279   0.40873   0.00000  Uiso   1.00
C22    C     0.18251   0.16809   0.09043   0.00000  Uiso   1.00
C23    C     0.13548   0.15267   0.45676   0.00000  Uiso   1.00
C24    C     0.19165   0.15260   0.04558   0.00000  Uiso   1.00
C25    C     0.08691   0.16468   0.48401   0.00000  Uiso   1.00
C26    C     0.23824   0.13506   0.01982   0.00000  Uiso   1.00
C27    C     0.16912   0.14420   0.47809   0.00000  Uiso   1.00
C28    C     0.15568   0.15438   0.02584   0.00000  Uiso   1.00
C29    C     0.10656   0.16517   0.05241   0.00000  Uiso   1.00
C30    C     0.21576   0.12627   0.45325   0.00000  Uiso   1.00
C31    C     0.07261   0.16923   0.03181   0.00000  Uiso   1.00
C32    C     0.24951   0.12151   0.47404   0.00000  Uiso   1.00
H33    H     0.03546   0.17775   0.05323   0.00000  Uiso   1.00
H34    H     0.28471   0.10745   0.45406   0.00000  Uiso   1.00
H35    H     0.01648   0.18245   0.48345   0.00000  Uiso   1.00
H36    H     0.30807   0.11658   0.02143   0.00000  Uiso   1.00
H37    H     0.09284   0.16990   0.08948   0.00000  Uiso   1.00
H38    H     0.22667   0.11421   0.41804   0.00000  Uiso   1.00
C39    C     0.20825   0.30994   0.24384   0.00000  Uiso   1.00
C40    C     0.12462   0.02347   0.25787   0.00000  Uiso   1.00
C41    C     0.21107   0.01883   0.24490   0.00000  Uiso   1.00
C42    C     0.12178   0.31457   0.25693   0.00000  Uiso   1.00
C43    C     0.16836   0.04247   0.25115   0.00000  Uiso   1.00
C44    C     0.16461   0.29092   0.25012   0.00000  Uiso   1.00
C45    C     0.32125   0.14303   0.21843   0.00000  Uiso   1.00
C46    C     0.01206   0.19021   0.28165   0.00000  Uiso   1.00
C47    C     0.03550   0.14166   0.21881   0.00000  Uiso   1.00
C48    C     0.29776   0.19152   0.28137   0.00000  Uiso   1.00
N49    N     0.04759   0.16668   0.25001   0.00000  Uiso   1.00
N50    N     0.28574   0.16666   0.24999   0.00000  Uiso   1.00
H51    H     0.14946   0.18522   0.10991   0.00000  Uiso   1.00
H52    H     0.18728   0.14676   0.38681   0.00000  Uiso   1.00
H53    H     0.28652   0.13697   0.10346   0.00000  Uiso   1.00
H54    H     0.04339   0.18105   0.39892   0.00000  Uiso   1.00
H55    H     0.24090   0.29168   0.23811   0.00000  Uiso   1.00
H56    H     0.09194   0.04175   0.26381   0.00000  Uiso   1.00
C57    C     0.26007   0.03603   0.23960   0.00000  Uiso   1.00
C58    C     0.26164   0.05021   0.28649   0.00000  Uiso   1.00
H59    H     0.29510   0.06737   0.28120   0.00000  Uiso   1.00
H60    H     0.23002   0.07052   0.30677   0.00000  Uiso   1.00
H61    H     0.26174   0.02300   0.30715   0.00000  Uiso   1.00
H62    H     0.28951   0.01218   0.22424   0.00000  Uiso   1.00
H63    H     0.27009   0.06067   0.21431   0.00000  Uiso   1.00
C64    C     0.07260   0.29733   0.26305   0.00000  Uiso   1.00
C65    C     0.06991   0.28363   0.21647   0.00000  Uiso   1.00
H66    H     0.10184   0.26415   0.19504   0.00000  Uiso   1.00
H67    H     0.03686   0.26574   0.22222   0.00000  Uiso   1.00
H68    H     0.06820   0.31106   0.19671   0.00000  Uiso   1.00
H69    H     0.06331   0.27239   0.28799   0.00000  Uiso   1.00
H70    H     0.04318   0.32104   0.27929   0.00000  Uiso   1.00
H71    H     0.31239   0.12492   0.19298   0.00000  Uiso   1.00
H72    H     0.02094   0.20813   0.30720   0.00000  Uiso   1.00
C73    C     0.07138   0.11209   0.18340   0.00000  Uiso   1.00
C74    C     0.05433   0.06772   0.18675   0.00000  Uiso   1.00
H75    H     0.04170   0.05812   0.22307   0.00000  Uiso   1.00
H76    H     0.02481   0.06432   0.17327   0.00000  Uiso   1.00
H77    H     0.08487   0.04679   0.16532   0.00000  Uiso   1.00
H78    H     0.07744   0.12252   0.14816   0.00000  Uiso   1.00
H79    H     0.10648   0.11058   0.18680   0.00000  Uiso   1.00
C80    C     0.26157   0.22041   0.31746   0.00000  Uiso   1.00
C81    C     0.27844   0.26480   0.31598   0.00000  Uiso   1.00
H82    H     0.30791   0.26752   0.32960   0.00000  Uiso   1.00
H83    H     0.29094   0.27562   0.28014   0.00000  Uiso   1.00
H84    H     0.24781   0.28528   0.33816   0.00000  Uiso   1.00
H85    H     0.22688   0.22258   0.31329   0.00000  Uiso   1.00
H86    H     0.25484   0.20872   0.35242   0.00000  Uiso   1.00
O87    O     0.46179   0.22775   0.25001   0.00000  Uiso   1.00
O88    O     0.53821   0.10558   0.25000   0.00000  Uiso   1.00
O89    O     0.53823   0.22774   0.25000   0.00000  Uiso   1.00
O90    O     0.46177   0.10559   0.25000   0.00000  Uiso   1.00
C91    C     0.49926   0.24668   0.25020   0.00000  Uiso   1.00
C92    C     0.50062   0.08667   0.25016   0.00000  Uiso   1.00
O93    O     0.43994   0.16667   0.31612   0.00000  Uiso   1.00
O94    O     0.56006   0.16666   0.18388   0.00000  Uiso   1.00
O95    O     0.51639   0.16666   0.31612   0.00000  Uiso   1.00
O96    O     0.48361   0.16667   0.18388   0.00000  Uiso   1.00
C97    C     0.46978   0.16624   0.33770   0.00000  Uiso   1.00
C98    C     0.53021   0.16635   0.16225   0.00000  Uiso   1.00
Zn99   Zn    0.44896   0.16667   0.25000   0.00000  Uiso   1.00
Zn100  Zn    0.55104   0.16666   0.25000   0.00000  Uiso   1.00
C101   C     0.45099   0.16374   0.38783   0.00000  Uiso   1.00
C102   C     0.54847   0.16091   0.11206   0.00000  Uiso   1.00
C103   C     0.38704   0.17351   0.46288   0.00000  Uiso   1.00
C104   C     0.60603   0.13071   0.04057   0.00000  Uiso   1.00
C105   C     0.40234   0.17289   0.41482   0.00000  Uiso   1.00
C106   C     0.59418   0.14291   0.08695   0.00000  Uiso   1.00
C107   C     0.48332   0.15279   0.40873   0.00000  Uiso   1.00
C108   C     0.51584   0.16809   0.09043   0.00000  Uiso   1.00
C109   C     0.46882   0.15267   0.45676   0.00000  Uiso   1.00
C110   C     0.52498   0.15260   0.04558   0.00000  Uiso   1.00
C111   C     0.42025   0.16468   0.48401   0.00000  Uiso   1.00
C112   C     0.57158   0.13506   0.01982   0.00000  Uiso   1.00
C113   C     0.50245   0.14420   0.47809   0.00000  Uiso   1.00
C114   C     0.48902   0.15438   0.02584   0.00000  Uiso   1.00
C115   C     0.43990   0.16517   0.05241   0.00000  Uiso   1.00
C116   C     0.54909   0.12627   0.45325   0.00000  Uiso   1.00
C117   C     0.40595   0.16923   0.03181   0.00000  Uiso   1.00
C118   C     0.58284   0.12151   0.47404   0.00000  Uiso   1.00
H119   H     0.36879   0.17775   0.05323   0.00000  Uiso   1.00
H120   H     0.61804   0.10745   0.45406   0.00000  Uiso   1.00
H121   H     0.34981   0.18245   0.48345   0.00000  Uiso   1.00
H122   H     0.64140   0.11658   0.02143   0.00000  Uiso   1.00
H123   H     0.42618   0.16990   0.08948   0.00000  Uiso   1.00
H124   H     0.56000   0.11421   0.41804   0.00000  Uiso   1.00
C125   C     0.54158   0.30994   0.24384   0.00000  Uiso   1.00
C126   C     0.45796   0.02347   0.25787   0.00000  Uiso   1.00
C127   C     0.54440   0.01883   0.24490   0.00000  Uiso   1.00
C128   C     0.45511   0.31457   0.25693   0.00000  Uiso   1.00
C129   C     0.50169   0.04247   0.25115   0.00000  Uiso   1.00
C130   C     0.49795   0.29092   0.25012   0.00000  Uiso   1.00
C131   C     0.65459   0.14303   0.21843   0.00000  Uiso   1.00
C132   C     0.34540   0.19021   0.28165   0.00000  Uiso   1.00
C133   C     0.36884   0.14166   0.21881   0.00000  Uiso   1.00
C134   C     0.63110   0.19152   0.28137   0.00000  Uiso   1.00
N135   N     0.38093   0.16668   0.25001   0.00000  Uiso   1.00
N136   N     0.61907   0.16666   0.24999   0.00000  Uiso   1.00
H137   H     0.48280   0.18522   0.10991   0.00000  Uiso   1.00
H138   H     0.52062   0.14676   0.38681   0.00000  Uiso   1.00
H139   H     0.61986   0.13697   0.10346   0.00000  Uiso   1.00
H140   H     0.37672   0.18105   0.39892   0.00000  Uiso   1.00
H141   H     0.57424   0.29168   0.23811   0.00000  Uiso   1.00
H142   H     0.42528   0.04175   0.26381   0.00000  Uiso   1.00
C143   C     0.59340   0.03603   0.23960   0.00000  Uiso   1.00
C144   C     0.59497   0.05021   0.28649   0.00000  Uiso   1.00
H145   H     0.62844   0.06737   0.28120   0.00000  Uiso   1.00
H146   H     0.56336   0.07052   0.30677   0.00000  Uiso   1.00
H147   H     0.59508   0.02300   0.30715   0.00000  Uiso   1.00
H148   H     0.62284   0.01218   0.22424   0.00000  Uiso   1.00
H149   H     0.60343   0.06067   0.21431   0.00000  Uiso   1.00
C150   C     0.40593   0.29733   0.26305   0.00000  Uiso   1.00
C151   C     0.40324   0.28363   0.21647   0.00000  Uiso   1.00
H152   H     0.43517   0.26415   0.19504   0.00000  Uiso   1.00
H153   H     0.37020   0.26574   0.22222   0.00000  Uiso   1.00
H154   H     0.40153   0.31106   0.19671   0.00000  Uiso   1.00
H155   H     0.39665   0.27239   0.28799   0.00000  Uiso   1.00
H156   H     0.37652   0.32104   0.27929   0.00000  Uiso   1.00
H157   H     0.64572   0.12492   0.19298   0.00000  Uiso   1.00
H158   H     0.35427   0.20813   0.30720   0.00000  Uiso   1.00
C159   C     0.40471   0.11209   0.18340   0.00000  Uiso   1.00
C160   C     0.38766   0.06772   0.18675   0.00000  Uiso   1.00
H161   H     0.37503   0.05812   0.22307   0.00000  Uiso   1.00
H162   H     0.35814   0.06432   0.17327   0.00000  Uiso   1.00
H163   H     0.41820   0.04679   0.16532   0.00000  Uiso   1.00
H164   H     0.41078   0.12252   0.14816   0.00000  Uiso   1.00
H165   H     0.43981   0.11058   0.18680   0.00000  Uiso   1.00
C166   C     0.59491   0.22041   0.31746   0.00000  Uiso   1.00
C167   C     0.61177   0.26480   0.31598   0.00000  Uiso   1.00
H168   H     0.64125   0.26752   0.32960   0.00000  Uiso   1.00
H169   H     0.62427   0.27562   0.28014   0.00000  Uiso   1.00
H170   H     0.58114   0.28528   0.33816   0.00000  Uiso   1.00
H171   H     0.56021   0.22258   0.31329   0.00000  Uiso   1.00
H172   H     0.58817   0.20872   0.35242   0.00000  Uiso   1.00
O173   O     0.79512   0.22775   0.25001   0.00000  Uiso   1.00
O174   O     0.87154   0.10558   0.25000   0.00000  Uiso   1.00
O175   O     0.87157   0.22774   0.25000   0.00000  Uiso   1.00
O176   O     0.79510   0.10559   0.25000   0.00000  Uiso   1.00
C177   C     0.83259   0.24668   0.25020   0.00000  Uiso   1.00
C178   C     0.83396   0.08667   0.25016   0.00000  Uiso   1.00
O179   O     0.77328   0.16667   0.31612   0.00000  Uiso   1.00
O180   O     0.89339   0.16666   0.18388   0.00000  Uiso   1.00
O181   O     0.84972   0.16666   0.31612   0.00000  Uiso   1.00
O182   O     0.81695   0.16667   0.18388   0.00000  Uiso   1.00
C183   C     0.80312   0.16624   0.33770   0.00000  Uiso   1.00
C184   C     0.86355   0.16635   0.16225   0.00000  Uiso   1.00
Zn185  Zn    0.78229   0.16667   0.25000   0.00000  Uiso   1.00
Zn186  Zn    0.88438   0.16666   0.25000   0.00000  Uiso   1.00
C187   C     0.78432   0.16374   0.38783   0.00000  Uiso   1.00
C188   C     0.88180   0.16091   0.11206   0.00000  Uiso   1.00
C189   C     0.72037   0.17351   0.46288   0.00000  Uiso   1.00
C190   C     0.93937   0.13071   0.04057   0.00000  Uiso   1.00
C191   C     0.73567   0.17289   0.41482   0.00000  Uiso   1.00
C192   C     0.92751   0.14291   0.08695   0.00000  Uiso   1.00
C193   C     0.81665   0.15279   0.40873   0.00000  Uiso   1.00
C194   C     0.84918   0.16809   0.09043   0.00000  Uiso   1.00
C195   C     0.80215   0.15267   0.45676   0.00000  Uiso   1.00
C196   C     0.85831   0.15260   0.04558   0.00000  Uiso   1.00
C197   C     0.75358   0.16468   0.48401   0.00000  Uiso   1.00
C198   C     0.90491   0.13506   0.01982   0.00000  Uiso   1.00
C199   C     0.83579   0.14420   0.47809   0.00000  Uiso   1.00
C200   C     0.82235   0.15438   0.02584   0.00000  Uiso   1.00
C201   C     0.77323   0.16517   0.05241   0.00000  Uiso   1.00
C202   C     0.88242   0.12627   0.45325   0.00000  Uiso   1.00
C203   C     0.73928   0.16923   0.03181   0.00000  Uiso   1.00
C204   C     0.91617   0.12151   0.47404   0.00000  Uiso   1.00
H205   H     0.70213   0.17775   0.05323   0.00000  Uiso   1.00
H206   H     0.95138   0.10745   0.45406   0.00000  Uiso   1.00
H207   H     0.68314   0.18245   0.48345   0.00000  Uiso   1.00
H208   H     0.97474   0.11658   0.02143   0.00000  Uiso   1.00
H209   H     0.75951   0.16990   0.08948   0.00000  Uiso   1.00
H210   H     0.89334   0.11421   0.41804   0.00000  Uiso   1.00
C211   C     0.87491   0.30994   0.24384   0.00000  Uiso   1.00
C212   C     0.79129   0.02347   0.25787   0.00000  Uiso   1.00
C213   C     0.87773   0.01883   0.24490   0.00000  Uiso   1.00
C214   C     0.78844   0.31457   0.25693   0.00000  Uiso   1.00
C215   C     0.83502   0.04247   0.25115   0.00000  Uiso   1.00
C216   C     0.83128   0.29092   0.25012   0.00000  Uiso   1.00
C217   C     0.98792   0.14303   0.21843   0.00000  Uiso   1.00
C218   C     0.67873   0.19021   0.28165   0.00000  Uiso   1.00
C219   C     0.70217   0.14166   0.21881   0.00000  Uiso   1.00
C220   C     0.96443   0.19152   0.28137   0.00000  Uiso   1.00
N221   N     0.71426   0.16668   0.25001   0.00000  Uiso   1.00
N222   N     0.95241   0.16666   0.24999   0.00000  Uiso   1.00
H223   H     0.81613   0.18522   0.10991   0.00000  Uiso   1.00
H224   H     0.85395   0.14676   0.38681   0.00000  Uiso   1.00
H225   H     0.95319   0.13697   0.10346   0.00000  Uiso   1.00
H226   H     0.71006   0.18105   0.39892   0.00000  Uiso   1.00
H227   H     0.90757   0.29168   0.23811   0.00000  Uiso   1.00
H228   H     0.75861   0.04175   0.26381   0.00000  Uiso   1.00
C229   C     0.92673   0.03603   0.23960   0.00000  Uiso   1.00
C230   C     0.92831   0.05021   0.28649   0.00000  Uiso   1.00
H231   H     0.96177   0.06737   0.28120   0.00000  Uiso   1.00
H232   H     0.89669   0.07052   0.30677   0.00000  Uiso   1.00
H233   H     0.92841   0.02300   0.30715   0.00000  Uiso   1.00
H234   H     0.95617   0.01218   0.22424   0.00000  Uiso   1.00
H235   H     0.93676   0.06067   0.21431   0.00000  Uiso   1.00
C236   C     0.73926   0.29733   0.26305   0.00000  Uiso   1.00
C237   C     0.73657   0.28363   0.21647   0.00000  Uiso   1.00
H238   H     0.76851   0.26415   0.19504   0.00000  Uiso   1.00
H239   H     0.70353   0.26574   0.22222   0.00000  Uiso   1.00
H240   H     0.73487   0.31106   0.19671   0.00000  Uiso   1.00
H241   H     0.72998   0.27239   0.28799   0.00000  Uiso   1.00
H242   H     0.70985   0.32104   0.27929   0.00000  Uiso   1.00
H243   H     0.97906   0.12492   0.19298   0.00000  Uiso   1.00
H244   H     0.68760   0.20813   0.30720   0.00000  Uiso   1.00
C245   C     0.73804   0.11209   0.18340   0.00000  Uiso   1.00
C246   C     0.72099   0.06772   0.18675   0.00000  Uiso   1.00
H247   H     0.70837   0.05812   0.22307   0.00000  Uiso   1.00
H248   H     0.69148   0.06432   0.17327   0.00000  Uiso   1.00
H249   H     0.75154   0.04679   0.16532   0.00000  Uiso   1.00
H250   H     0.74411   0.12252   0.14816   0.00000  Uiso   1.00
H251   H     0.77314   0.11058   0.18680   0.00000  Uiso   1.00
C252   C     0.92824   0.22041   0.31746   0.00000  Uiso   1.00
C253   C     0.94511   0.26480   0.31598   0.00000  Uiso   1.00
H254   H     0.97458   0.26752   0.32960   0.00000  Uiso   1.00
H255   H     0.95760   0.27562   0.28014   0.00000  Uiso   1.00
H256   H     0.91447   0.28528   0.33816   0.00000  Uiso   1.00
H257   H     0.89354   0.22258   0.31329   0.00000  Uiso   1.00
H258   H     0.92150   0.20872   0.35242   0.00000  Uiso   1.00
O259   O     0.12846   0.56108   0.25001   0.00000  Uiso   1.00
O260   O     0.20488   0.43892   0.25000   0.00000  Uiso   1.00
O261   O     0.20490   0.56107   0.25000   0.00000  Uiso   1.00
O262   O     0.12843   0.43893   0.25000   0.00000  Uiso   1.00
C263   C     0.16593   0.58001   0.25020   0.00000  Uiso   1.00
C264   C     0.16729   0.42000   0.25016   0.00000  Uiso   1.00
O265   O     0.10661   0.50001   0.31612   0.00000  Uiso   1.00
O266   O     0.22672   0.49999   0.18388   0.00000  Uiso   1.00
O267   O     0.18305   0.50000   0.31612   0.00000  Uiso   1.00
O268   O     0.15028   0.50000   0.18388   0.00000  Uiso   1.00
C269   C     0.13645   0.49957   0.33770   0.00000  Uiso   1.00
C270   C     0.19688   0.49969   0.16225   0.00000  Uiso   1.00
Zn271  Zn    0.11562   0.50001   0.25000   0.00000  Uiso   1.00
Zn272  Zn    0.21771   0.49999   0.25000   0.00000  Uiso   1.00
C273   C     0.11765   0.49707   0.38783   0.00000  Uiso   1.00
C274   C     0.21513   0.49424   0.11206   0.00000  Uiso   1.00
C275   C     0.05371   0.50684   0.46288   0.00000  Uiso   1.00
C276   C     0.27270   0.46404   0.04057   0.00000  Uiso   1.00
C277   C     0.06900   0.50622   0.41482   0.00000  Uiso   1.00
C278   C     0.26085   0.47624   0.08695   0.00000  Uiso   1.00
C279   C     0.14999   0.48612   0.40873   0.00000  Uiso   1.00
C280   C     0.18251   0.50143   0.09043   0.00000  Uiso   1.00
C281   C     0.13548   0.48600   0.45676   0.00000  Uiso   1.00
C282   C     0.19165   0.48594   0.04558   0.00000  Uiso   1.00
C283   C     0.08691   0.49802   0.48401   0.00000  Uiso   1.00
C284   C     0.23824   0.46839   0.01982   0.00000  Uiso   1.00
C285   C     0.16912   0.47753   0.47809   0.00000  Uiso   1.00
C286   C     0.15568   0.48772   0.02584   0.00000  Uiso   1.00
C287   C     0.10656   0.49850   0.05241   0.00000  Uiso   1.00
C288   C     0.21576   0.45960   0.45325   0.00000  Uiso   1.00
C289   C     0.07261   0.50256   0.03181   0.00000  Uiso   1.00
C290   C     0.24951   0.45484   0.47404   0.00000  Uiso   1.00
H291   H     0.03546   0.51109   0.05323   0.00000  Uiso   1.00
H292   H     0.28471   0.44078   0.45406   0.00000  Uiso   1.00
H293   H     0.01648   0.51579   0.48345   0.00000  Uiso   1.00
H294   H     0.30807   0.44992   0.02143   0.00000  Uiso   1.00
H295   H     0.09284   0.50324   0.08948   0.00000  Uiso   1.00
H296   H     0.22667   0.44754   0.41804   0.00000  Uiso   1.00
C297   C     0.20825   0.64327   0.24384   0.00000  Uiso   1.00
C298   C     0.12462   0.35680   0.25787   0.00000  Uiso   1.00
C299   C     0.21107   0.35217   0.24490   0.00000  Uiso   1.00
C300   C     0.12178   0.64790   0.25693   0.00000  Uiso   1.00
C301   C     0.16836   0.37580   0.25115   0.00000  Uiso   1.00
C302   C     0.16461   0.62426   0.25012   0.00000  Uiso   1.00
C303   C     0.32125   0.47637   0.21843   0.00000  Uiso   1.00
C304   C     0.01206   0.52354   0.28165   0.00000  Uiso   1.00
C305   C     0.03550   0.47499   0.21881   0.00000  Uiso   1.00
C306   C     0.29776   0.52485   0.28137   0.00000  Uiso   1.00
N307   N     0.04759   0.50001   0.25001   0.00000  Uiso   1.00
N308   N     0.28574   0.49999   0.24999   0.00000  Uiso   1.00
H309   H     0.14946   0.51856   0.10991   0.00000  Uiso   1.00
H310   H     0.18728   0.48009   0.38681   0.00000  Uiso   1.00
H311   H     0.28652   0.47031   0.10346   0.00000  Uiso   1.00
H312   H     0.04339   0.51438   0.39892   0.00000  Uiso   1.00
H313   H     0.24090   0.62501   0.23811   0.00000  Uiso   1.00
H314   H     0.09194   0.37508   0.26381   0.00000  Uiso   1.00
C315   C     0.26007   0.36936   0.23960   0.00000  Uiso   1.00
C316   C     0.26164   0.38354   0.28649   0.00000  Uiso   1.00
H317   H     0.29510   0.40070   0.28120   0.00000  Uiso   1.00
H318   H     0.23002   0.40386   0.30677   0.00000  Uiso   1.00
H319   H     0.26174   0.35633   0.30715   0.00000  Uiso   1.00
H320   H     0.28951   0.34551   0.22424   0.00000  Uiso   1.00
H321   H     0.27009   0.39400   0.21431   0.00000  Uiso   1.00
C322   C     0.07260   0.63066   0.26305   0.00000  Uiso   1.00
C323   C     0.06991   0.61696   0.21647   0.00000  Uiso   1.00
H324   H     0.10184   0.59748   0.19504   0.00000  Uiso   1.00
H325   H     0.03686   0.59908   0.22222   0.00000  Uiso   1.00
H326   H     0.06820   0.64439   0.19671   0.00000  Uiso   1.00
H327   H     0.06331   0.60572   0.28799   0.00000  Uiso   1.00
H328   H     0.04318   0.65437   0.27929   0.00000  Uiso   1.00
H329   H     0.31239   0.45826   0.19298   0.00000  Uiso   1.00
H330   H     0.02094   0.54147   0.30720   0.00000  Uiso   1.00
C331   C     0.07138   0.44542   0.18340   0.00000  Uiso   1.00
C332   C     0.05433   0.40105   0.18675   0.00000  Uiso   1.00
H333   H     0.04170   0.39145   0.22307   0.00000  Uiso   1.00
H334   H     0.02481   0.39765   0.17327   0.00000  Uiso   1.00
H335   H     0.08487   0.38012   0.16532   0.00000  Uiso   1.00
H336   H     0.07744   0.45586   0.14816   0.00000  Uiso   1.00
H337   H     0.10648   0.44391   0.18680   0.00000  Uiso   1.00
C338   C     0.26157   0.55374   0.31746   0.00000  Uiso   1.00
C339   C     0.27844   0.59813   0.31598   0.00000  Uiso   1.00
H340   H     0.30791   0.60085   0.32960   0.00000  Uiso   1.00
H341   H     0.29094   0.60896   0.28014   0.00000  Uiso   1.00
H342   H     0.24781   0.61862   0.33816   0.00000  Uiso   1.00
H343   H     0.22688   0.55592   0.31329   0.00000  Uiso   1.00
H344   H     0.25484   0.54206   0.35242   0.00000  Uiso   1.00
O345   O     0.46179   0.56108   0.25001   0.00000  Uiso   1.00
O346   O     0.53821   0.43892   0.25000   0.00000  Uiso   1.00
O347   O     0.53823   0.56107   0.25000   0.00000  Uiso   1.00
O348   O     0.46177   0.43893   0.25000   0.00000  Uiso   1.00
C349   C     0.49926   0.58001   0.25020   0.00000  Uiso   1.00
C350   C     0.50062   0.42000   0.25016   0.00000  Uiso   1.00
O351   O     0.43994   0.50001   0.31612   0.00000  Uiso   1.00
O352   O     0.56006   0.49999   0.18388   0.00000  Uiso   1.00
O353   O     0.51639   0.50000   0.31612   0.00000  Uiso   1.00
O354   O     0.48361   0.50000   0.18388   0.00000  Uiso   1.00
C355   C     0.46978   0.49957   0.33770   0.00000  Uiso   1.00
C356   C     0.53021   0.49969   0.16225   0.00000  Uiso   1.00
Zn357  Zn    0.44896   0.50001   0.25000   0.00000  Uiso   1.00
Zn358  Zn    0.55104   0.49999   0.25000   0.00000  Uiso   1.00
C359   C     0.45099   0.49707   0.38783   0.00000  Uiso   1.00
C360   C     0.54847   0.49424   0.11206   0.00000  Uiso   1.00
C361   C     0.38704   0.50684   0.46288   0.00000  Uiso   1.00
C362   C     0.60603   0.46404   0.04057   0.00000  Uiso   1.00
C363   C     0.40234   0.50622   0.41482   0.00000  Uiso   1.00
C364   C     0.59418   0.47624   0.08695   0.00000  Uiso   1.00
C365   C     0.48332   0.48612   0.40873   0.00000  Uiso   1.00
C366   C     0.51584   0.50143   0.09043   0.00000  Uiso   1.00
C367   C     0.46882   0.48600   0.45676   0.00000  Uiso   1.00
C368   C     0.52498   0.48594   0.04558   0.00000  Uiso   1.00
C369   C     0.42025   0.49802   0.48401   0.00000  Uiso   1.00
C370   C     0.57158   0.46839   0.01982   0.00000  Uiso   1.00
C371   C     0.50245   0.47753   0.47809   0.00000  Uiso   1.00
C372   C     0.48902   0.48772   0.02584   0.00000  Uiso   1.00
C373   C     0.43990   0.49850   0.05241   0.00000  Uiso   1.00
C374   C     0.54909   0.45960   0.45325   0.00000  Uiso   1.00
C375   C     0.40595   0.50256   0.03181   0.00000  Uiso   1.00
C376   C     0.58284   0.45484   0.47404   0.00000  Uiso   1.00
H377   H     0.36879   0.51109   0.05323   0.00000  Uiso   1.00
H378   H     0.61804   0.44078   0.45406   0.00000  Uiso   1.00
H379   H     0.34981   0.51579   0.48345   0.00000  Uiso   1.00
H380   H     0.64140   0.44992   0.02143   0.00000  Uiso   1.00
H381   H     0.42618   0.50324   0.08948   0.00000  Uiso   1.00
H382   H     0.56000   0.44754   0.41804   0.00000  Uiso   1.00
C383   C     0.54158   0.64327   0.24384   0.00000  Uiso   1.00
C384   C     0.45796   0.35680   0.25787   0.00000  Uiso   1.00
C385   C     0.54440   0.35217   0.24490   0.00000  Uiso   1.00
C386   C     0.45511   0.64790   0.25693   0.00000  Uiso   1.00
C387   C     0.50169   0.37580   0.25115   0.00000  Uiso   1.00
C388   C     0.49795   0.62426   0.25012   0.00000  Uiso   1.00
C389   C     0.65459   0.47637   0.21843   0.00000  Uiso   1.00
C390   C     0.34540   0.52354   0.28165   0.00000  Uiso   1.00
C391   C     0.36884   0.47499   0.21881   0.00000  Uiso   1.00
C392   C     0.63110   0.52485   0.28137   0.00000  Uiso   1.00
N393   N     0.38093   0.50001   0.25001   0.00000  Uiso   1.00
N394   N     0.61907   0.49999   0.24999   0.00000  Uiso   1.00
H395   H     0.48280   0.51856   0.10991   0.00000  Uiso   1.00
H396   H     0.52062   0.48009   0.38681   0.00000  Uiso   1.00
H397   H     0.61986   0.47031   0.10346   0.00000  Uiso   1.00
H398   H     0.37672   0.51438   0.39892   0.00000  Uiso   1.00
H399   H     0.57424   0.62501   0.23811   0.00000  Uiso   1.00
H400   H     0.42528   0.37508   0.26381   0.00000  Uiso   1.00
C401   C     0.59340   0.36936   0.23960   0.00000  Uiso   1.00
C402   C     0.59497   0.38354   0.28649   0.00000  Uiso   1.00
H403   H     0.62844   0.40070   0.28120   0.00000  Uiso   1.00
H404   H     0.56336   0.40386   0.30677   0.00000  Uiso   1.00
H405   H     0.59508   0.35633   0.30715   0.00000  Uiso   1.00
H406   H     0.62284   0.34551   0.22424   0.00000  Uiso   1.00
H407   H     0.60343   0.39400   0.21431   0.00000  Uiso   1.00
C408   C     0.40593   0.63066   0.26305   0.00000  Uiso   1.00
C409   C     0.40324   0.61696   0.21647   0.00000  Uiso   1.00
H410   H     0.43517   0.59748   0.19504   0.00000  Uiso   1.00
H411   H     0.37020   0.59908   0.22222   0.00000  Uiso   1.00
H412   H     0.40153   0.64439   0.19671   0.00000  Uiso   1.00
H413   H     0.39665   0.60572   0.28799   0.00000  Uiso   1.00
H414   H     0.37652   0.65437   0.27929   0.00000  Uiso   1.00
H415   H     0.64572   0.45826   0.19298   0.00000  Uiso   1.00
H416   H     0.35427   0.54147   0.30720   0.00000  Uiso   1.00
C417   C     0.40471   0.44542   0.18340   0.00000  Uiso   1.00
C418   C     0.38766   0.40105   0.18675   0.00000  Uiso   1.00
H419   H     0.37503   0.39145   0.22307   0.00000  Uiso   1.00
H420   H     0.35814   0.39765   0.17327   0.00000  Uiso   1.00
H421   H     0.41820   0.38012   0.16532   0.00000  Uiso   1.00
H422   H     0.41078   0.45586   0.14816   0.00000  Uiso   1.00
H423   H     0.43981   0.44391   0.18680   0.00000  Uiso   1.00
C424   C     0.59491   0.55374   0.31746   0.00000  Uiso   1.00
C425   C     0.61177   0.59813   0.31598   0.00000  Uiso   1.00
H426   H     0.64125   0.60085   0.32960   0.00000  Uiso   1.00
H427   H     0.62427   0.60896   0.28014   0.00000  Uiso   1.00
H428   H     0.58114   0.61862   0.33816   0.00000  Uiso   1.00
H429   H     0.56021   0.55592   0.31329   0.00000  Uiso   1.00
H430   H     0.58817   0.54206   0.35242   0.00000  Uiso   1.00
O431   O     0.79512   0.56108   0.25001   0.00000  Uiso   1.00
O432   O     0.87154   0.43892   0.25000   0.00000  Uiso   1.00
O433   O     0.87157   0.56107   0.25000   0.00000  Uiso   1.00
O434   O     0.79510   0.43893   0.25000   0.00000  Uiso   1.00
C435   C     0.83259   0.58001   0.25020   0.00000  Uiso   1.00
C436   C     0.83396   0.42000   0.25016   0.00000  Uiso   1.00
O437   O     0.77328   0.50001   0.31612   0.00000  Uiso   1.00
O438   O     0.89339   0.49999   0.18388   0.00000  Uiso   1.00
O439   O     0.84972   0.50000   0.31612   0.00000  Uiso   1.00
O440   O     0.81695   0.50000   0.18388   0.00000  Uiso   1.00
C441   C     0.80312   0.49957   0.33770   0.00000  Uiso   1.00
C442   C     0.86355   0.49969   0.16225   0.00000  Uiso   1.00
Zn443  Zn    0.78229   0.50001   0.25000   0.00000  Uiso   1.00
Zn444  Zn    0.88438   0.49999   0.25000   0.00000  Uiso   1.00
C445   C     0.78432   0.49707   0.38783   0.00000  Uiso   1.00
C446   C     0.88180   0.49424   0.11206   0.00000  Uiso   1.00
C447   C     0.72037   0.50684   0.46288   0.00000  Uiso   1.00
C448   C     0.93937   0.46404   0.04057   0.00000  Uiso   1.00
C449   C     0.73567   0.50622   0.41482   0.00000  Uiso   1.00
C450   C     0.92751   0.47624   0.08695   0.00000  Uiso   1.00
C451   C     0.81665   0.48612   0.40873   0.00000  Uiso   1.00
C452   C     0.84918   0.50143   0.09043   0.00000  Uiso   1.00
C453   C     0.80215   0.48600   0.45676   0.00000  Uiso   1.00
C454   C     0.85831   0.48594   0.04558   0.00000  Uiso   1.00
C455   C     0.75358   0.49802   0.48401   0.00000  Uiso   1.00
C456   C     0.90491   0.46839   0.01982   0.00000  Uiso   1.00
C457   C     0.83579   0.47753   0.47809   0.00000  Uiso   1.00
C458   C     0.82235   0.48772   0.02584   0.00000  Uiso   1.00
C459   C     0.77323   0.49850   0.05241   0.00000  Uiso   1.00
C460   C     0.88242   0.45960   0.45325   0.00000  Uiso   1.00
C461   C     0.73928   0.50256   0.03181   0.00000  Uiso   1.00
C462   C     0.91617   0.45484   0.47404   0.00000  Uiso   1.00
H463   H     0.70213   0.51109   0.05323   0.00000  Uiso   1.00
H464   H     0.95138   0.44078   0.45406   0.00000  Uiso   1.00
H465   H     0.68314   0.51579   0.48345   0.00000  Uiso   1.00
H466   H     0.97474   0.44992   0.02143   0.00000  Uiso   1.00
H467   H     0.75951   0.50324   0.08948   0.00000  Uiso   1.00
H468   H     0.89334   0.44754   0.41804   0.00000  Uiso   1.00
C469   C     0.87491   0.64327   0.24384   0.00000  Uiso   1.00
C470   C     0.79129   0.35680   0.25787   0.00000  Uiso   1.00
C471   C     0.87773   0.35217   0.24490   0.00000  Uiso   1.00
C472   C     0.78844   0.64790   0.25693   0.00000  Uiso   1.00
C473   C     0.83502   0.37580   0.25115   0.00000  Uiso   1.00
C474   C     0.83128   0.62426   0.25012   0.00000  Uiso   1.00
C475   C     0.98792   0.47637   0.21843   0.00000  Uiso   1.00
C476   C     0.67873   0.52354   0.28165   0.00000  Uiso   1.00
C477   C     0.70217   0.47499   0.21881   0.00000  Uiso   1.00
C478   C     0.96443   0.52485   0.28137   0.00000  Uiso   1.00
N479   N     0.71426   0.50001   0.25001   0.00000  Uiso   1.00
N480   N     0.95241   0.49999   0.24999   0.00000  Uiso   1.00
H481   H     0.81613   0.51856   0.10991   0.00000  Uiso   1.00
H482   H     0.85395   0.48009   0.38681   0.00000  Uiso   1.00
H483   H     0.95319   0.47031   0.10346   0.00000  Uiso   1.00
H484   H     0.71006   0.51438   0.39892   0.00000  Uiso   1.00
H485   H     0.90757   0.62501   0.23811   0.00000  Uiso   1.00
H486   H     0.75861   0.37508   0.26381   0.00000  Uiso   1.00
C487   C     0.92673   0.36936   0.23960   0.00000  Uiso   1.00
C488   C     0.92831   0.38354   0.28649   0.00000  Uiso   1.00
H489   H     0.96177   0.40070   0.28120   0.00000  Uiso   1.00
H490   H     0.89669   0.40386   0.30677   0.00000  Uiso   1.00
H491   H     0.92841   0.35633   0.30715   0.00000  Uiso   1.00
H492   H     0.95617   0.34551   0.22424   0.00000  Uiso   1.00
H493   H     0.93676   0.39400   0.21431   0.00000  Uiso   1.00
C494   C     0.73926   0.63066   0.26305   0.00000  Uiso   1.00
C495   C     0.73657   0.61696   0.21647   0.00000  Uiso   1.00
H496   H     0.76851   0.59748   0.19504   0.00000  Uiso   1.00
H497   H     0.70353   0.59908   0.22222   0.00000  Uiso   1.00
H498   H     0.73487   0.64439   0.19671   0.00000  Uiso   1.00
H499   H     0.72998   0.60572   0.28799   0.00000  Uiso   1.00
H500   H     0.70985   0.65437   0.27929   0.00000  Uiso   1.00
H501   H     0.97906   0.45826   0.19298   0.00000  Uiso   1.00
H502   H     0.68760   0.54147   0.30720   0.00000  Uiso   1.00
C503   C     0.73804   0.44542   0.18340   0.00000  Uiso   1.00
C504   C     0.72099   0.40105   0.18675   0.00000  Uiso   1.00
H505   H     0.70837   0.39145   0.22307   0.00000  Uiso   1.00
H506   H     0.69148   0.39765   0.17327   0.00000  Uiso   1.00
H507   H     0.75154   0.38012   0.16532   0.00000  Uiso   1.00
H508   H     0.74411   0.45586   0.14816   0.00000  Uiso   1.00
H509   H     0.77314   0.44391   0.18680   0.00000  Uiso   1.00
C510   C     0.92824   0.55374   0.31746   0.00000  Uiso   1.00
C511   C     0.94511   0.59813   0.31598   0.00000  Uiso   1.00
H512   H     0.97458   0.60085   0.32960   0.00000  Uiso   1.00
H513   H     0.95760   0.60896   0.28014   0.00000  Uiso   1.00
H514   H     0.91447   0.61862   0.33816   0.00000  Uiso   1.00
H515   H     0.89354   0.55592   0.31329   0.00000  Uiso   1.00
H516   H     0.92150   0.54206   0.35242   0.00000  Uiso   1.00
O517   O     0.12846   0.89442   0.25001   0.00000  Uiso   1.00
O518   O     0.20488   0.77225   0.25000   0.00000  Uiso   1.00
O519   O     0.20490   0.89441   0.25000   0.00000  Uiso   1.00
O520   O     0.12843   0.77226   0.25000   0.00000  Uiso   1.00
C521   C     0.16593   0.91335   0.25020   0.00000  Uiso   1.00
C522   C     0.16729   0.75333   0.25016   0.00000  Uiso   1.00
O523   O     0.10661   0.83334   0.31612   0.00000  Uiso   1.00
O524   O     0.22672   0.83333   0.18388   0.00000  Uiso   1.00
O525   O     0.18305   0.83333   0.31612   0.00000  Uiso   1.00
O526   O     0.15028   0.83334   0.18388   0.00000  Uiso   1.00
C527   C     0.13645   0.83290   0.33770   0.00000  Uiso   1.00
C528   C     0.19688   0.83302   0.16225   0.00000  Uiso   1.00
Zn529  Zn    0.11562   0.83334   0.25000   0.00000  Uiso   1.00
Zn530  Zn    0.21771   0.83333   0.25000   0.00000  Uiso   1.00
C531   C     0.11765   0.83041   0.38783   0.00000  Uiso   1.00
C532   C     0.21513   0.82757   0.11206   0.00000  Uiso   1.00
C533   C     0.05371   0.84018   0.46288   0.00000  Uiso   1.00
C534   C     0.27270   0.79737   0.04057   0.00000  Uiso   1.00
C535   C     0.06900   0.83956   0.41482   0.00000  Uiso   1.00
C536   C     0.26085   0.80957   0.08695   0.00000  Uiso   1.00
C537   C     0.14999   0.81945   0.40873   0.00000  Uiso   1.00
C538   C     0.18251   0.83476   0.09043   0.00000  Uiso   1.00
C539   C     0.13548   0.81933   0.45676   0.00000  Uiso   1.00
C540   C     0.19165   0.81927   0.04558   0.00000  Uiso   1.00
C541   C     0.08691   0.83135   0.48401   0.00000  Uiso   1.00
C542   C     0.23824   0.80172   0.01982   0.00000  Uiso   1.00
C543   C     0.16912   0.81086   0.47809   0.00000  Uiso   1.00
C544   C     0.15568   0.82105   0.02584   0.00000  Uiso   1.00
C545   C     0.10656   0.83184   0.05241   0.00000  Uiso   1.00
C546   C     0.21576   0.79294   0.45325   0.00000  Uiso   1.00
C547   C     0.07261   0.83589   0.03181   0.00000  Uiso   1.00
C548   C     0.24951   0.78817   0.47404   0.00000  Uiso   1.00
H549   H     0.03546   0.84442   0.05323   0.00000  Uiso   1.00
H550   H     0.28471   0.77412   0.45406   0.00000  Uiso   1.00
H551   H     0.01648   0.84912   0.48345   0.00000  Uiso   1.00
H552   H     0.30807   0.78325   0.02143   0.00000  Uiso   1.00
H553   H     0.09284   0.83657   0.08948   0.00000  Uiso   1.00
H554   H     0.22667   0.78087   0.41804   0.00000  Uiso   1.00
C555   C     0.20825   0.97661   0.24384   0.00000  Uiso   1.00
C556   C     0.12462   0.69013   0.25787   0.00000  Uiso   1.00
C557   C     0.21107   0.68550   0.24490   0.00000  Uiso   1.00
C558   C     0.12178   0.98123   0.25693   0.00000  Uiso   1.00
C559   C     0.16836   0.70913   0.25115   0.00000  Uiso   1.00
C560   C     0.16461   0.95759   0.25012   0.00000  Uiso   1.00
C561   C     0.32125   0.80970   0.21843   0.00000  Uiso   1.00
C562   C     0.01206   0.85688   0.28165   0.00000  Uiso   1.00
C563   C     0.03550   0.80832   0.21881   0.00000  Uiso   1.00
C564   C     0.29776   0.85819   0.28137   0.00000  Uiso   1.00
N565   N     0.04759   0.83334   0.25001   0.00000  Uiso   1.00
N566   N     0.28574   0.83332   0.24999   0.00000  Uiso   1.00
H567   H     0.14946   0.85189   0.10991   0.00000  Uiso   1.00
H568   H     0.18728   0.81343   0.38681   0.00000  Uiso   1.00
H569   H     0.28652   0.80364   0.10346   0.00000  Uiso   1.00
H570   H     0.04339   0.84771   0.39892   0.00000  Uiso   1.00
H571   H     0.24090   0.95834   0.23811   0.00000  Uiso   1.00
H572   H     0.09194   0.70842   0.26381   0.00000  Uiso   1.00
C573   C     0.26007   0.70270   0.23960   0.00000  Uiso   1.00
C574   C     0.26164   0.71687   0.28649   0.00000  Uiso   1.00
H575   H     0.29510   0.73404   0.28120   0.00000  Uiso   1.00
H576   H     0.23002   0.73719   0.30677   0.00000  Uiso   1.00
H577   H     0.26174   0.68967   0.30715   0.00000  Uiso   1.00
H578   H     0.28951   0.67885   0.22424   0.00000  Uiso   1.00
H579   H     0.27009   0.72733   0.21431   0.00000  Uiso   1.00
C580   C     0.07260   0.96400   0.26305   0.00000  Uiso   1.00
C581   C     0.06991   0.95030   0.21647   0.00000  Uiso   1.00
H582   H     0.10184   0.93082   0.19504   0.00000  Uiso   1.00
H583   H     0.03686   0.93241   0.22222   0.00000  Uiso   1.00
H584   H     0.06820   0.97772   0.19671   0.00000  Uiso   1.00
H585   H     0.06331   0.93906   0.28799   0.00000  Uiso   1.00
H586   H     0.04318   0.98771   0.27929   0.00000  Uiso   1.00
H587   H     0.31239   0.79159   0.19298   0.00000  Uiso   1.00
H588   H     0.02094   0.87480   0.30720   0.00000  Uiso   1.00
C589   C     0.07138   0.77876   0.18340   0.00000  Uiso   1.00
C590   C     0.05433   0.73439   0.18675   0.00000  Uiso   1.00
H591   H     0.04170   0.72478   0.22307   0.00000  Uiso   1.00
H592   H     0.02481   0.73098   0.17327   0.00000  Uiso   1.00
H593   H     0.08487   0.71346   0.16532   0.00000  Uiso   1.00
H594   H     0.07744   0.78919   0.14816   0.00000  Uiso   1.00
H595   H     0.10648   0.77724   0.18680   0.00000  Uiso   1.00
C596   C     0.26157   0.88708   0.31746   0.00000  Uiso   1.00
C597   C     0.27844   0.93147   0.31598   0.00000  Uiso   1.00
H598   H     0.30791   0.93419   0.32960   0.00000  Uiso   1.00
H599   H     0.29094   0.94229   0.28014   0.00000  Uiso   1.00
H600   H     0.24781   0.95195   0.33816   0.00000  Uiso   1.00
H601   H     0.22688   0.88925   0.31329   0.00000  Uiso   1.00
H602   H     0.25484   0.87539   0.35242   0.00000  Uiso   1.00
O603   O     0.46179   0.89442   0.25001   0.00000  Uiso   1.00
O604   O     0.53821   0.77225   0.25000   0.00000  Uiso   1.00
O605   O     0.53823   0.89441   0.25000   0.00000  Uiso   1.00
O606   O     0.46177   0.77226   0.25000   0.00000  Uiso   1.00
C607   C     0.49926   0.91335   0.25020   0.00000  Uiso   1.00
C608   C     0.50062   0.75333   0.25016   0.00000  Uiso   1.00
O609   O     0.43994   0.83334   0.31612   0.00000  Uiso   1.00
O610   O     0.56006   0.83333   0.18388   0.00000  Uiso   1.00
O611   O     0.51639   0.83333   0.31612   0.00000  Uiso   1.00
O612   O     0.48361   0.83334   0.18388   0.00000  Uiso   1.00
C613   C     0.46978   0.83290   0.33770   0.00000  Uiso   1.00
C614   C     0.53021   0.83302   0.16225   0.00000  Uiso   1.00
Zn615  Zn    0.44896   0.83334   0.25000   0.00000  Uiso   1.00
Zn616  Zn    0.55104   0.83333   0.25000   0.00000  Uiso   1.00
C617   C     0.45099   0.83041   0.38783   0.00000  Uiso   1.00
C618   C     0.54847   0.82757   0.11206   0.00000  Uiso   1.00
C619   C     0.38704   0.84018   0.46288   0.00000  Uiso   1.00
C620   C     0.60603   0.79737   0.04057   0.00000  Uiso   1.00
C621   C     0.40234   0.83956   0.41482   0.00000  Uiso   1.00
C622   C     0.59418   0.80957   0.08695   0.00000  Uiso   1.00
C623   C     0.48332   0.81945   0.40873   0.00000  Uiso   1.00
C624   C     0.51584   0.83476   0.09043   0.00000  Uiso   1.00
C625   C     0.46882   0.81933   0.45676   0.00000  Uiso   1.00
C626   C     0.52498   0.81927   0.04558   0.00000  Uiso   1.00
C627   C     0.42025   0.83135   0.48401   0.00000  Uiso   1.00
C628   C     0.57158   0.80172   0.01982   0.00000  Uiso   1.00
C629   C     0.50245   0.81086   0.47809   0.00000  Uiso   1.00
C630   C     0.48902   0.82105   0.02584   0.00000  Uiso   1.00
C631   C     0.43990   0.83184   0.05241   0.00000  Uiso   1.00
C632   C     0.54909   0.79294   0.45325   0.00000  Uiso   1.00
C633   C     0.40595   0.83589   0.03181   0.00000  Uiso   1.00
C634   C     0.58284   0.78817   0.47404   0.00000  Uiso   1.00
H635   H     0.36879   0.84442   0.05323   0.00000  Uiso   1.00
H636   H     0.61804   0.77412   0.45406   0.00000  Uiso   1.00
H637   H     0.34981   0.84912   0.48345   0.00000  Uiso   1.00
H638   H     0.64140   0.78325   0.02143   0.00000  Uiso   1.00
H639   H     0.42618   0.83657   0.08948   0.00000  Uiso   1.00
H640   H     0.56000   0.78087   0.41804   0.00000  Uiso   1.00
C641   C     0.54158   0.97661   0.24384   0.00000  Uiso   1.00
C642   C     0.45796   0.69013   0.25787   0.00000  Uiso   1.00
C643   C     0.54440   0.68550   0.24490   0.00000  Uiso   1.00
C644   C     0.45511   0.98123   0.25693   0.00000  Uiso   1.00
C645   C     0.50169   0.70913   0.25115   0.00000  Uiso   1.00
C646   C     0.49795   0.95759   0.25012   0.00000  Uiso   1.00
C647   C     0.65459   0.80970   0.21843   0.00000  Uiso   1.00
C648   C     0.34540   0.85688   0.28165   0.00000  Uiso   1.00
C649   C     0.36884   0.80832   0.21881   0.00000  Uiso   1.00
C650   C     0.63110   0.85819   0.28137   0.00000  Uiso   1.00
N651   N     0.38093   0.83334   0.25001   0.00000  Uiso   1.00
N652   N     0.61907   0.83332   0.24999   0.00000  Uiso   1.00
H653   H     0.48280   0.85189   0.10991   0.00000  Uiso   1.00
H654   H     0.52062   0.81343   0.38681   0.00000  Uiso   1.00
H655   H     0.61986   0.80364   0.10346   0.00000  Uiso   1.00
H656   H     0.37672   0.84771   0.39892   0.00000  Uiso   1.00
H657   H     0.57424   0.95834   0.23811   0.00000  Uiso   1.00
H658   H     0.42528   0.70842   0.26381   0.00000  Uiso   1.00
C659   C     0.59340   0.70270   0.23960   0.00000  Uiso   1.00
C660   C     0.59497   0.71687   0.28649   0.00000  Uiso   1.00
H661   H     0.62844   0.73404   0.28120   0.00000  Uiso   1.00
H662   H     0.56336   0.73719   0.30677   0.00000  Uiso   1.00
H663   H     0.59508   0.68967   0.30715   0.00000  Uiso   1.00
H664   H     0.62284   0.67885   0.22424   0.00000  Uiso   1.00
H665   H     0.60343   0.72733   0.21431   0.00000  Uiso   1.00
C666   C     0.40593   0.96400   0.26305   0.00000  Uiso   1.00
C667   C     0.40324   0.95030   0.21647   0.00000  Uiso   1.00
H668   H     0.43517   0.93082   0.19504   0.00000  Uiso   1.00
H669   H     0.37020   0.93241   0.22222   0.00000  Uiso   1.00
H670   H     0.40153   0.97772   0.19671   0.00000  Uiso   1.00
H671   H     0.39665   0.93906   0.28799   0.00000  Uiso   1.00
H672   H     0.37652   0.98771   0.27929   0.00000  Uiso   1.00
H673   H     0.64572   0.79159   0.19298   0.00000  Uiso   1.00
H674   H     0.35427   0.87480   0.30720   0.00000  Uiso   1.00
C675   C     0.40471   0.77876   0.18340   0.00000  Uiso   1.00
C676   C     0.38766   0.73439   0.18675   0.00000  Uiso   1.00
H677   H     0.37503   0.72478   0.22307   0.00000  Uiso   1.00
H678   H     0.35814   0.73098   0.17327   0.00000  Uiso   1.00
H679   H     0.41820   0.71346   0.16532   0.00000  Uiso   1.00
H680   H     0.41078   0.78919   0.14816   0.00000  Uiso   1.00
H681   H     0.43981   0.77724   0.18680   0.00000  Uiso   1.00
C682   C     0.59491   0.88708   0.31746   0.00000  Uiso   1.00
C683   C     0.61177   0.93147   0.31598   0.00000  Uiso   1.00
H684   H     0.64125   0.93419   0.32960   0.00000  Uiso   1.00
H685   H     0.62427   0.94229   0.28014   0.00000  Uiso   1.00
H686   H     0.58114   0.95195   0.33816   0.00000  Uiso   1.00
H687   H     0.56021   0.88925   0.31329   0.00000  Uiso   1.00
H688   H     0.58817   0.87539   0.35242   0.00000  Uiso   1.00
O689   O     0.79512   0.89442   0.25001   0.00000  Uiso   1.00
O690   O     0.87154   0.77225   0.25000   0.00000  Uiso   1.00
O691   O     0.87157   0.89441   0.25000   0.00000  Uiso   1.00
O692   O     0.79510   0.77226   0.25000   0.00000  Uiso   1.00
C693   C     0.83259   0.91335   0.25020   0.00000  Uiso   1.00
C694   C     0.83396   0.75333   0.25016   0.00000  Uiso   1.00
O695   O     0.77328   0.83334   0.31612   0.00000  Uiso   1.00
O696   O     0.89339   0.83333   0.18388   0.00000  Uiso   1.00
O697   O     0.84972   0.83333   0.31612   0.00000  Uiso   1.00
O698   O     0.81695   0.83334   0.18388   0.00000  Uiso   1.00
C699   C     0.80312   0.83290   0.33770   0.00000  Uiso   1.00
C700   C     0.86355   0.83302   0.16225   0.00000  Uiso   1.00
Zn701  Zn    0.78229   0.83334   0.25000   0.00000  Uiso   1.00
Zn702  Zn    0.88438   0.83333   0.25000   0.00000  Uiso   1.00
C703   C     0.78432   0.83041   0.38783   0.00000  Uiso   1.00
C704   C     0.88180   0.82757   0.11206   0.00000  Uiso   1.00
C705   C     0.72037   0.84018   0.46288   0.00000  Uiso   1.00
C706   C     0.93937   0.79737   0.04057   0.00000  Uiso   1.00
C707   C     0.73567   0.83956   0.41482   0.00000  Uiso   1.00
C708   C     0.92751   0.80957   0.08695   0.00000  Uiso   1.00
C709   C     0.81665   0.81945   0.40873   0.00000  Uiso   1.00
C710   C     0.84918   0.83476   0.09043   0.00000  Uiso   1.00
C711   C     0.80215   0.81933   0.45676   0.00000  Uiso   1.00
C712   C     0.85831   0.81927   0.04558   0.00000  Uiso   1.00
C713   C     0.75358   0.83135   0.48401   0.00000  Uiso   1.00
C714   C     0.90491   0.80172   0.01982   0.00000  Uiso   1.00
C715   C     0.83579   0.81086   0.47809   0.00000  Uiso   1.00
C716   C     0.82235   0.82105   0.02584   0.00000  Uiso   1.00
C717   C     0.77323   0.83184   0.05241   0.00000  Uiso   1.00
C718   C     0.88242   0.79294   0.45325   0.00000  Uiso   1.00
C719   C     0.73928   0.83589   0.03181   0.00000  Uiso   1.00
C720   C     0.91617   0.78817   0.47404   0.00000  Uiso   1.00
H721   H     0.70213   0.84442   0.05323   0.00000  Uiso   1.00
H722   H     0.95138   0.77412   0.45406   0.00000  Uiso   1.00
H723   H     0.68314   0.84912   0.48345   0.00000  Uiso   1.00
H724   H     0.97474   0.78325   0.02143   0.00000  Uiso   1.00
H725   H     0.75951   0.83657   0.08948   0.00000  Uiso   1.00
H726   H     0.89334   0.78087   0.41804   0.00000  Uiso   1.00
C727   C     0.87491   0.97661   0.24384   0.00000  Uiso   1.00
C728   C     0.79129   0.69013   0.25787   0.00000  Uiso   1.00
C729   C     0.87773   0.68550   0.24490   0.00000  Uiso   1.00
C730   C     0.78844   0.98123   0.25693   0.00000  Uiso   1.00
C731   C     0.83502   0.70913   0.25115   0.00000  Uiso   1.00
C732   C     0.83128   0.95759   0.25012   0.00000  Uiso   1.00
C733   C     0.98792   0.80970   0.21843   0.00000  Uiso   1.00
C734   C     0.67873   0.85688   0.28165   0.00000  Uiso   1.00
C735   C     0.70217   0.80832   0.21881   0.00000  Uiso   1.00
C736   C     0.96443   0.85819   0.28137   0.00000  Uiso   1.00
N737   N     0.71426   0.83334   0.25001   0.00000  Uiso   1.00
N738   N     0.95241   0.83332   0.24999   0.00000  Uiso   1.00
H739   H     0.81613   0.85189   0.10991   0.00000  Uiso   1.00
H740   H     0.85395   0.81343   0.38681   0.00000  Uiso   1.00
H741   H     0.95319   0.80364   0.10346   0.00000  Uiso   1.00
H742   H     0.71006   0.84771   0.39892   0.00000  Uiso   1.00
H743   H     0.90757   0.95834   0.23811   0.00000  Uiso   1.00
H744   H     0.75861   0.70842   0.26381   0.00000  Uiso   1.00
C745   C     0.92673   0.70270   0.23960   0.00000  Uiso   1.00
C746   C     0.92831   0.71687   0.28649   0.00000  Uiso   1.00
H747   H     0.96177   0.73404   0.28120   0.00000  Uiso   1.00
H748   H     0.89669   0.73719   0.30677   0.00000  Uiso   1.00
H749   H     0.92841   0.68967   0.30715   0.00000  Uiso   1.00
H750   H     0.95617   0.67885   0.22424   0.00000  Uiso   1.00
H751   H     0.93676   0.72733   0.21431   0.00000  Uiso   1.00
C752   C     0.73926   0.96400   0.26305   0.00000  Uiso   1.00
C753   C     0.73657   0.95030   0.21647   0.00000  Uiso   1.00
H754   H     0.76851   0.93082   0.19504   0.00000  Uiso   1.00
H755   H     0.70353   0.93241   0.22222   0.00000  Uiso   1.00
H756   H     0.73487   0.97772   0.19671   0.00000  Uiso   1.00
H757   H     0.72998   0.93906   0.28799   0.00000  Uiso   1.00
H758   H     0.70985   0.98771   0.27929   0.00000  Uiso   1.00
H759   H     0.97906   0.79159   0.19298   0.00000  Uiso   1.00
H760   H     0.68760   0.87480   0.30720   0.00000  Uiso   1.00
C761   C     0.73804   0.77876   0.18340   0.00000  Uiso   1.00
C762   C     0.72099   0.73439   0.18675   0.00000  Uiso   1.00
H763   H     0.70837   0.72478   0.22307   0.00000  Uiso   1.00
H764   H     0.69148   0.73098   0.17327   0.00000  Uiso   1.00
H765   H     0.75154   0.71346   0.16532   0.00000  Uiso   1.00
H766   H     0.74411   0.78919   0.14816   0.00000  Uiso   1.00
H767   H     0.77314   0.77724   0.18680   0.00000  Uiso   1.00
C768   C     0.92824   0.88708   0.31746   0.00000  Uiso   1.00
C769   C     0.94511   0.93147   0.31598   0.00000  Uiso   1.00
H770   H     0.97458   0.93419   0.32960   0.00000  Uiso   1.00
H771   H     0.95760   0.94229   0.28014   0.00000  Uiso   1.00
H772   H     0.91447   0.95195   0.33816   0.00000  Uiso   1.00
H773   H     0.89354   0.88925   0.31329   0.00000  Uiso   1.00
H774   H     0.92150   0.87539   0.35242   0.00000  Uiso   1.00
O775   O     0.12846   0.22775   0.75001   0.00000  Uiso   1.00
O776   O     0.20488   0.10558   0.75000   0.00000  Uiso   1.00
O777   O     0.20490   0.22774   0.75000   0.00000  Uiso   1.00
O778   O     0.12843   0.10559   0.75000   0.00000  Uiso   1.00
C779   C     0.16593   0.24668   0.75020   0.00000  Uiso   1.00
C780   C     0.16729   0.08667   0.75016   0.00000  Uiso   1.00
O781   O     0.10661   0.16667   0.81612   0.00000  Uiso   1.00
O782   O     0.22672   0.16666   0.68388   0.00000  Uiso   1.00
O783   O     0.18305   0.16666   0.81612   0.00000  Uiso   1.00
O784   O     0.15028   0.16667   0.68388   0.00000  Uiso   1.00
C785   C     0.13645   0.16624   0.83770   0.00000  Uiso   1.00
C786   C     0.19688   0.16635   0.66225   0.00000  Uiso   1.00
Zn787  Zn    0.11562   0.16667   0.75000   0.00000  Uiso   1.00
Zn788  Zn    0.21771   0.16666   0.75000   0.00000  Uiso   1.00
C789   C     0.11765   0.16374   0.88783   0.00000  Uiso   1.00
C790   C     0.21513   0.16091   0.61206   0.00000  Uiso   1.00
C791   C     0.05371   0.17351   0.96288   0.00000  Uiso   1.00
C792   C     0.27270   0.13071   0.54057   0.00000  Uiso   1.00
C793   C     0.06900   0.17289   0.91482   0.00000  Uiso   1.00
C794   C     0.26085   0.14291   0.58695   0.00000  Uiso   1.00
C795   C     0.14999   0.15279   0.90873   0.00000  Uiso   1.00
C796   C     0.18251   0.16809   0.59043   0.00000  Uiso   1.00
C797   C     0.13548   0.15267   0.95676   0.00000  Uiso   1.00
C798   C     0.19165   0.15260   0.54558   0.00000  Uiso   1.00
C799   C     0.08691   0.16468   0.98401   0.00000  Uiso   1.00
C800   C     0.23824   0.13506   0.51982   0.00000  Uiso   1.00
C801   C     0.16912   0.14420   0.97809   0.00000  Uiso   1.00
C802   C     0.15568   0.15438   0.52584   0.00000  Uiso   1.00
C803   C     0.10656   0.16517   0.55241   0.00000  Uiso   1.00
C804   C     0.21576   0.12627   0.95325   0.00000  Uiso   1.00
C805   C     0.07261   0.16923   0.53181   0.00000  Uiso   1.00
C806   C     0.24951   0.12151   0.97404   0.00000  Uiso   1.00
H807   H     0.03546   0.17775   0.55323   0.00000  Uiso   1.00
H808   H     0.28471   0.10745   0.95406   0.00000  Uiso   1.00
H809   H     0.01648   0.18245   0.98345   0.00000  Uiso   1.00
H810   H     0.30807   0.11658   0.52143   0.00000  Uiso   1.00
H811   H     0.09284   0.16990   0.58948   0.00000  Uiso   1.00
H812   H     0.22667   0.11421   0.91804   0.00000  Uiso   1.00
C813   C     0.20825   0.30994   0.74384   0.00000  Uiso   1.00
C814   C     0.12462   0.02347   0.75787   0.00000  Uiso   1.00
C815   C     0.21107   0.01883   0.74490   0.00000  Uiso   1.00
C816   C     0.12178   0.31457   0.75693   0.00000  Uiso   1.00
C817   C     0.16836   0.04247   0.75115   0.00000  Uiso   1.00
C818   C     0.16461   0.29092   0.75012   0.00000  Uiso   1.00
C819   C     0.32125   0.14303   0.71843   0.00000  Uiso   1.00
C820   C     0.01206   0.19021   0.78165   0.00000  Uiso   1.00
C821   C     0.03550   0.14166   0.71881   0.00000  Uiso   1.00
C822   C     0.29776   0.19152   0.78137   0.00000  Uiso   1.00
N823   N     0.04759   0.16668   0.75001   0.00000  Uiso   1.00
N824   N     0.28574   0.16666   0.74999   0.00000  Uiso   1.00
H825   H     0.14946   0.18522   0.60991   0.00000  Uiso   1.00
H826   H     0.18728   0.14676   0.88681   0.00000  Uiso   1.00
H827   H     0.28652   0.13697   0.60346   0.00000  Uiso   1.00
H828   H     0.04339   0.18105   0.89892   0.00000  Uiso   1.00
H829   H     0.24090   0.29168   0.73811   0.00000  Uiso   1.00
H830   H     0.09194   0.04175   0.76381   0.00000  Uiso   1.00
C831   C     0.26007   0.03603   0.73960   0.00000  Uiso   1.00
C832   C     0.26164   0.05021   0.78649   0.00000  Uiso   1.00
H833   H     0.29510   0.06737   0.78120   0.00000  Uiso   1.00
H834   H     0.23002   0.07052   0.80677   0.00000  Uiso   1.00
H835   H     0.26174   0.02300   0.80715   0.00000  Uiso   1.00
H836   H     0.28951   0.01218   0.72424   0.00000  Uiso   1.00
H837   H     0.27009   0.06067   0.71431   0.00000  Uiso   1.00
C838   C     0.07260   0.29733   0.76305   0.00000  Uiso   1.00
C839   C     0.06991   0.28363   0.71647   0.00000  Uiso   1.00
H840   H     0.10184   0.26415   0.69504   0.00000  Uiso   1.00
H841   H     0.03686   0.26574   0.72222   0.00000  Uiso   1.00
H842   H     0.06820   0.31106   0.69671   0.00000  Uiso   1.00
H843   H     0.06331   0.27239   0.78799   0.00000  Uiso   1.00
H844   H     0.04318   0.32104   0.77929   0.00000  Uiso   1.00
H845   H     0.31239   0.12492   0.69298   0.00000  Uiso   1.00
H846   H     0.02094   0.20813   0.80720   0.00000  Uiso   1.00
C847   C     0.07138   0.11209   0.68340   0.00000  Uiso   1.00
C848   C     0.05433   0.06772   0.68675   0.00000  Uiso   1.00
H849   H     0.04170   0.05812   0.72307   0.00000  Uiso   1.00
H850   H     0.02481   0.06432   0.67327   0.00000  Uiso   1.00
H851   H     0.08487   0.04679   0.66532   0.00000  Uiso   1.00
H852   H     0.07744   0.12252   0.64816   0.00000  Uiso   1.00
H853   H     0.10648   0.11058   0.68680   0.00000  Uiso   1.00
C854   C     0.26157   0.22041   0.81746   0.00000  Uiso   1.00
C855   C     0.27844   0.26480   0.81598   0.00000  Uiso   1.00
H856   H     0.30791   0.26752   0.82960   0.00000  Uiso   1.00
H857   H     0.29094   0.27562   0.78014   0.00000  Uiso   1.00
H858   H     0.24781   0.28528   0.83816   0.00000  Uiso   1.00
H859   H     0.22688   0.22258   0.81329   0.00000  Uiso   1.00
H860   H     0.25484   0.20872   0.85242   0.00000  Uiso   1.00
O861   O     0.46179   0.22775   0.75001   0.00000  Uiso   1.00
O862   O     0.53821   0.10558   0.75000   0.00000  Uiso   1.00
O863   O     0.53823   0.22774   0.75000   0.00000  Uiso   1.00
O864   O     0.46177   0.10559   0.75000   0.00000  Uiso   1.00
C865   C     0.49926   0.24668   0.75020   0.00000  Uiso   1.00
C866   C     0.50062   0.08667   0.75016   0.00000  Uiso   1.00
O867   O     0.43994   0.16667   0.81612   0.00000  Uiso   1.00
O868   O     0.56006   0.16666   0.68388   0.00000  Uiso   1.00
O869   O     0.51639   0.16666   0.81612   0.00000  Uiso   1.00
O870   O     0.48361   0.16667   0.68388   0.00000  Uiso   1.00
C871   C     0.46978   0.16624   0.83770   0.00000  Uiso   1.00
C872   C     0.53021   0.16635   0.66225   0.00000  Uiso   1.00
Zn873  Zn    0.44896   0.16667   0.75000   0.00000  Uiso   1.00
Zn874  Zn    0.55104   0.16666   0.75000   0.00000  Uiso   1.00
C875   C     0.45099   0.16374   0.88783   0.00000  Uiso   1.00
C876   C     0.54847   0.16091   0.61206   0.00000  Uiso   1.00
C877   C     0.38704   0.17351   0.96288   0.00000  Uiso   1.00
C878   C     0.60603   0.13071   0.54057   0.00000  Uiso   1.00
C879   C     0.40234   0.17289   0.91482   0.00000  Uiso   1.00
C880   C     0.59418   0.14291   0.58695   0.00000  Uiso   1.00
C881   C     0.48332   0.15279   0.90873   0.00000  Uiso   1.00
C882   C     0.51584   0.16809   0.59043   0.00000  Uiso   1.00
C883   C     0.46882   0.15267   0.95676   0.00000  Uiso   1.00
C884   C     0.52498   0.15260   0.54558   0.00000  Uiso   1.00
C885   C     0.42025   0.16468   0.98401   0.00000  Uiso   1.00
C886   C     0.57158   0.13506   0.51982   0.00000  Uiso   1.00
C887   C     0.50245   0.14420   0.97809   0.00000  Uiso   1.00
C888   C     0.48902   0.15438   0.52584   0.00000  Uiso   1.00
C889   C     0.43990   0.16517   0.55241   0.00000  Uiso   1.00
C890   C     0.54909   0.12627   0.95325   0.00000  Uiso   1.00
C891   C     0.40595   0.16923   0.53181   0.00000  Uiso   1.00
C892   C     0.58284   0.12151   0.97404   0.00000  Uiso   1.00
H893   H     0.36879   0.17775   0.55323   0.00000  Uiso   1.00
H894   H     0.61804   0.10745   0.95406   0.00000  Uiso   1.00
H895   H     0.34981   0.18245   0.98345   0.00000  Uiso   1.00
H896   H     0.64140   0.11658   0.52143   0.00000  Uiso   1.00
H897   H     0.42618   0.16990   0.58948   0.00000  Uiso   1.00
H898   H     0.56000   0.11421   0.91804   0.00000  Uiso   1.00
C899   C     0.54158   0.30994   0.74384   0.00000  Uiso   1.00
C900   C     0.45796   0.02347   0.75787   0.00000  Uiso   1.00
C901   C     0.54440   0.01883   0.74490   0.00000  Uiso   1.00
C902   C     0.45511   0.31457   0.75693   0.00000  Uiso   1.00
C903   C     0.50169   0.04247   0.75115   0.00000  Uiso   1.00
C904   C     0.49795   0.29092   0.75012   0.00000  Uiso   1.00
C905   C     0.65459   0.14303   0.71843   0.00000  Uiso   1.00
C906   C     0.34540   0.19021   0.78165   0.00000  Uiso   1.00
C907   C     0.36884   0.14166   0.71881   0.00000  Uiso   1.00
C908   C     0.63110   0.19152   0.78137   0.00000  Uiso   1.00
N909   N     0.38093   0.16668   0.75001   0.00000  Uiso   1.00
N910   N     0.61907   0.16666   0.74999   0.00000  Uiso   1.00
H911   H     0.48280   0.18522   0.60991   0.00000  Uiso   1.00
H912   H     0.52062   0.14676   0.88681   0.00000  Uiso   1.00
H913   H     0.61986   0.13697   0.60346   0.00000  Uiso   1.00
H914   H     0.37672   0.18105   0.89892   0.00000  Uiso   1.00
H915   H     0.57424   0.29168   0.73811   0.00000  Uiso   1.00
H916   H     0.42528   0.04175   0.76381   0.00000  Uiso   1.00
C917   C     0.59340   0.03603   0.73960   0.00000  Uiso   1.00
C918   C     0.59497   0.05021   0.78649   0.00000  Uiso   1.00
H919   H     0.62844   0.06737   0.78120   0.00000  Uiso   1.00
H920   H     0.56336   0.07052   0.80677   0.00000  Uiso   1.00
H921   H     0.59508   0.02300   0.80715   0.00000  Uiso   1.00
H922   H     0.62284   0.01218   0.72424   0.00000  Uiso   1.00
H923   H     0.60343   0.06067   0.71431   0.00000  Uiso   1.00
C924   C     0.40593   0.29733   0.76305   0.00000  Uiso   1.00
C925   C     0.40324   0.28363   0.71647   0.00000  Uiso   1.00
H926   H     0.43517   0.26415   0.69504   0.00000  Uiso   1.00
H927   H     0.37020   0.26574   0.72222   0.00000  Uiso   1.00
H928   H     0.40153   0.31106   0.69671   0.00000  Uiso   1.00
H929   H     0.39665   0.27239   0.78799   0.00000  Uiso   1.00
H930   H     0.37652   0.32104   0.77929   0.00000  Uiso   1.00
H931   H     0.64572   0.12492   0.69298   0.00000  Uiso   1.00
H932   H     0.35427   0.20813   0.80720   0.00000  Uiso   1.00
C933   C     0.40471   0.11209   0.68340   0.00000  Uiso   1.00
C934   C     0.38766   0.06772   0.68675   0.00000  Uiso   1.00
H935   H     0.37503   0.05812   0.72307   0.00000  Uiso   1.00
H936   H     0.35814   0.06432   0.67327   0.00000  Uiso   1.00
H937   H     0.41820   0.04679   0.66532   0.00000  Uiso   1.00
H938   H     0.41078   0.12252   0.64816   0.00000  Uiso   1.00
H939   H     0.43981   0.11058   0.68680   0.00000  Uiso   1.00
C940   C     0.59491   0.22041   0.81746   0.00000  Uiso   1.00
C941   C     0.61177   0.26480   0.81598   0.00000  Uiso   1.00
H942   H     0.64125   0.26752   0.82960   0.00000  Uiso   1.00
H943   H     0.62427   0.27562   0.78014   0.00000  Uiso   1.00
H944   H     0.58114   0.28528   0.83816   0.00000  Uiso   1.00
H945   H     0.56021   0.22258   0.81329   0.00000  Uiso   1.00
H946   H     0.58817   0.20872   0.85242   0.00000  Uiso   1.00
O947   O     0.79512   0.22775   0.75001   0.00000  Uiso   1.00
O948   O     0.87154   0.10558   0.75000   0.00000  Uiso   1.00
O949   O     0.87157   0.22774   0.75000   0.00000  Uiso   1.00
O950   O     0.79510   0.10559   0.75000   0.00000  Uiso   1.00
C951   C     0.83259   0.24668   0.75020   0.00000  Uiso   1.00
C952   C     0.83396   0.08667   0.75016   0.00000  Uiso   1.00
O953   O     0.77328   0.16667   0.81612   0.00000  Uiso   1.00
O954   O     0.89339   0.16666   0.68388   0.00000  Uiso   1.00
O955   O     0.84972   0.16666   0.81612   0.00000  Uiso   1.00
O956   O     0.81695   0.16667   0.68388   0.00000  Uiso   1.00
C957   C     0.80312   0.16624   0.83770   0.00000  Uiso   1.00
C958   C     0.86355   0.16635   0.66225   0.00000  Uiso   1.00
Zn959  Zn    0.78229   0.16667   0.75000   0.00000  Uiso   1.00
Zn960  Zn    0.88438   0.16666   0.75000   0.00000  Uiso   1.00
C961   C     0.78432   0.16374   0.88783   0.00000  Uiso   1.00
C962   C     0.88180   0.16091   0.61206   0.00000  Uiso   1.00
C963   C     0.72037   0.17351   0.96288   0.00000  Uiso   1.00
C964   C     0.93937   0.13071   0.54057   0.00000  Uiso   1.00
C965   C     0.73567   0.17289   0.91482   0.00000  Uiso   1.00
C966   C     0.92751   0.14291   0.58695   0.00000  Uiso   1.00
C967   C     0.81665   0.15279   0.90873   0.00000  Uiso   1.00
C968   C     0.84918   0.16809   0.59043   0.00000  Uiso   1.00
C969   C     0.80215   0.15267   0.95676   0.00000  Uiso   1.00
C970   C     0.85831   0.15260   0.54558   0.00000  Uiso   1.00
C971   C     0.75358   0.16468   0.98401   0.00000  Uiso   1.00
C972   C     0.90491   0.13506   0.51982   0.00000  Uiso   1.00
C973   C     0.83579   0.14420   0.97809   0.00000  Uiso   1.00
C974   C     0.82235   0.15438   0.52584   0.00000  Uiso   1.00
C975   C     0.77323   0.16517   0.55241   0.00000  Uiso   1.00
C976   C     0.88242   0.12627   0.95325   0.00000  Uiso   1.00
C977   C     0.73928   0.16923   0.53181   0.00000  Uiso   1.00
C978   C     0.91617   0.12151   0.97404   0.00000  Uiso   1.00
H979   H     0.70213   0.17775   0.55323   0.00000  Uiso   1.00
H980   H     0.95138   0.10745   0.95406   0.00000  Uiso   1.00
H981   H     0.68314   0.18245   0.98345   0.00000  Uiso   1.00
H982   H     0.97474   0.11658   0.52143   0.00000  Uiso   1.00
H983   H     0.75951   0.16990   0.58948   0.00000  Uiso   1.00
H984   H     0.89334   0.11421   0.91804   0.00000  Uiso   1.00
C985   C     0.87491   0.30994   0.74384   0.00000  Uiso   1.00
C986   C     0.79129   0.02347   0.75787   0.00000  Uiso   1.00
C987   C     0.87773   0.01883   0.74490   0.00000  Uiso   1.00
C988   C     0.78844   0.31457   0.75693   0.00000  Uiso   1.00
C989   C     0.83502   0.04247   0.75115   0.00000  Uiso   1.00
C990   C     0.83128   0.29092   0.75012   0.00000  Uiso   1.00
C991   C     0.98792   0.14303   0.71843   0.00000  Uiso   1.00
C992   C     0.67873   0.19021   0.78165   0.00000  Uiso   1.00
C993   C     0.70217   0.14166   0.71881   0.00000  Uiso   1.00
C994   C     0.96443   0.19152   0.78137   0.00000  Uiso   1.00
N995   N     0.71426   0.16668   0.75001   0.00000  Uiso   1.00
N996   N     0.95241   0.16666   0.74999   0.00000  Uiso   1.00
H997   H     0.81613   0.18522   0.60991   0.00000  Uiso   1.00
H998   H     0.85395   0.14676   0.88681   0.00000  Uiso   1.00
H999   H     0.95319   0.13697   0.60346   0.00000  Uiso   1.00
H1000  H     0.71006   0.18105   0.89892   0.00000  Uiso   1.00
H1001  H     0.90757   0.29168   0.73811   0.00000  Uiso   1.00
H1002  H     0.75861   0.04175   0.76381   0.00000  Uiso   1.00
C1003  C     0.92673   0.03603   0.73960   0.00000  Uiso   1.00
C1004  C     0.92831   0.05021   0.78649   0.00000  Uiso   1.00
H1005  H     0.96177   0.06737   0.78120   0.00000  Uiso   1.00
H1006  H     0.89669   0.07052   0.80677   0.00000  Uiso   1.00
H1007  H     0.92841   0.02300   0.80715   0.00000  Uiso   1.00
H1008  H     0.95617   0.01218   0.72424   0.00000  Uiso   1.00
H1009  H     0.93676   0.06067   0.71431   0.00000  Uiso   1.00
C1010  C     0.73926   0.29733   0.76305   0.00000  Uiso   1.00
C1011  C     0.73657   0.28363   0.71647   0.00000  Uiso   1.00
H1012  H     0.76851   0.26415   0.69504   0.00000  Uiso   1.00
H1013  H     0.70353   0.26574   0.72222   0.00000  Uiso   1.00
H1014  H     0.73487   0.31106   0.69671   0.00000  Uiso   1.00
H1015  H     0.72998   0.27239   0.78799   0.00000  Uiso   1.00
H1016  H     0.70985   0.32104   0.77929   0.00000  Uiso   1.00
H1017  H     0.97906   0.12492   0.69298   0.00000  Uiso   1.00
H1018  H     0.68760   0.20813   0.80720   0.00000  Uiso   1.00
C1019  C     0.73804   0.11209   0.68340   0.00000  Uiso   1.00
C1020  C     0.72099   0.06772   0.68675   0.00000  Uiso   1.00
H1021  H     0.70837   0.05812   0.72307   0.00000  Uiso   1.00
H1022  H     0.69148   0.06432   0.67327   0.00000  Uiso   1.00
H1023  H     0.75154   0.04679   0.66532   0.00000  Uiso   1.00
H1024  H     0.74411   0.12252   0.64816   0.00000  Uiso   1.00
H1025  H     0.77314   0.11058   0.68680   0.00000  Uiso   1.00
C1026  C     0.92824   0.22041   0.81746   0.00000  Uiso   1.00
C1027  C     0.94511   0.26480   0.81598   0.00000  Uiso   1.00
H1028  H     0.97458   0.26752   0.82960   0.00000  Uiso   1.00
H1029  H     0.95760   0.27562   0.78014   0.00000  Uiso   1.00
H1030  H     0.91447   0.28528   0.83816   0.00000  Uiso   1.00
H1031  H     0.89354   0.22258   0.81329   0.00000  Uiso   1.00
H1032  H     0.92150   0.20872   0.85242   0.00000  Uiso   1.00
O1033  O     0.12846   0.56108   0.75001   0.00000  Uiso   1.00
O1034  O     0.20488   0.43892   0.75000   0.00000  Uiso   1.00
O1035  O     0.20490   0.56107   0.75000   0.00000  Uiso   1.00
O1036  O     0.12843   0.43893   0.75000   0.00000  Uiso   1.00
C1037  C     0.16593   0.58001   0.75020   0.00000  Uiso   1.00
C1038  C     0.16729   0.42000   0.75016   0.00000  Uiso   1.00
O1039  O     0.10661   0.50001   0.81612   0.00000  Uiso   1.00
O1040  O     0.22672   0.49999   0.68388   0.00000  Uiso   1.00
O1041  O     0.18305   0.50000   0.81612   0.00000  Uiso   1.00
O1042  O     0.15028   0.50000   0.68388   0.00000  Uiso   1.00
C1043  C     0.13645   0.49957   0.83770   0.00000  Uiso   1.00
C1044  C     0.19688   0.49969   0.66225   0.00000  Uiso   1.00
Zn1045 Zn    0.11562   0.50001   0.75000   0.00000  Uiso   1.00
Zn1046 Zn    0.21771   0.49999   0.75000   0.00000  Uiso   1.00
C1047  C     0.11765   0.49707   0.88783   0.00000  Uiso   1.00
C1048  C     0.21513   0.49424   0.61206   0.00000  Uiso   1.00
C1049  C     0.05371   0.50684   0.96288   0.00000  Uiso   1.00
C1050  C     0.27270   0.46404   0.54057   0.00000  Uiso   1.00
C1051  C     0.06900   0.50622   0.91482   0.00000  Uiso   1.00
C1052  C     0.26085   0.47624   0.58695   0.00000  Uiso   1.00
C1053  C     0.14999   0.48612   0.90873   0.00000  Uiso   1.00
C1054  C     0.18251   0.50143   0.59043   0.00000  Uiso   1.00
C1055  C     0.13548   0.48600   0.95676   0.00000  Uiso   1.00
C1056  C     0.19165   0.48594   0.54558   0.00000  Uiso   1.00
C1057  C     0.08691   0.49802   0.98401   0.00000  Uiso   1.00
C1058  C     0.23824   0.46839   0.51982   0.00000  Uiso   1.00
C1059  C     0.16912   0.47753   0.97809   0.00000  Uiso   1.00
C1060  C     0.15568   0.48772   0.52584   0.00000  Uiso   1.00
C1061  C     0.10656   0.49850   0.55241   0.00000  Uiso   1.00
C1062  C     0.21576   0.45960   0.95325   0.00000  Uiso   1.00
C1063  C     0.07261   0.50256   0.53181   0.00000  Uiso   1.00
C1064  C     0.24951   0.45484   0.97404   0.00000  Uiso   1.00
H1065  H     0.03546   0.51109   0.55323   0.00000  Uiso   1.00
H1066  H     0.28471   0.44078   0.95406   0.00000  Uiso   1.00
H1067  H     0.01648   0.51579   0.98345   0.00000  Uiso   1.00
H1068  H     0.30807   0.44992   0.52143   0.00000  Uiso   1.00
H1069  H     0.09284   0.50324   0.58948   0.00000  Uiso   1.00
H1070  H     0.22667   0.44754   0.91804   0.00000  Uiso   1.00
C1071  C     0.20825   0.64327   0.74384   0.00000  Uiso   1.00
C1072  C     0.12462   0.35680   0.75787   0.00000  Uiso   1.00
C1073  C     0.21107   0.35217   0.74490   0.00000  Uiso   1.00
C1074  C     0.12178   0.64790   0.75693   0.00000  Uiso   1.00
C1075  C     0.16836   0.37580   0.75115   0.00000  Uiso   1.00
C1076  C     0.16461   0.62426   0.75012   0.00000  Uiso   1.00
C1077  C     0.32125   0.47637   0.71843   0.00000  Uiso   1.00
C1078  C     0.01206   0.52354   0.78165   0.00000  Uiso   1.00
C1079  C     0.03550   0.47499   0.71881   0.00000  Uiso   1.00
C1080  C     0.29776   0.52485   0.78137   0.00000  Uiso   1.00
N1081  N     0.04759   0.50001   0.75001   0.00000  Uiso   1.00
N1082  N     0.28574   0.49999   0.74999   0.00000  Uiso   1.00
H1083  H     0.14946   0.51856   0.60991   0.00000  Uiso   1.00
H1084  H     0.18728   0.48009   0.88681   0.00000  Uiso   1.00
H1085  H     0.28652   0.47031   0.60346   0.00000  Uiso   1.00
H1086  H     0.04339   0.51438   0.89892   0.00000  Uiso   1.00
H1087  H     0.24090   0.62501   0.73811   0.00000  Uiso   1.00
H1088  H     0.09194   0.37508   0.76381   0.00000  Uiso   1.00
C1089  C     0.26007   0.36936   0.73960   0.00000  Uiso   1.00
C1090  C     0.26164   0.38354   0.78649   0.00000  Uiso   1.00
H1091  H     0.29510   0.40070   0.78120   0.00000  Uiso   1.00
H1092  H     0.23002   0.40386   0.80677   0.00000  Uiso   1.00
H1093  H     0.26174   0.35633   0.80715   0.00000  Uiso   1.00
H1094  H     0.28951   0.34551   0.72424   0.00000  Uiso   1.00
H1095  H     0.27009   0.39400   0.71431   0.00000  Uiso   1.00
C1096  C     0.07260   0.63066   0.76305   0.00000  Uiso   1.00
C1097  C     0.06991   0.61696   0.71647   0.00000  Uiso   1.00
H1098  H     0.10184   0.59748   0.69504   0.00000  Uiso   1.00
H1099  H     0.03686   0.59908   0.72222   0.00000  Uiso   1.00
H1100  H     0.06820   0.64439   0.69671   0.00000  Uiso   1.00
H1101  H     0.06331   0.60572   0.78799   0.00000  Uiso   1.00
H1102  H     0.04318   0.65437   0.77929   0.00000  Uiso   1.00
H1103  H     0.31239   0.45826   0.69298   0.00000  Uiso   1.00
H1104  H     0.02094   0.54147   0.80720   0.00000  Uiso   1.00
C1105  C     0.07138   0.44542   0.68340   0.00000  Uiso   1.00
C1106  C     0.05433   0.40105   0.68675   0.00000  Uiso   1.00
H1107  H     0.04170   0.39145   0.72307   0.00000  Uiso   1.00
H1108  H     0.02481   0.39765   0.67327   0.00000  Uiso   1.00
H1109  H     0.08487   0.38012   0.66532   0.00000  Uiso   1.00
H1110  H     0.07744   0.45586   0.64816   0.00000  Uiso   1.00
H1111  H     0.10648   0.44391   0.68680   0.00000  Uiso   1.00
C1112  C     0.26157   0.55374   0.81746   0.00000  Uiso   1.00
C1113  C     0.27844   0.59813   0.81598   0.00000  Uiso   1.00
H1114  H     0.30791   0.60085   0.82960   0.00000  Uiso   1.00
H1115  H     0.29094   0.60896   0.78014   0.00000  Uiso   1.00
H1116  H     0.24781   0.61862   0.83816   0.00000  Uiso   1.00
H1117  H     0.22688   0.55592   0.81329   0.00000  Uiso   1.00
H1118  H     0.25484   0.54206   0.85242   0.00000  Uiso   1.00
O1119  O     0.46179   0.56108   0.75001   0.00000  Uiso   1.00
O1120  O     0.53821   0.43892   0.75000   0.00000  Uiso   1.00
O1121  O     0.53823   0.56107   0.75000   0.00000  Uiso   1.00
O1122  O     0.46177   0.43893   0.75000   0.00000  Uiso   1.00
C1123  C     0.49926   0.58001   0.75020   0.00000  Uiso   1.00
C1124  C     0.50062   0.42000   0.75016   0.00000  Uiso   1.00
O1125  O     0.43994   0.50001   0.81612   0.00000  Uiso   1.00
O1126  O     0.56006   0.49999   0.68388   0.00000  Uiso   1.00
O1127  O     0.51639   0.50000   0.81612   0.00000  Uiso   1.00
O1128  O     0.48361   0.50000   0.68388   0.00000  Uiso   1.00
C1129  C     0.46978   0.49957   0.83770   0.00000  Uiso   1.00
C1130  C     0.53021   0.49969   0.66225   0.00000  Uiso   1.00
Zn1131 Zn    0.44896   0.50001   0.75000   0.00000  Uiso   1.00
Zn1132 Zn    0.55104   0.49999   0.75000   0.00000  Uiso   1.00
C1133  C     0.45099   0.49707   0.88783   0.00000  Uiso   1.00
C1134  C     0.54847   0.49424   0.61206   0.00000  Uiso   1.00
C1135  C     0.38704   0.50684   0.96288   0.00000  Uiso   1.00
C1136  C     0.60603   0.46404   0.54057   0.00000  Uiso   1.00
C1137  C     0.40234   0.50622   0.91482   0.00000  Uiso   1.00
C1138  C     0.59418   0.47624   0.58695   0.00000  Uiso   1.00
C1139  C     0.48332   0.48612   0.90873   0.00000  Uiso   1.00
C1140  C     0.51584   0.50143   0.59043   0.00000  Uiso   1.00
C1141  C     0.46882   0.48600   0.95676   0.00000  Uiso   1.00
C1142  C     0.52498   0.48594   0.54558   0.00000  Uiso   1.00
C1143  C     0.42025   0.49802   0.98401   0.00000  Uiso   1.00
C1144  C     0.57158   0.46839   0.51982   0.00000  Uiso   1.00
C1145  C     0.50245   0.47753   0.97809   0.00000  Uiso   1.00
C1146  C     0.48902   0.48772   0.52584   0.00000  Uiso   1.00
C1147  C     0.43990   0.49850   0.55241   0.00000  Uiso   1.00
C1148  C     0.54909   0.45960   0.95325   0.00000  Uiso   1.00
C1149  C     0.40595   0.50256   0.53181   0.00000  Uiso   1.00
C1150  C     0.58284   0.45484   0.97404   0.00000  Uiso   1.00
H1151  H     0.36879   0.51109   0.55323   0.00000  Uiso   1.00
H1152  H     0.61804   0.44078   0.95406   0.00000  Uiso   1.00
H1153  H     0.34981   0.51579   0.98345   0.00000  Uiso   1.00
H1154  H     0.64140   0.44992   0.52143   0.00000  Uiso   1.00
H1155  H     0.42618   0.50324   0.58948   0.00000  Uiso   1.00
H1156  H     0.56000   0.44754   0.91804   0.00000  Uiso   1.00
C1157  C     0.54158   0.64327   0.74384   0.00000  Uiso   1.00
C1158  C     0.45796   0.35680   0.75787   0.00000  Uiso   1.00
C1159  C     0.54440   0.35217   0.74490   0.00000  Uiso   1.00
C1160  C     0.45511   0.64790   0.75693   0.00000  Uiso   1.00
C1161  C     0.50169   0.37580   0.75115   0.00000  Uiso   1.00
C1162  C     0.49795   0.62426   0.75012   0.00000  Uiso   1.00
C1163  C     0.65459   0.47637   0.71843   0.00000  Uiso   1.00
C1164  C     0.34540   0.52354   0.78165   0.00000  Uiso   1.00
C1165  C     0.36884   0.47499   0.71881   0.00000  Uiso   1.00
C1166  C     0.63110   0.52485   0.78137   0.00000  Uiso   1.00
N1167  N     0.38093   0.50001   0.75001   0.00000  Uiso   1.00
N1168  N     0.61907   0.49999   0.74999   0.00000  Uiso   1.00
H1169  H     0.48280   0.51856   0.60991   0.00000  Uiso   1.00
H1170  H     0.52062   0.48009   0.88681   0.00000  Uiso   1.00
H1171  H     0.61986   0.47031   0.60346   0.00000  Uiso   1.00
H1172  H     0.37672   0.51438   0.89892   0.00000  Uiso   1.00
H1173  H     0.57424   0.62501   0.73811   0.00000  Uiso   1.00
H1174  H     0.42528   0.37508   0.76381   0.00000  Uiso   1.00
C1175  C     0.59340   0.36936   0.73960   0.00000  Uiso   1.00
C1176  C     0.59497   0.38354   0.78649   0.00000  Uiso   1.00
H1177  H     0.62844   0.40070   0.78120   0.00000  Uiso   1.00
H1178  H     0.56336   0.40386   0.80677   0.00000  Uiso   1.00
H1179  H     0.59508   0.35633   0.80715   0.00000  Uiso   1.00
H1180  H     0.62284   0.34551   0.72424   0.00000  Uiso   1.00
H1181  H     0.60343   0.39400   0.71431   0.00000  Uiso   1.00
C1182  C     0.40593   0.63066   0.76305   0.00000  Uiso   1.00
C1183  C     0.40324   0.61696   0.71647   0.00000  Uiso   1.00
H1184  H     0.43517   0.59748   0.69504   0.00000  Uiso   1.00
H1185  H     0.37020   0.59908   0.72222   0.00000  Uiso   1.00
H1186  H     0.40153   0.64439   0.69671   0.00000  Uiso   1.00
H1187  H     0.39665   0.60572   0.78799   0.00000  Uiso   1.00
H1188  H     0.37652   0.65437   0.77929   0.00000  Uiso   1.00
H1189  H     0.64572   0.45826   0.69298   0.00000  Uiso   1.00
H1190  H     0.35427   0.54147   0.80720   0.00000  Uiso   1.00
C1191  C     0.40471   0.44542   0.68340   0.00000  Uiso   1.00
C1192  C     0.38766   0.40105   0.68675   0.00000  Uiso   1.00
H1193  H     0.37503   0.39145   0.72307   0.00000  Uiso   1.00
H1194  H     0.35814   0.39765   0.67327   0.00000  Uiso   1.00
H1195  H     0.41820   0.38012   0.66532   0.00000  Uiso   1.00
H1196  H     0.41078   0.45586   0.64816   0.00000  Uiso   1.00
H1197  H     0.43981   0.44391   0.68680   0.00000  Uiso   1.00
C1198  C     0.59491   0.55374   0.81746   0.00000  Uiso   1.00
C1199  C     0.61177   0.59813   0.81598   0.00000  Uiso   1.00
H1200  H     0.64125   0.60085   0.82960   0.00000  Uiso   1.00
H1201  H     0.62427   0.60896   0.78014   0.00000  Uiso   1.00
H1202  H     0.58114   0.61862   0.83816   0.00000  Uiso   1.00
H1203  H     0.56021   0.55592   0.81329   0.00000  Uiso   1.00
H1204  H     0.58817   0.54206   0.85242   0.00000  Uiso   1.00
O1205  O     0.79512   0.56108   0.75001   0.00000  Uiso   1.00
O1206  O     0.87154   0.43892   0.75000   0.00000  Uiso   1.00
O1207  O     0.87157   0.56107   0.75000   0.00000  Uiso   1.00
O1208  O     0.79510   0.43893   0.75000   0.00000  Uiso   1.00
C1209  C     0.83259   0.58001   0.75020   0.00000  Uiso   1.00
C1210  C     0.83396   0.42000   0.75016   0.00000  Uiso   1.00
O1211  O     0.77328   0.50001   0.81612   0.00000  Uiso   1.00
O1212  O     0.89339   0.49999   0.68388   0.00000  Uiso   1.00
O1213  O     0.84972   0.50000   0.81612   0.00000  Uiso   1.00
O1214  O     0.81695   0.50000   0.68388   0.00000  Uiso   1.00
C1215  C     0.80312   0.49957   0.83770   0.00000  Uiso   1.00
C1216  C     0.86355   0.49969   0.66225   0.00000  Uiso   1.00
Zn1217 Zn    0.78229   0.50001   0.75000   0.00000  Uiso   1.00
Zn1218 Zn    0.88438   0.49999   0.75000   0.00000  Uiso   1.00
C1219  C     0.78432   0.49707   0.88783   0.00000  Uiso   1.00
C1220  C     0.88180   0.49424   0.61206   0.00000  Uiso   1.00
C1221  C     0.72037   0.50684   0.96288   0.00000  Uiso   1.00
C1222  C     0.93937   0.46404   0.54057   0.00000  Uiso   1.00
C1223  C     0.73567   0.50622   0.91482   0.00000  Uiso   1.00
C1224  C     0.92751   0.47624   0.58695   0.00000  Uiso   1.00
C1225  C     0.81665   0.48612   0.90873   0.00000  Uiso   1.00
C1226  C     0.84918   0.50143   0.59043   0.00000  Uiso   1.00
C1227  C     0.80215   0.48600   0.95676   0.00000  Uiso   1.00
C1228  C     0.85831   0.48594   0.54558   0.00000  Uiso   1.00
C1229  C     0.75358   0.49802   0.98401   0.00000  Uiso   1.00
C1230  C     0.90491   0.46839   0.51982   0.00000  Uiso   1.00
C1231  C     0.83579   0.47753   0.97809   0.00000  Uiso   1.00
C1232  C     0.82235   0.48772   0.52584   0.00000  Uiso   1.00
C1233  C     0.77323   0.49850   0.55241   0.00000  Uiso   1.00
C1234  C     0.88242   0.45960   0.95325   0.00000  Uiso   1.00
C1235  C     0.73928   0.50256   0.53181   0.00000  Uiso   1.00
C1236  C     0.91617   0.45484   0.97404   0.00000  Uiso   1.00
H1237  H     0.70213   0.51109   0.55323   0.00000  Uiso   1.00
H1238  H     0.95138   0.44078   0.95406   0.00000  Uiso   1.00
H1239  H     0.68314   0.51579   0.98345   0.00000  Uiso   1.00
H1240  H     0.97474   0.44992   0.52143   0.00000  Uiso   1.00
H1241  H     0.75951   0.50324   0.58948   0.00000  Uiso   1.00
H1242  H     0.89334   0.44754   0.91804   0.00000  Uiso   1.00
C1243  C     0.87491   0.64327   0.74384   0.00000  Uiso   1.00
C1244  C     0.79129   0.35680   0.75787   0.00000  Uiso   1.00
C1245  C     0.87773   0.35217   0.74490   0.00000  Uiso   1.00
C1246  C     0.78844   0.64790   0.75693   0.00000  Uiso   1.00
C1247  C     0.83502   0.37580   0.75115   0.00000  Uiso   1.00
C1248  C     0.83128   0.62426   0.75012   0.00000  Uiso   1.00
C1249  C     0.98792   0.47637   0.71843   0.00000  Uiso   1.00
C1250  C     0.67873   0.52354   0.78165   0.00000  Uiso   1.00
C1251  C     0.70217   0.47499   0.71881   0.00000  Uiso   1.00
C1252  C     0.96443   0.52485   0.78137   0.00000  Uiso   1.00
N1253  N     0.71426   0.50001   0.75001   0.00000  Uiso   1.00
N1254  N     0.95241   0.49999   0.74999   0.00000  Uiso   1.00
H1255  H     0.81613   0.51856   0.60991   0.00000  Uiso   1.00
H1256  H     0.85395   0.48009   0.88681   0.00000  Uiso   1.00
H1257  H     0.95319   0.47031   0.60346   0.00000  Uiso   1.00
H1258  H     0.71006   0.51438   0.89892   0.00000  Uiso   1.00
H1259  H     0.90757   0.62501   0.73811   0.00000  Uiso   1.00
H1260  H     0.75861   0.37508   0.76381   0.00000  Uiso   1.00
C1261  C     0.92673   0.36936   0.73960   0.00000  Uiso   1.00
C1262  C     0.92831   0.38354   0.78649   0.00000  Uiso   1.00
H1263  H     0.96177   0.40070   0.78120   0.00000  Uiso   1.00
H1264  H     0.89669   0.40386   0.80677   0.00000  Uiso   1.00
H1265  H     0.92841   0.35633   0.80715   0.00000  Uiso   1.00
H1266  H     0.95617   0.34551   0.72424   0.00000  Uiso   1.00
H1267  H     0.93676   0.39400   0.71431   0.00000  Uiso   1.00
C1268  C     0.73926   0.63066   0.76305   0.00000  Uiso   1.00
C1269  C     0.73657   0.61696   0.71647   0.00000  Uiso   1.00
H1270  H     0.76851   0.59748   0.69504   0.00000  Uiso   1.00
H1271  H     0.70353   0.59908   0.72222   0.00000  Uiso   1.00
H1272  H     0.73487   0.64439   0.69671   0.00000  Uiso   1.00
H1273  H     0.72998   0.60572   0.78799   0.00000  Uiso   1.00
H1274  H     0.70985   0.65437   0.77929   0.00000  Uiso   1.00
H1275  H     0.97906   0.45826   0.69298   0.00000  Uiso   1.00
H1276  H     0.68760   0.54147   0.80720   0.00000  Uiso   1.00
C1277  C     0.73804   0.44542   0.68340   0.00000  Uiso   1.00
C1278  C     0.72099   0.40105   0.68675   0.00000  Uiso   1.00
H1279  H     0.70837   0.39145   0.72307   0.00000  Uiso   1.00
H1280  H     0.69148   0.39765   0.67327   0.00000  Uiso   1.00
H1281  H     0.75154   0.38012   0.66532   0.00000  Uiso   1.00
H1282  H     0.74411   0.45586   0.64816   0.00000  Uiso   1.00
H1283  H     0.77314   0.44391   0.68680   0.00000  Uiso   1.00
C1284  C     0.92824   0.55374   0.81746   0.00000  Uiso   1.00
C1285  C     0.94511   0.59813   0.81598   0.00000  Uiso   1.00
H1286  H     0.97458   0.60085   0.82960   0.00000  Uiso   1.00
H1287  H     0.95760   0.60896   0.78014   0.00000  Uiso   1.00
H1288  H     0.91447   0.61862   0.83816   0.00000  Uiso   1.00
H1289  H     0.89354   0.55592   0.81329   0.00000  Uiso   1.00
H1290  H     0.92150   0.54206   0.85242   0.00000  Uiso   1.00
O1291  O     0.12846   0.89442   0.75001   0.00000  Uiso   1.00
O1292  O     0.20488   0.77225   0.75000   0.00000  Uiso   1.00
O1293  O     0.20490   0.89441   0.75000   0.00000  Uiso   1.00
O1294  O     0.12843   0.77226   0.75000   0.00000  Uiso   1.00
C1295  C     0.16593   0.91335   0.75020   0.00000  Uiso   1.00
C1296  C     0.16729   0.75333   0.75016   0.00000  Uiso   1.00
O1297  O     0.10661   0.83334   0.81612   0.00000  Uiso   1.00
O1298  O     0.22672   0.83333   0.68388   0.00000  Uiso   1.00
O1299  O     0.18305   0.83333   0.81612   0.00000  Uiso   1.00
O1300  O     0.15028   0.83334   0.68388   0.00000  Uiso   1.00
C1301  C     0.13645   0.83290   0.83770   0.00000  Uiso   1.00
C1302  C     0.19688   0.83302   0.66225   0.00000  Uiso   1.00
Zn1303 Zn    0.11562   0.83334   0.75000   0.00000  Uiso   1.00
Zn1304 Zn    0.21771   0.83333   0.75000   0.00000  Uiso   1.00
C1305  C     0.11765   0.83041   0.88783   0.00000  Uiso   1.00
C1306  C     0.21513   0.82757   0.61206   0.00000  Uiso   1.00
C1307  C     0.05371   0.84018   0.96288   0.00000  Uiso   1.00
C1308  C     0.27270   0.79737   0.54057   0.00000  Uiso   1.00
C1309  C     0.06900   0.83956   0.91482   0.00000  Uiso   1.00
C1310  C     0.26085   0.80957   0.58695   0.00000  Uiso   1.00
C1311  C     0.14999   0.81945   0.90873   0.00000  Uiso   1.00
C1312  C     0.18251   0.83476   0.59043   0.00000  Uiso   1.00
C1313  C     0.13548   0.81933   0.95676   0.00000  Uiso   1.00
C1314  C     0.19165   0.81927   0.54558   0.00000  Uiso   1.00
C1315  C     0.08691   0.83135   0.98401   0.00000  Uiso   1.00
C1316  C     0.23824   0.80172   0.51982   0.00000  Uiso   1.00
C1317  C     0.16912   0.81086   0.97809   0.00000  Uiso   1.00
C1318  C     0.15568   0.82105   0.52584   0.00000  Uiso   1.00
C1319  C     0.10656   0.83184   0.55241   0.00000  Uiso   1.00
C1320  C     0.21576   0.79294   0.95325   0.00000  Uiso   1.00
C1321  C     0.07261   0.83589   0.53181   0.00000  Uiso   1.00
C1322  C     0.24951   0.78817   0.97404   0.00000  Uiso   1.00
H1323  H     0.03546   0.84442   0.55323   0.00000  Uiso   1.00
H1324  H     0.28471   0.77412   0.95406   0.00000  Uiso   1.00
H1325  H     0.01648   0.84912   0.98345   0.00000  Uiso   1.00
H1326  H     0.30807   0.78325   0.52143   0.00000  Uiso   1.00
H1327  H     0.09284   0.83657   0.58948   0.00000  Uiso   1.00
H1328  H     0.22667   0.78087   0.91804   0.00000  Uiso   1.00
C1329  C     0.20825   0.97661   0.74384   0.00000  Uiso   1.00
C1330  C     0.12462   0.69013   0.75787   0.00000  Uiso   1.00
C1331  C     0.21107   0.68550   0.74490   0.00000  Uiso   1.00
C1332  C     0.12178   0.98123   0.75693   0.00000  Uiso   1.00
C1333  C     0.16836   0.70913   0.75115   0.00000  Uiso   1.00
C1334  C     0.16461   0.95759   0.75012   0.00000  Uiso   1.00
C1335  C     0.32125   0.80970   0.71843   0.00000  Uiso   1.00
C1336  C     0.01206   0.85688   0.78165   0.00000  Uiso   1.00
C1337  C     0.03550   0.80832   0.71881   0.00000  Uiso   1.00
C1338  C     0.29776   0.85819   0.78137   0.00000  Uiso   1.00
N1339  N     0.04759   0.83334   0.75001   0.00000  Uiso   1.00
N1340  N     0.28574   0.83332   0.74999   0.00000  Uiso   1.00
H1341  H     0.14946   0.85189   0.60991   0.00000  Uiso   1.00
H1342  H     0.18728   0.81343   0.88681   0.00000  Uiso   1.00
H1343  H     0.28652   0.80364   0.60346   0.00000  Uiso   1.00
H1344  H     0.04339   0.84771   0.89892   0.00000  Uiso   1.00
H1345  H     0.24090   0.95834   0.73811   0.00000  Uiso   1.00
H1346  H     0.09194   0.70842   0.76381   0.00000  Uiso   1.00
C1347  C     0.26007   0.70270   0.73960   0.00000  Uiso   1.00
C1348  C     0.26164   0.71687   0.78649   0.00000  Uiso   1.00
H1349  H     0.29510   0.73404   0.78120   0.00000  Uiso   1.00
H1350  H     0.23002   0.73719   0.80677   0.00000  Uiso   1.00
H1351  H     0.26174   0.68967   0.80715   0.00000  Uiso   1.00
H1352  H     0.28951   0.67885   0.72424   0.00000  Uiso   1.00
H1353  H     0.27009   0.72733   0.71431   0.00000  Uiso   1.00
C1354  C     0.07260   0.96400   0.76305   0.00000  Uiso   1.00
C1355  C     0.06991   0.95030   0.71647   0.00000  Uiso   1.00
H1356  H     0.10184   0.93082   0.69504   0.00000  Uiso   1.00
H1357  H     0.03686   0.93241   0.72222   0.00000  Uiso   1.00
H1358  H     0.06820   0.97772   0.69671   0.00000  Uiso   1.00
H1359  H     0.06331   0.93906   0.78799   0.00000  Uiso   1.00
H1360  H     0.04318   0.98771   0.77929   0.00000  Uiso   1.00
H1361  H     0.31239   0.79159   0.69298   0.00000  Uiso   1.00
H1362  H     0.02094   0.87480   0.80720   0.00000  Uiso   1.00
C1363  C     0.07138   0.77876   0.68340   0.00000  Uiso   1.00
C1364  C     0.05433   0.73439   0.68675   0.00000  Uiso   1.00
H1365  H     0.04170   0.72478   0.72307   0.00000  Uiso   1.00
H1366  H     0.02481   0.73098   0.67327   0.00000  Uiso   1.00
H1367  H     0.08487   0.71346   0.66532   0.00000  Uiso   1.00
H1368  H     0.07744   0.78919   0.64816   0.00000  Uiso   1.00
H1369  H     0.10648   0.77724   0.68680   0.00000  Uiso   1.00
C1370  C     0.26157   0.88708   0.81746   0.00000  Uiso   1.00
C1371  C     0.27844   0.93147   0.81598   0.00000  Uiso   1.00
H1372  H     0.30791   0.93419   0.82960   0.00000  Uiso   1.00
H1373  H     0.29094   0.94229   0.78014   0.00000  Uiso   1.00
H1374  H     0.24781   0.95195   0.83816   0.00000  Uiso   1.00
H1375  H     0.22688   0.88925   0.81329   0.00000  Uiso   1.00
H1376  H     0.25484   0.87539   0.85242   0.00000  Uiso   1.00
O1377  O     0.46179   0.89442   0.75001   0.00000  Uiso   1.00
O1378  O     0.53821   0.77225   0.75000   0.00000  Uiso   1.00
O1379  O     0.53823   0.89441   0.75000   0.00000  Uiso   1.00
O1380  O     0.46177   0.77226   0.75000   0.00000  Uiso   1.00
C1381  C     0.49926   0.91335   0.75020   0.00000  Uiso   1.00
C1382  C     0.50062   0.75333   0.75016   0.00000  Uiso   1.00
O1383  O     0.43994   0.83334   0.81612   0.00000  Uiso   1.00
O1384  O     0.56006   0.83333   0.68388   0.00000  Uiso   1.00
O1385  O     0.51639   0.83333   0.81612   0.00000  Uiso   1.00
O1386  O     0.48361   0.83334   0.68388   0.00000  Uiso   1.00
C1387  C     0.46978   0.83290   0.83770   0.00000  Uiso   1.00
C1388  C     0.53021   0.83302   0.66225   0.00000  Uiso   1.00
Zn1389 Zn    0.44896   0.83334   0.75000   0.00000  Uiso   1.00
Zn1390 Zn    0.55104   0.83333   0.75000   0.00000  Uiso   1.00
C1391  C     0.45099   0.83041   0.88783   0.00000  Uiso   1.00
C1392  C     0.54847   0.82757   0.61206   0.00000  Uiso   1.00
C1393  C     0.38704   0.84018   0.96288   0.00000  Uiso   1.00
C1394  C     0.60603   0.79737   0.54057   0.00000  Uiso   1.00
C1395  C     0.40234   0.83956   0.91482   0.00000  Uiso   1.00
C1396  C     0.59418   0.80957   0.58695   0.00000  Uiso   1.00
C1397  C     0.48332   0.81945   0.90873   0.00000  Uiso   1.00
C1398  C     0.51584   0.83476   0.59043   0.00000  Uiso   1.00
C1399  C     0.46882   0.81933   0.95676   0.00000  Uiso   1.00
C1400  C     0.52498   0.81927   0.54558   0.00000  Uiso   1.00
C1401  C     0.42025   0.83135   0.98401   0.00000  Uiso   1.00
C1402  C     0.57158   0.80172   0.51982   0.00000  Uiso   1.00
C1403  C     0.50245   0.81086   0.97809   0.00000  Uiso   1.00
C1404  C     0.48902   0.82105   0.52584   0.00000  Uiso   1.00
C1405  C     0.43990   0.83184   0.55241   0.00000  Uiso   1.00
C1406  C     0.54909   0.79294   0.95325   0.00000  Uiso   1.00
C1407  C     0.40595   0.83589   0.53181   0.00000  Uiso   1.00
C1408  C     0.58284   0.78817   0.97404   0.00000  Uiso   1.00
H1409  H     0.36879   0.84442   0.55323   0.00000  Uiso   1.00
H1410  H     0.61804   0.77412   0.95406   0.00000  Uiso   1.00
H1411  H     0.34981   0.84912   0.98345   0.00000  Uiso   1.00
H1412  H     0.64140   0.78325   0.52143   0.00000  Uiso   1.00
H1413  H     0.42618   0.83657   0.58948   0.00000  Uiso   1.00
H1414  H     0.56000   0.78087   0.91804   0.00000  Uiso   1.00
C1415  C     0.54158   0.97661   0.74384   0.00000  Uiso   1.00
C1416  C     0.45796   0.69013   0.75787   0.00000  Uiso   1.00
C1417  C     0.54440   0.68550   0.74490   0.00000  Uiso   1.00
C1418  C     0.45511   0.98123   0.75693   0.00000  Uiso   1.00
C1419  C     0.50169   0.70913   0.75115   0.00000  Uiso   1.00
C1420  C     0.49795   0.95759   0.75012   0.00000  Uiso   1.00
C1421  C     0.65459   0.80970   0.71843   0.00000  Uiso   1.00
C1422  C     0.34540   0.85688   0.78165   0.00000  Uiso   1.00
C1423  C     0.36884   0.80832   0.71881   0.00000  Uiso   1.00
C1424  C     0.63110   0.85819   0.78137   0.00000  Uiso   1.00
N1425  N     0.38093   0.83334   0.75001   0.00000  Uiso   1.00
N1426  N     0.61907   0.83332   0.74999   0.00000  Uiso   1.00
H1427  H     0.48280   0.85189   0.60991   0.00000  Uiso   1.00
H1428  H     0.52062   0.81343   0.88681   0.00000  Uiso   1.00
H1429  H     0.61986   0.80364   0.60346   0.00000  Uiso   1.00
H1430  H     0.37672   0.84771   0.89892   0.00000  Uiso   1.00
H1431  H     0.57424   0.95834   0.73811   0.00000  Uiso   1.00
H1432  H     0.42528   0.70842   0.76381   0.00000  Uiso   1.00
C1433  C     0.59340   0.70270   0.73960   0.00000  Uiso   1.00
C1434  C     0.59497   0.71687   0.78649   0.00000  Uiso   1.00
H1435  H     0.62844   0.73404   0.78120   0.00000  Uiso   1.00
H1436  H     0.56336   0.73719   0.80677   0.00000  Uiso   1.00
H1437  H     0.59508   0.68967   0.80715   0.00000  Uiso   1.00
H1438  H     0.62284   0.67885   0.72424   0.00000  Uiso   1.00
H1439  H     0.60343   0.72733   0.71431   0.00000  Uiso   1.00
C1440  C     0.40593   0.96400   0.76305   0.00000  Uiso   1.00
C1441  C     0.40324   0.95030   0.71647   0.00000  Uiso   1.00
H1442  H     0.43517   0.93082   0.69504   0.00000  Uiso   1.00
H1443  H     0.37020   0.93241   0.72222   0.00000  Uiso   1.00
H1444  H     0.40153   0.97772   0.69671   0.00000  Uiso   1.00
H1445  H     0.39665   0.93906   0.78799   0.00000  Uiso   1.00
H1446  H     0.37652   0.98771   0.77929   0.00000  Uiso   1.00
H1447  H     0.64572   0.79159   0.69298   0.00000  Uiso   1.00
H1448  H     0.35427   0.87480   0.80720   0.00000  Uiso   1.00
C1449  C     0.40471   0.77876   0.68340   0.00000  Uiso   1.00
C1450  C     0.38766   0.73439   0.68675   0.00000  Uiso   1.00
H1451  H     0.37503   0.72478   0.72307   0.00000  Uiso   1.00
H1452  H     0.35814   0.73098   0.67327   0.00000  Uiso   1.00
H1453  H     0.41820   0.71346   0.66532   0.00000  Uiso   1.00
H1454  H     0.41078   0.78919   0.64816   0.00000  Uiso   1.00
H1455  H     0.43981   0.77724   0.68680   0.00000  Uiso   1.00
C1456  C     0.59491   0.88708   0.81746   0.00000  Uiso   1.00
C1457  C     0.61177   0.93147   0.81598   0.00000  Uiso   1.00
H1458  H     0.64125   0.93419   0.82960   0.00000  Uiso   1.00
H1459  H     0.62427   0.94229   0.78014   0.00000  Uiso   1.00
H1460  H     0.58114   0.95195   0.83816   0.00000  Uiso   1.00
H1461  H     0.56021   0.88925   0.81329   0.00000  Uiso   1.00
H1462  H     0.58817   0.87539   0.85242   0.00000  Uiso   1.00
O1463  O     0.79512   0.89442   0.75001   0.00000  Uiso   1.00
O1464  O     0.87154   0.77225   0.75000   0.00000  Uiso   1.00
O1465  O     0.87157   0.89441   0.75000   0.00000  Uiso   1.00
O1466  O     0.79510   0.77226   0.75000   0.00000  Uiso   1.00
C1467  C     0.83259   0.91335   0.75020   0.00000  Uiso   1.00
C1468  C     0.83396   0.75333   0.75016   0.00000  Uiso   1.00
O1469  O     0.77328   0.83334   0.81612   0.00000  Uiso   1.00
O1470  O     0.89339   0.83333   0.68388   0.00000  Uiso   1.00
O1471  O     0.84972   0.83333   0.81612   0.00000  Uiso   1.00
O1472  O     0.81695   0.83334   0.68388   0.00000  Uiso   1.00
C1473  C     0.80312   0.83290   0.83770   0.00000  Uiso   1.00
C1474  C     0.86355   0.83302   0.66225   0.00000  Uiso   1.00
Zn1475 Zn    0.78229   0.83334   0.75000   0.00000  Uiso   1.00
Zn1476 Zn    0.88438   0.83333   0.75000   0.00000  Uiso   1.00
C1477  C     0.78432   0.83041   0.88783   0.00000  Uiso   1.00
C1478  C     0.88180   0.82757   0.61206   0.00000  Uiso   1.00
C1479  C     0.72037   0.84018   0.96288   0.00000  Uiso   1.00
C1480  C     0.93937   0.79737   0.54057   0.00000  Uiso   1.00
C1481  C     0.73567   0.83956   0.91482   0.00000  Uiso   1.00
C1482  C     0.92751   0.80957   0.58695   0.00000  Uiso   1.00
C1483  C     0.81665   0.81945   0.90873   0.00000  Uiso   1.00
C1484  C     0.84918   0.83476   0.59043   0.00000  Uiso   1.00
C1485  C     0.80215   0.81933   0.95676   0.00000  Uiso   1.00
C1486  C     0.85831   0.81927   0.54558   0.00000  Uiso   1.00
C1487  C     0.75358   0.83135   0.98401   0.00000  Uiso   1.00
C1488  C     0.90491   0.80172   0.51982   0.00000  Uiso   1.00
C1489  C     0.83579   0.81086   0.97809   0.00000  Uiso   1.00
C1490  C     0.82235   0.82105   0.52584   0.00000  Uiso   1.00
C1491  C     0.77323   0.83184   0.55241   0.00000  Uiso   1.00
C1492  C     0.88242   0.79294   0.95325   0.00000  Uiso   1.00
C1493  C     0.73928   0.83589   0.53181   0.00000  Uiso   1.00
C1494  C     0.91617   0.78817   0.97404   0.00000  Uiso   1.00
H1495  H     0.70213   0.84442   0.55323   0.00000  Uiso   1.00
H1496  H     0.95138   0.77412   0.95406   0.00000  Uiso   1.00
H1497  H     0.68314   0.84912   0.98345   0.00000  Uiso   1.00
H1498  H     0.97474   0.78325   0.52143   0.00000  Uiso   1.00
H1499  H     0.75951   0.83657   0.58948   0.00000  Uiso   1.00
H1500  H     0.89334   0.78087   0.91804   0.00000  Uiso   1.00
C1501  C     0.87491   0.97661   0.74384   0.00000  Uiso   1.00
C1502  C     0.79129   0.69013   0.75787   0.00000  Uiso   1.00
C1503  C     0.87773   0.68550   0.74490   0.00000  Uiso   1.00
C1504  C     0.78844   0.98123   0.75693   0.00000  Uiso   1.00
C1505  C     0.83502   0.70913   0.75115   0.00000  Uiso   1.00
C1506  C     0.83128   0.95759   0.75012   0.00000  Uiso   1.00
C1507  C     0.98792   0.80970   0.71843   0.00000  Uiso   1.00
C1508  C     0.67873   0.85688   0.78165   0.00000  Uiso   1.00
C1509  C     0.70217   0.80832   0.71881   0.00000  Uiso   1.00
C1510  C     0.96443   0.85819   0.78137   0.00000  Uiso   1.00
N1511  N     0.71426   0.83334   0.75001   0.00000  Uiso   1.00
N1512  N     0.95241   0.83332   0.74999   0.00000  Uiso   1.00
H1513  H     0.81613   0.85189   0.60991   0.00000  Uiso   1.00
H1514  H     0.85395   0.81343   0.88681   0.00000  Uiso   1.00
H1515  H     0.95319   0.80364   0.60346   0.00000  Uiso   1.00
H1516  H     0.71006   0.84771   0.89892   0.00000  Uiso   1.00
H1517  H     0.90757   0.95834   0.73811   0.00000  Uiso   1.00
H1518  H     0.75861   0.70842   0.76381   0.00000  Uiso   1.00
C1519  C     0.92673   0.70270   0.73960   0.00000  Uiso   1.00
C1520  C     0.92831   0.71687   0.78649   0.00000  Uiso   1.00
H1521  H     0.96177   0.73404   0.78120   0.00000  Uiso   1.00
H1522  H     0.89669   0.73719   0.80677   0.00000  Uiso   1.00
H1523  H     0.92841   0.68967   0.80715   0.00000  Uiso   1.00
H1524  H     0.95617   0.67885   0.72424   0.00000  Uiso   1.00
H1525  H     0.93676   0.72733   0.71431   0.00000  Uiso   1.00
C1526  C     0.73926   0.96400   0.76305   0.00000  Uiso   1.00
C1527  C     0.73657   0.95030   0.71647   0.00000  Uiso   1.00
H1528  H     0.76851   0.93082   0.69504   0.00000  Uiso   1.00
H1529  H     0.70353   0.93241   0.72222   0.00000  Uiso   1.00
H1530  H     0.73487   0.97772   0.69671   0.00000  Uiso   1.00
H1531  H     0.72998   0.93906   0.78799   0.00000  Uiso   1.00
H1532  H     0.70985   0.98771   0.77929   0.00000  Uiso   1.00
H1533  H     0.97906   0.79159   0.69298   0.00000  Uiso   1.00
H1534  H     0.68760   0.87480   0.80720   0.00000  Uiso   1.00
C1535  C     0.73804   0.77876   0.68340   0.00000  Uiso   1.00
C1536  C     0.72099   0.73439   0.68675   0.00000  Uiso   1.00
H1537  H     0.70837   0.72478   0.72307   0.00000  Uiso   1.00
H1538  H     0.69148   0.73098   0.67327   0.00000  Uiso   1.00
H1539  H     0.75154   0.71346   0.66532   0.00000  Uiso   1.00
H1540  H     0.74411   0.78919   0.64816   0.00000  Uiso   1.00
H1541  H     0.77314   0.77724   0.68680   0.00000  Uiso   1.00
C1542  C     0.92824   0.88708   0.81746   0.00000  Uiso   1.00
C1543  C     0.94511   0.93147   0.81598   0.00000  Uiso   1.00
H1544  H     0.97458   0.93419   0.82960   0.00000  Uiso   1.00
H1545  H     0.95760   0.94229   0.78014   0.00000  Uiso   1.00
H1546  H     0.91447   0.95195   0.83816   0.00000  Uiso   1.00
H1547  H     0.89354   0.88925   0.81329   0.00000  Uiso   1.00
H1548  H     0.92150   0.87539   0.85242   0.00000  Uiso   1.00
loop_
_geom_bond_atom_site_label_1
_geom_bond_atom_site_label_2
_geom_bond_distance
_geom_bond_site_symmetry_2
_ccdc_geom_bond_type
O1     C5      1.283   .     A
O1     Zn13    2.025   .     S
O2     C6      1.282   .     A
O2     Zn14    2.025   .     S
O3     Zn14    2.013   .     S
O3     C5      1.300   .     A
O4     Zn13    2.013   .     S
O4     C6      1.301   .     A
C5     C44     1.436   .     S
C6     C43     1.436   .     S
O7     C11     1.295   .     A
O7     Zn13    1.973   .     S
O8     Zn14    1.973   .     S
O8     C12     1.296   .     A
O9     Zn14    1.931   .     S
O9     C11     1.299   .     A
O10    C12     1.298   .     A
O10    Zn13    1.931   .     S
C11    C15     1.455   .     S
C12    C16     1.454   .     S
Zn13   N49     2.022   .     S
Zn14   N50     2.022   .     S
C15    C19     1.400   .     A
C15    C21     1.392   .     A
C16    C20     1.400   .     A
C16    C22     1.389   .     A
C17    C25     1.403   .     A
C17    C19     1.392   .     A
C17    H35     1.083   .     S
C18    C26     1.405   .     A
C18    C20     1.394   .     A
C18    H36     1.084   .     S
C19    H54     1.083   .     S
C20    H53     1.083   .     S
C21    C23     1.394   .     A
C21    H52     1.077   .     S
C22    C24     1.393   .     A
C22    H51     1.078   .     S
C23    C27     1.417   .     A
C23    C25     1.419   .     A
C24    C26     1.418   .     A
C24    C28     1.417   .     A
C25    C805    1.389   .     S
C26    C806    1.390   1_554 S
C27    C30     1.418   .     A
C27    C802    1.414   .     S
C28    C29     1.419   .     A
C28    C801    1.414   1_554 S
C29    C31     1.387   .     A
C29    H37     1.076   .     S
C30    H38     1.078   .     S
C30    C32     1.388   .     A
C31    H33     1.084   .     S
C31    C799    1.389   1_554 S
C32    H34     1.084   .     S
C32    C800    1.390   .     S
C39    H55     1.082   .     S
C39    C44     1.396   .     A
C39    C299    1.375   .     S
C40    C43     1.396   .     A
C40    H56     1.082   .     S
C40    C558    1.375   1_545 S
C41    C43     1.419   .     A
C41    C57     1.522   .     S
C41    C555    1.375   1_545 S
C42    C44     1.419   .     A
C42    C64     1.522   .     S
C42    C298    1.375   .     S
C45    H71     1.081   .     S
C45    N50     1.351   .     A
C45    C133    1.419   .     S
C46    N49     1.351   .     A
C46    H72     1.081   .     S
C46    C220    1.419   1_455 S
C47    C73     1.517   .     S
C47    N49     1.394   .     A
C47    C217    1.419   1_455 S
C48    N50     1.395   .     A
C48    C80     1.518   .     S
C48    C132    1.419   .     S
C57    H62     1.113   .     S
C57    H63     1.106   .     S
C57    C58     1.531   .     S
C58    H60     1.109   .     S
C58    H61     1.110   .     S
C58    H59     1.110   .     S
C64    H69     1.107   .     S
C64    H70     1.113   .     S
C64    C65     1.531   .     S
C65    H67     1.109   .     S
C65    H68     1.109   .     S
C65    H66     1.109   .     S
C73    C74     1.529   .     S
C73    H78     1.109   .     S
C73    H79     1.087   .     S
C74    H76     1.108   .     S
C74    H77     1.111   .     S
C74    H75     1.108   .     S
C80    H86     1.111   .     S
C80    C81     1.530   .     S
C80    H85     1.087   .     S
C81    H82     1.108   .     S
C81    H83     1.108   .     S
C81    H84     1.111   .     S
O87    C91     1.283   .     A
O87    Zn99    2.025   .     S
O88    C92     1.282   .     A
O88    Zn100   2.025   .     S
O89    Zn100   2.013   .     S
O89    C91     1.300   .     A
O90    Zn99    2.013   .     S
O90    C92     1.301   .     A
C91    C130    1.436   .     S
C92    C129    1.436   .     S
O93    C97     1.295   .     A
O93    Zn99    1.973   .     S
O94    Zn100   1.973   .     S
O94    C98     1.296   .     A
O95    Zn100   1.931   .     S
O95    C97     1.299   .     A
O96    C98     1.298   .     A
O96    Zn99    1.931   .     S
C97    C101    1.455   .     S
C98    C102    1.454   .     S
Zn99   N135    2.022   .     S
Zn100  N136    2.022   .     S
C101   C105    1.400   .     A
C101   C107    1.392   .     A
C102   C106    1.400   .     A
C102   C108    1.389   .     A
C103   C111    1.403   .     A
C103   C105    1.392   .     A
C103   H121    1.083   .     S
C104   C112    1.405   .     A
C104   C106    1.394   .     A
C104   H122    1.084   .     S
C105   H140    1.083   .     S
C106   H139    1.083   .     S
C107   C109    1.394   .     A
C107   H138    1.077   .     S
C108   C110    1.393   .     A
C108   H137    1.078   .     S
C109   C113    1.417   .     A
C109   C111    1.419   .     A
C110   C112    1.418   .     A
C110   C114    1.417   .     A
C111   C891    1.389   .     S
C112   C892    1.390   1_554 S
C113   C116    1.418   .     A
C113   C888    1.414   .     S
C114   C115    1.419   .     A
C114   C887    1.414   1_554 S
C115   C117    1.387   .     A
C115   H123    1.076   .     S
C116   H124    1.078   .     S
C116   C118    1.388   .     A
C117   H119    1.084   .     S
C117   C885    1.389   1_554 S
C118   H120    1.084   .     S
C118   C886    1.390   .     S
C125   H141    1.082   .     S
C125   C130    1.396   .     A
C125   C385    1.375   .     S
C126   C129    1.396   .     A
C126   H142    1.082   .     S
C126   C644    1.375   1_545 S
C127   C129    1.419   .     A
C127   C143    1.522   .     S
C127   C641    1.375   1_545 S
C128   C130    1.419   .     A
C128   C150    1.522   .     S
C128   C384    1.375   .     S
C131   H157    1.081   .     S
C131   N136    1.351   .     A
C131   C219    1.419   .     S
C132   N135    1.351   .     A
C132   H158    1.081   .     S
C133   C159    1.517   .     S
C133   N135    1.394   .     A
C134   N136    1.395   .     A
C134   C166    1.518   .     S
C134   C218    1.419   .     S
C143   H148    1.113   .     S
C143   H149    1.106   .     S
C143   C144    1.531   .     S
C144   H146    1.109   .     S
C144   H147    1.110   .     S
C144   H145    1.110   .     S
C150   H155    1.107   .     S
C150   H156    1.113   .     S
C150   C151    1.531   .     S
C151   H153    1.109   .     S
C151   H154    1.109   .     S
C151   H152    1.109   .     S
C159   C160    1.529   .     S
C159   H164    1.109   .     S
C159   H165    1.087   .     S
C160   H162    1.108   .     S
C160   H163    1.111   .     S
C160   H161    1.108   .     S
C166   H172    1.111   .     S
C166   C167    1.530   .     S
C166   H171    1.087   .     S
C167   H168    1.108   .     S
C167   H169    1.108   .     S
C167   H170    1.111   .     S
O173   C177    1.283   .     A
O173   Zn185   2.025   .     S
O174   C178    1.282   .     A
O174   Zn186   2.025   .     S
O175   Zn186   2.013   .     S
O175   C177    1.300   .     A
O176   Zn185   2.013   .     S
O176   C178    1.301   .     A
C177   C216    1.436   .     S
C178   C215    1.436   .     S
O179   C183    1.295   .     A
O179   Zn185   1.973   .     S
O180   Zn186   1.973   .     S
O180   C184    1.296   .     A
O181   Zn186   1.931   .     S
O181   C183    1.299   .     A
O182   C184    1.298   .     A
O182   Zn185   1.931   .     S
C183   C187    1.455   .     S
C184   C188    1.454   .     S
Zn185  N221    2.022   .     S
Zn186  N222    2.022   .     S
C187   C191    1.400   .     A
C187   C193    1.392   .     A
C188   C192    1.400   .     A
C188   C194    1.389   .     A
C189   C197    1.403   .     A
C189   C191    1.392   .     A
C189   H207    1.083   .     S
C190   C198    1.405   .     A
C190   C192    1.394   .     A
C190   H208    1.084   .     S
C191   H226    1.083   .     S
C192   H225    1.083   .     S
C193   C195    1.394   .     A
C193   H224    1.077   .     S
C194   C196    1.393   .     A
C194   H223    1.078   .     S
C195   C199    1.417   .     A
C195   C197    1.419   .     A
C196   C198    1.418   .     A
C196   C200    1.417   .     A
C197   C977    1.389   .     S
C198   C978    1.390   1_554 S
C199   C202    1.418   .     A
C199   C974    1.414   .     S
C200   C201    1.419   .     A
C200   C973    1.414   1_554 S
C201   C203    1.387   .     A
C201   H209    1.076   .     S
C202   H210    1.078   .     S
C202   C204    1.388   .     A
C203   H205    1.084   .     S
C203   C971    1.389   1_554 S
C204   H206    1.084   .     S
C204   C972    1.390   .     S
C211   H227    1.082   .     S
C211   C216    1.396   .     A
C211   C471    1.375   .     S
C212   C215    1.396   .     A
C212   H228    1.082   .     S
C212   C730    1.375   1_545 S
C213   C215    1.419   .     A
C213   C229    1.522   .     S
C213   C727    1.375   1_545 S
C214   C216    1.419   .     A
C214   C236    1.522   .     S
C214   C470    1.375   .     S
C217   H243    1.081   .     S
C217   N222    1.351   .     A
C217   C47     1.419   1_655 S
C218   N221    1.351   .     A
C218   H244    1.081   .     S
C219   C245    1.517   .     S
C219   N221    1.394   .     A
C220   N222    1.395   .     A
C220   C252    1.518   .     S
C220   C46     1.419   1_655 S
C229   H234    1.113   .     S
C229   H235    1.106   .     S
C229   C230    1.531   .     S
C230   H232    1.109   .     S
C230   H233    1.110   .     S
C230   H231    1.110   .     S
C236   H241    1.107   .     S
C236   H242    1.113   .     S
C236   C237    1.531   .     S
C237   H239    1.109   .     S
C237   H240    1.109   .     S
C237   H238    1.109   .     S
C245   C246    1.529   .     S
C245   H250    1.109   .     S
C245   H251    1.087   .     S
C246   H248    1.108   .     S
C246   H249    1.111   .     S
C246   H247    1.108   .     S
C252   H258    1.111   .     S
C252   C253    1.530   .     S
C252   H257    1.087   .     S
C253   H254    1.108   .     S
C253   H255    1.108   .     S
C253   H256    1.111   .     S
O259   C263    1.283   .     A
O259   Zn271   2.025   .     S
O260   C264    1.282   .     A
O260   Zn272   2.025   .     S
O261   Zn272   2.013   .     S
O261   C263    1.300   .     A
O262   Zn271   2.013   .     S
O262   C264    1.301   .     A
C263   C302    1.436   .     S
C264   C301    1.436   .     S
O265   C269    1.295   .     A
O265   Zn271   1.973   .     S
O266   Zn272   1.973   .     S
O266   C270    1.296   .     A
O267   Zn272   1.931   .     S
O267   C269    1.299   .     A
O268   C270    1.298   .     A
O268   Zn271   1.931   .     S
C269   C273    1.455   .     S
C270   C274    1.454   .     S
Zn271  N307    2.022   .     S
Zn272  N308    2.022   .     S
C273   C277    1.400   .     A
C273   C279    1.392   .     A
C274   C278    1.400   .     A
C274   C280    1.389   .     A
C275   C283    1.403   .     A
C275   C277    1.392   .     A
C275   H293    1.083   .     S
C276   C284    1.405   .     A
C276   C278    1.394   .     A
C276   H294    1.084   .     S
C277   H312    1.083   .     S
C278   H311    1.083   .     S
C279   C281    1.394   .     A
C279   H310    1.077   .     S
C280   C282    1.393   .     A
C280   H309    1.078   .     S
C281   C285    1.417   .     A
C281   C283    1.419   .     A
C282   C284    1.418   .     A
C282   C286    1.417   .     A
C283   C1063   1.389   .     S
C284   C1064   1.390   1_554 S
C285   C288    1.418   .     A
C285   C1060   1.414   .     S
C286   C287    1.419   .     A
C286   C1059   1.414   1_554 S
C287   C289    1.387   .     A
C287   H295    1.076   .     S
C288   H296    1.078   .     S
C288   C290    1.388   .     A
C289   H291    1.084   .     S
C289   C1057   1.389   1_554 S
C290   H292    1.084   .     S
C290   C1058   1.390   .     S
C297   H313    1.082   .     S
C297   C302    1.396   .     A
C297   C557    1.375   .     S
C298   C301    1.396   .     A
C298   H314    1.082   .     S
C299   C301    1.419   .     A
C299   C315    1.522   .     S
C300   C302    1.419   .     A
C300   C322    1.522   .     S
C300   C556    1.375   .     S
C303   H329    1.081   .     S
C303   N308    1.351   .     A
C303   C391    1.419   .     S
C304   N307    1.351   .     A
C304   H330    1.081   .     S
C304   C478    1.419   1_455 S
C305   C331    1.517   .     S
C305   N307    1.394   .     A
C305   C475    1.419   1_455 S
C306   N308    1.395   .     A
C306   C338    1.518   .     S
C306   C390    1.419   .     S
C315   H320    1.113   .     S
C315   H321    1.106   .     S
C315   C316    1.531   .     S
C316   H318    1.109   .     S
C316   H319    1.110   .     S
C316   H317    1.110   .     S
C322   H327    1.107   .     S
C322   H328    1.113   .     S
C322   C323    1.531   .     S
C323   H325    1.109   .     S
C323   H326    1.109   .     S
C323   H324    1.109   .     S
C331   C332    1.529   .     S
C331   H336    1.109   .     S
C331   H337    1.087   .     S
C332   H334    1.108   .     S
C332   H335    1.111   .     S
C332   H333    1.108   .     S
C338   H344    1.111   .     S
C338   C339    1.530   .     S
C338   H343    1.087   .     S
C339   H340    1.108   .     S
C339   H341    1.108   .     S
C339   H342    1.111   .     S
O345   C349    1.283   .     A
O345   Zn357   2.025   .     S
O346   C350    1.282   .     A
O346   Zn358   2.025   .     S
O347   Zn358   2.013   .     S
O347   C349    1.300   .     A
O348   Zn357   2.013   .     S
O348   C350    1.301   .     A
C349   C388    1.436   .     S
C350   C387    1.436   .     S
O351   C355    1.295   .     A
O351   Zn357   1.973   .     S
O352   Zn358   1.973   .     S
O352   C356    1.296   .     A
O353   Zn358   1.931   .     S
O353   C355    1.299   .     A
O354   C356    1.298   .     A
O354   Zn357   1.931   .     S
C355   C359    1.455   .     S
C356   C360    1.454   .     S
Zn357  N393    2.022   .     S
Zn358  N394    2.022   .     S
C359   C363    1.400   .     A
C359   C365    1.392   .     A
C360   C364    1.400   .     A
C360   C366    1.389   .     A
C361   C369    1.403   .     A
C361   C363    1.392   .     A
C361   H379    1.083   .     S
C362   C370    1.405   .     A
C362   C364    1.394   .     A
C362   H380    1.084   .     S
C363   H398    1.083   .     S
C364   H397    1.083   .     S
C365   C367    1.394   .     A
C365   H396    1.077   .     S
C366   C368    1.393   .     A
C366   H395    1.078   .     S
C367   C371    1.417   .     A
C367   C369    1.419   .     A
C368   C370    1.418   .     A
C368   C372    1.417   .     A
C369   C1149   1.389   .     S
C370   C1150   1.390   1_554 S
C371   C374    1.418   .     A
C371   C1146   1.414   .     S
C372   C373    1.419   .     A
C372   C1145   1.414   1_554 S
C373   C375    1.387   .     A
C373   H381    1.076   .     S
C374   H382    1.078   .     S
C374   C376    1.388   .     A
C375   H377    1.084   .     S
C375   C1143   1.389   1_554 S
C376   H378    1.084   .     S
C376   C1144   1.390   .     S
C383   H399    1.082   .     S
C383   C388    1.396   .     A
C383   C643    1.375   .     S
C384   C387    1.396   .     A
C384   H400    1.082   .     S
C385   C387    1.419   .     A
C385   C401    1.522   .     S
C386   C388    1.419   .     A
C386   C408    1.522   .     S
C386   C642    1.375   .     S
C389   H415    1.081   .     S
C389   N394    1.351   .     A
C389   C477    1.419   .     S
C390   N393    1.351   .     A
C390   H416    1.081   .     S
C391   C417    1.517   .     S
C391   N393    1.394   .     A
C392   N394    1.395   .     A
C392   C424    1.518   .     S
C392   C476    1.419   .     S
C401   H406    1.113   .     S
C401   H407    1.106   .     S
C401   C402    1.531   .     S
C402   H404    1.109   .     S
C402   H405    1.110   .     S
C402   H403    1.110   .     S
C408   H413    1.107   .     S
C408   H414    1.113   .     S
C408   C409    1.531   .     S
C409   H411    1.109   .     S
C409   H412    1.109   .     S
C409   H410    1.109   .     S
C417   C418    1.529   .     S
C417   H422    1.109   .     S
C417   H423    1.087   .     S
C418   H420    1.108   .     S
C418   H421    1.111   .     S
C418   H419    1.108   .     S
C424   H430    1.111   .     S
C424   C425    1.530   .     S
C424   H429    1.087   .     S
C425   H426    1.108   .     S
C425   H427    1.108   .     S
C425   H428    1.111   .     S
O431   C435    1.283   .     A
O431   Zn443   2.025   .     S
O432   C436    1.282   .     A
O432   Zn444   2.025   .     S
O433   Zn444   2.013   .     S
O433   C435    1.300   .     A
O434   Zn443   2.013   .     S
O434   C436    1.301   .     A
C435   C474    1.436   .     S
C436   C473    1.436   .     S
O437   C441    1.295   .     A
O437   Zn443   1.973   .     S
O438   Zn444   1.973   .     S
O438   C442    1.296   .     A
O439   Zn444   1.931   .     S
O439   C441    1.299   .     A
O440   C442    1.298   .     A
O440   Zn443   1.931   .     S
C441   C445    1.455   .     S
C442   C446    1.454   .     S
Zn443  N479    2.022   .     S
Zn444  N480    2.022   .     S
C445   C449    1.400   .     A
C445   C451    1.392   .     A
C446   C450    1.400   .     A
C446   C452    1.389   .     A
C447   C455    1.403   .     A
C447   C449    1.392   .     A
C447   H465    1.083   .     S
C448   C456    1.405   .     A
C448   C450    1.394   .     A
C448   H466    1.084   .     S
C449   H484    1.083   .     S
C450   H483    1.083   .     S
C451   C453    1.394   .     A
C451   H482    1.077   .     S
C452   C454    1.393   .     A
C452   H481    1.078   .     S
C453   C457    1.417   .     A
C453   C455    1.419   .     A
C454   C456    1.418   .     A
C454   C458    1.417   .     A
C455   C1235   1.389   .     S
C456   C1236   1.390   1_554 S
C457   C460    1.418   .     A
C457   C1232   1.414   .     S
C458   C459    1.419   .     A
C458   C1231   1.414   1_554 S
C459   C461    1.387   .     A
C459   H467    1.076   .     S
C460   H468    1.078   .     S
C460   C462    1.388   .     A
C461   H463    1.084   .     S
C461   C1229   1.389   1_554 S
C462   H464    1.084   .     S
C462   C1230   1.390   .     S
C469   H485    1.082   .     S
C469   C474    1.396   .     A
C469   C729    1.375   .     S
C470   C473    1.396   .     A
C470   H486    1.082   .     S
C471   C473    1.419   .     A
C471   C487    1.522   .     S
C472   C474    1.419   .     A
C472   C494    1.522   .     S
C472   C728    1.375   .     S
C475   H501    1.081   .     S
C475   N480    1.351   .     A
C475   C305    1.419   1_655 S
C476   N479    1.351   .     A
C476   H502    1.081   .     S
C477   C503    1.517   .     S
C477   N479    1.394   .     A
C478   N480    1.395   .     A
C478   C510    1.518   .     S
C478   C304    1.419   1_655 S
C487   H492    1.113   .     S
C487   H493    1.106   .     S
C487   C488    1.531   .     S
C488   H490    1.109   .     S
C488   H491    1.110   .     S
C488   H489    1.110   .     S
C494   H499    1.107   .     S
C494   H500    1.113   .     S
C494   C495    1.531   .     S
C495   H497    1.109   .     S
C495   H498    1.109   .     S
C495   H496    1.109   .     S
C503   C504    1.529   .     S
C503   H508    1.109   .     S
C503   H509    1.087   .     S
C504   H506    1.108   .     S
C504   H507    1.111   .     S
C504   H505    1.108   .     S
C510   H516    1.111   .     S
C510   C511    1.530   .     S
C510   H515    1.087   .     S
C511   H512    1.108   .     S
C511   H513    1.108   .     S
C511   H514    1.111   .     S
O517   C521    1.283   .     A
O517   Zn529   2.025   .     S
O518   C522    1.282   .     A
O518   Zn530   2.025   .     S
O519   Zn530   2.013   .     S
O519   C521    1.300   .     A
O520   Zn529   2.013   .     S
O520   C522    1.301   .     A
C521   C560    1.436   .     S
C522   C559    1.436   .     S
O523   C527    1.295   .     A
O523   Zn529   1.973   .     S
O524   Zn530   1.973   .     S
O524   C528    1.296   .     A
O525   Zn530   1.931   .     S
O525   C527    1.299   .     A
O526   C528    1.298   .     A
O526   Zn529   1.931   .     S
C527   C531    1.455   .     S
C528   C532    1.454   .     S
Zn529  N565    2.022   .     S
Zn530  N566    2.022   .     S
C531   C535    1.400   .     A
C531   C537    1.392   .     A
C532   C536    1.400   .     A
C532   C538    1.389   .     A
C533   C541    1.403   .     A
C533   C535    1.392   .     A
C533   H551    1.083   .     S
C534   C542    1.405   .     A
C534   C536    1.394   .     A
C534   H552    1.084   .     S
C535   H570    1.083   .     S
C536   H569    1.083   .     S
C537   C539    1.394   .     A
C537   H568    1.077   .     S
C538   C540    1.393   .     A
C538   H567    1.078   .     S
C539   C543    1.417   .     A
C539   C541    1.419   .     A
C540   C542    1.418   .     A
C540   C544    1.417   .     A
C541   C1321   1.389   .     S
C542   C1322   1.390   1_554 S
C543   C546    1.418   .     A
C543   C1318   1.414   .     S
C544   C545    1.419   .     A
C544   C1317   1.414   1_554 S
C545   C547    1.387   .     A
C545   H553    1.076   .     S
C546   H554    1.078   .     S
C546   C548    1.388   .     A
C547   H549    1.084   .     S
C547   C1315   1.389   1_554 S
C548   H550    1.084   .     S
C548   C1316   1.390   .     S
C555   H571    1.082   .     S
C555   C560    1.396   .     A
C555   C41     1.375   1_565 S
C556   C559    1.396   .     A
C556   H572    1.082   .     S
C557   C559    1.419   .     A
C557   C573    1.522   .     S
C558   C560    1.419   .     A
C558   C580    1.522   .     S
C558   C40     1.375   1_565 S
C561   H587    1.081   .     S
C561   N566    1.351   .     A
C561   C649    1.419   .     S
C562   N565    1.351   .     A
C562   H588    1.081   .     S
C562   C736    1.419   1_455 S
C563   C589    1.517   .     S
C563   N565    1.394   .     A
C563   C733    1.419   1_455 S
C564   N566    1.395   .     A
C564   C596    1.518   .     S
C564   C648    1.419   .     S
C573   H578    1.113   .     S
C573   H579    1.106   .     S
C573   C574    1.531   .     S
C574   H576    1.109   .     S
C574   H577    1.110   .     S
C574   H575    1.110   .     S
C580   H585    1.107   .     S
C580   H586    1.113   .     S
C580   C581    1.531   .     S
C581   H583    1.109   .     S
C581   H584    1.109   .     S
C581   H582    1.109   .     S
C589   C590    1.529   .     S
C589   H594    1.109   .     S
C589   H595    1.087   .     S
C590   H592    1.108   .     S
C590   H593    1.111   .     S
C590   H591    1.108   .     S
C596   H602    1.111   .     S
C596   C597    1.530   .     S
C596   H601    1.087   .     S
C597   H598    1.108   .     S
C597   H599    1.108   .     S
C597   H600    1.111   .     S
O603   C607    1.283   .     A
O603   Zn615   2.025   .     S
O604   C608    1.282   .     A
O604   Zn616   2.025   .     S
O605   Zn616   2.013   .     S
O605   C607    1.300   .     A
O606   Zn615   2.013   .     S
O606   C608    1.301   .     A
C607   C646    1.436   .     S
C608   C645    1.436   .     S
O609   C613    1.295   .     A
O609   Zn615   1.973   .     S
O610   Zn616   1.973   .     S
O610   C614    1.296   .     A
O611   Zn616   1.931   .     S
O611   C613    1.299   .     A
O612   C614    1.298   .     A
O612   Zn615   1.931   .     S
C613   C617    1.455   .     S
C614   C618    1.454   .     S
Zn615  N651    2.022   .     S
Zn616  N652    2.022   .     S
C617   C621    1.400   .     A
C617   C623    1.392   .     A
C618   C622    1.400   .     A
C618   C624    1.389   .     A
C619   C627    1.403   .     A
C619   C621    1.392   .     A
C619   H637    1.083   .     S
C620   C628    1.405   .     A
C620   C622    1.394   .     A
C620   H638    1.084   .     S
C621   H656    1.083   .     S
C622   H655    1.083   .     S
C623   C625    1.394   .     A
C623   H654    1.077   .     S
C624   C626    1.393   .     A
C624   H653    1.078   .     S
C625   C629    1.417   .     A
C625   C627    1.419   .     A
C626   C628    1.418   .     A
C626   C630    1.417   .     A
C627   C1407   1.389   .     S
C628   C1408   1.390   1_554 S
C629   C632    1.418   .     A
C629   C1404   1.414   .     S
C630   C631    1.419   .     A
C630   C1403   1.414   1_554 S
C631   C633    1.387   .     A
C631   H639    1.076   .     S
C632   H640    1.078   .     S
C632   C634    1.388   .     A
C633   H635    1.084   .     S
C633   C1401   1.389   1_554 S
C634   H636    1.084   .     S
C634   C1402   1.390   .     S
C641   H657    1.082   .     S
C641   C646    1.396   .     A
C641   C127    1.375   1_565 S
C642   C645    1.396   .     A
C642   H658    1.082   .     S
C643   C645    1.419   .     A
C643   C659    1.522   .     S
C644   C646    1.419   .     A
C644   C666    1.522   .     S
C644   C126    1.375   1_565 S
C647   H673    1.081   .     S
C647   N652    1.351   .     A
C647   C735    1.419   .     S
C648   N651    1.351   .     A
C648   H674    1.081   .     S
C649   C675    1.517   .     S
C649   N651    1.394   .     A
C650   N652    1.395   .     A
C650   C682    1.518   .     S
C650   C734    1.419   .     S
C659   H664    1.113   .     S
C659   H665    1.106   .     S
C659   C660    1.531   .     S
C660   H662    1.109   .     S
C660   H663    1.110   .     S
C660   H661    1.110   .     S
C666   H671    1.107   .     S
C666   H672    1.113   .     S
C666   C667    1.531   .     S
C667   H669    1.109   .     S
C667   H670    1.109   .     S
C667   H668    1.109   .     S
C675   C676    1.529   .     S
C675   H680    1.109   .     S
C675   H681    1.087   .     S
C676   H678    1.108   .     S
C676   H679    1.111   .     S
C676   H677    1.108   .     S
C682   H688    1.111   .     S
C682   C683    1.530   .     S
C682   H687    1.087   .     S
C683   H684    1.108   .     S
C683   H685    1.108   .     S
C683   H686    1.111   .     S
O689   C693    1.283   .     A
O689   Zn701   2.025   .     S
O690   C694    1.282   .     A
O690   Zn702   2.025   .     S
O691   Zn702   2.013   .     S
O691   C693    1.300   .     A
O692   Zn701   2.013   .     S
O692   C694    1.301   .     A
C693   C732    1.436   .     S
C694   C731    1.436   .     S
O695   C699    1.295   .     A
O695   Zn701   1.973   .     S
O696   Zn702   1.973   .     S
O696   C700    1.296   .     A
O697   Zn702   1.931   .     S
O697   C699    1.299   .     A
O698   C700    1.298   .     A
O698   Zn701   1.931   .     S
C699   C703    1.455   .     S
C700   C704    1.454   .     S
Zn701  N737    2.022   .     S
Zn702  N738    2.022   .     S
C703   C707    1.400   .     A
C703   C709    1.392   .     A
C704   C708    1.400   .     A
C704   C710    1.389   .     A
C705   C713    1.403   .     A
C705   C707    1.392   .     A
C705   H723    1.083   .     S
C706   C714    1.405   .     A
C706   C708    1.394   .     A
C706   H724    1.084   .     S
C707   H742    1.083   .     S
C708   H741    1.083   .     S
C709   C711    1.394   .     A
C709   H740    1.077   .     S
C710   C712    1.393   .     A
C710   H739    1.078   .     S
C711   C715    1.417   .     A
C711   C713    1.419   .     A
C712   C714    1.418   .     A
C712   C716    1.417   .     A
C713   C1493   1.389   .     S
C714   C1494   1.390   1_554 S
C715   C718    1.418   .     A
C715   C1490   1.414   .     S
C716   C717    1.419   .     A
C716   C1489   1.414   1_554 S
C717   C719    1.387   .     A
C717   H725    1.076   .     S
C718   H726    1.078   .     S
C718   C720    1.388   .     A
C719   H721    1.084   .     S
C719   C1487   1.389   1_554 S
C720   H722    1.084   .     S
C720   C1488   1.390   .     S
C727   H743    1.082   .     S
C727   C732    1.396   .     A
C727   C213    1.375   1_565 S
C728   C731    1.396   .     A
C728   H744    1.082   .     S
C729   C731    1.419   .     A
C729   C745    1.522   .     S
C730   C732    1.419   .     A
C730   C752    1.522   .     S
C730   C212    1.375   1_565 S
C733   H759    1.081   .     S
C733   N738    1.351   .     A
C733   C563    1.419   1_655 S
C734   N737    1.351   .     A
C734   H760    1.081   .     S
C735   C761    1.517   .     S
C735   N737    1.394   .     A
C736   N738    1.395   .     A
C736   C768    1.518   .     S
C736   C562    1.419   1_655 S
C745   H750    1.113   .     S
C745   H751    1.106   .     S
C745   C746    1.531   .     S
C746   H748    1.109   .     S
C746   H749    1.110   .     S
C746   H747    1.110   .     S
C752   H757    1.107   .     S
C752   H758    1.113   .     S
C752   C753    1.531   .     S
C753   H755    1.109   .     S
C753   H756    1.109   .     S
C753   H754    1.109   .     S
C761   C762    1.529   .     S
C761   H766    1.109   .     S
C761   H767    1.087   .     S
C762   H764    1.108   .     S
C762   H765    1.111   .     S
C762   H763    1.108   .     S
C768   H774    1.111   .     S
C768   C769    1.530   .     S
C768   H773    1.087   .     S
C769   H770    1.108   .     S
C769   H771    1.108   .     S
C769   H772    1.111   .     S
O775   C779    1.283   .     A
O775   Zn787   2.025   .     S
O776   C780    1.282   .     A
O776   Zn788   2.025   .     S
O777   Zn788   2.013   .     S
O777   C779    1.300   .     A
O778   Zn787   2.013   .     S
O778   C780    1.301   .     A
C779   C818    1.436   .     S
C780   C817    1.436   .     S
O781   C785    1.295   .     A
O781   Zn787   1.973   .     S
O782   Zn788   1.973   .     S
O782   C786    1.296   .     A
O783   Zn788   1.931   .     S
O783   C785    1.299   .     A
O784   C786    1.298   .     A
O784   Zn787   1.931   .     S
C785   C789    1.455   .     S
C786   C790    1.454   .     S
Zn787  N823    2.022   .     S
Zn788  N824    2.022   .     S
C789   C793    1.400   .     A
C789   C795    1.392   .     A
C790   C794    1.400   .     A
C790   C796    1.389   .     A
C791   C799    1.403   .     A
C791   C793    1.392   .     A
C791   H809    1.083   .     S
C792   C800    1.405   .     A
C792   C794    1.394   .     A
C792   H810    1.084   .     S
C793   H828    1.083   .     S
C794   H827    1.083   .     S
C795   C797    1.394   .     A
C795   H826    1.077   .     S
C796   C798    1.393   .     A
C796   H825    1.078   .     S
C797   C801    1.417   .     A
C797   C799    1.419   .     A
C798   C800    1.418   .     A
C798   C802    1.417   .     A
C799   C31     1.389   1_556 S
C801   C804    1.418   .     A
C801   C28     1.414   1_556 S
C802   C803    1.419   .     A
C803   C805    1.387   .     A
C803   H811    1.076   .     S
C804   H812    1.078   .     S
C804   C806    1.388   .     A
C805   H807    1.084   .     S
C806   H808    1.084   .     S
C806   C26     1.390   1_556 S
C813   H829    1.082   .     S
C813   C818    1.396   .     A
C813   C1073   1.375   .     S
C814   C817    1.396   .     A
C814   H830    1.082   .     S
C814   C1332   1.375   1_545 S
C815   C817    1.419   .     A
C815   C831    1.522   .     S
C815   C1329   1.375   1_545 S
C816   C818    1.419   .     A
C816   C838    1.522   .     S
C816   C1072   1.375   .     S
C819   H845    1.081   .     S
C819   N824    1.351   .     A
C819   C907    1.419   .     S
C820   N823    1.351   .     A
C820   H846    1.081   .     S
C820   C994    1.419   1_455 S
C821   C847    1.517   .     S
C821   N823    1.394   .     A
C821   C991    1.419   1_455 S
C822   N824    1.395   .     A
C822   C854    1.518   .     S
C822   C906    1.419   .     S
C831   H836    1.113   .     S
C831   H837    1.106   .     S
C831   C832    1.531   .     S
C832   H834    1.109   .     S
C832   H835    1.110   .     S
C832   H833    1.110   .     S
C838   H843    1.107   .     S
C838   H844    1.113   .     S
C838   C839    1.531   .     S
C839   H841    1.109   .     S
C839   H842    1.109   .     S
C839   H840    1.109   .     S
C847   C848    1.529   .     S
C847   H852    1.109   .     S
C847   H853    1.087   .     S
C848   H850    1.108   .     S
C848   H851    1.111   .     S
C848   H849    1.108   .     S
C854   H860    1.111   .     S
C854   C855    1.530   .     S
C854   H859    1.087   .     S
C855   H856    1.108   .     S
C855   H857    1.108   .     S
C855   H858    1.111   .     S
O861   C865    1.283   .     A
O861   Zn873   2.025   .     S
O862   C866    1.282   .     A
O862   Zn874   2.025   .     S
O863   Zn874   2.013   .     S
O863   C865    1.300   .     A
O864   Zn873   2.013   .     S
O864   C866    1.301   .     A
C865   C904    1.436   .     S
C866   C903    1.436   .     S
O867   C871    1.295   .     A
O867   Zn873   1.973   .     S
O868   Zn874   1.973   .     S
O868   C872    1.296   .     A
O869   Zn874   1.931   .     S
O869   C871    1.299   .     A
O870   C872    1.298   .     A
O870   Zn873   1.931   .     S
C871   C875    1.455   .     S
C872   C876    1.454   .     S
Zn873  N909    2.022   .     S
Zn874  N910    2.022   .     S
C875   C879    1.400   .     A
C875   C881    1.392   .     A
C876   C880    1.400   .     A
C876   C882    1.389   .     A
C877   C885    1.403   .     A
C877   C879    1.392   .     A
C877   H895    1.083   .     S
C878   C886    1.405   .     A
C878   C880    1.394   .     A
C878   H896    1.084   .     S
C879   H914    1.083   .     S
C880   H913    1.083   .     S
C881   C883    1.394   .     A
C881   H912    1.077   .     S
C882   C884    1.393   .     A
C882   H911    1.078   .     S
C883   C887    1.417   .     A
C883   C885    1.419   .     A
C884   C886    1.418   .     A
C884   C888    1.417   .     A
C885   C117    1.389   1_556 S
C887   C890    1.418   .     A
C887   C114    1.414   1_556 S
C888   C889    1.419   .     A
C889   C891    1.387   .     A
C889   H897    1.076   .     S
C890   H898    1.078   .     S
C890   C892    1.388   .     A
C891   H893    1.084   .     S
C892   H894    1.084   .     S
C892   C112    1.390   1_556 S
C899   H915    1.082   .     S
C899   C904    1.396   .     A
C899   C1159   1.375   .     S
C900   C903    1.396   .     A
C900   H916    1.082   .     S
C900   C1418   1.375   1_545 S
C901   C903    1.419   .     A
C901   C917    1.522   .     S
C901   C1415   1.375   1_545 S
C902   C904    1.419   .     A
C902   C924    1.522   .     S
C902   C1158   1.375   .     S
C905   H931    1.081   .     S
C905   N910    1.351   .     A
C905   C993    1.419   .     S
C906   N909    1.351   .     A
C906   H932    1.081   .     S
C907   C933    1.517   .     S
C907   N909    1.394   .     A
C908   N910    1.395   .     A
C908   C940    1.518   .     S
C908   C992    1.419   .     S
C917   H922    1.113   .     S
C917   H923    1.106   .     S
C917   C918    1.531   .     S
C918   H920    1.109   .     S
C918   H921    1.110   .     S
C918   H919    1.110   .     S
C924   H929    1.107   .     S
C924   H930    1.113   .     S
C924   C925    1.531   .     S
C925   H927    1.109   .     S
C925   H928    1.109   .     S
C925   H926    1.109   .     S
C933   C934    1.529   .     S
C933   H938    1.109   .     S
C933   H939    1.087   .     S
C934   H936    1.108   .     S
C934   H937    1.111   .     S
C934   H935    1.108   .     S
C940   H946    1.111   .     S
C940   C941    1.530   .     S
C940   H945    1.087   .     S
C941   H942    1.108   .     S
C941   H943    1.108   .     S
C941   H944    1.111   .     S
O947   C951    1.283   .     A
O947   Zn959   2.025   .     S
O948   C952    1.282   .     A
O948   Zn960   2.025   .     S
O949   Zn960   2.013   .     S
O949   C951    1.300   .     A
O950   Zn959   2.013   .     S
O950   C952    1.301   .     A
C951   C990    1.436   .     S
C952   C989    1.436   .     S
O953   C957    1.295   .     A
O953   Zn959   1.973   .     S
O954   Zn960   1.973   .     S
O954   C958    1.296   .     A
O955   Zn960   1.931   .     S
O955   C957    1.299   .     A
O956   C958    1.298   .     A
O956   Zn959   1.931   .     S
C957   C961    1.455   .     S
C958   C962    1.454   .     S
Zn959  N995    2.022   .     S
Zn960  N996    2.022   .     S
C961   C965    1.400   .     A
C961   C967    1.392   .     A
C962   C966    1.400   .     A
C962   C968    1.389   .     A
C963   C971    1.403   .     A
C963   C965    1.392   .     A
C963   H981    1.083   .     S
C964   C972    1.405   .     A
C964   C966    1.394   .     A
C964   H982    1.084   .     S
C965   H1000   1.083   .     S
C966   H999    1.083   .     S
C967   C969    1.394   .     A
C967   H998    1.077   .     S
C968   C970    1.393   .     A
C968   H997    1.078   .     S
C969   C973    1.417   .     A
C969   C971    1.419   .     A
C970   C972    1.418   .     A
C970   C974    1.417   .     A
C971   C203    1.389   1_556 S
C973   C976    1.418   .     A
C973   C200    1.414   1_556 S
C974   C975    1.419   .     A
C975   C977    1.387   .     A
C975   H983    1.076   .     S
C976   H984    1.078   .     S
C976   C978    1.388   .     A
C977   H979    1.084   .     S
C978   H980    1.084   .     S
C978   C198    1.390   1_556 S
C985   H1001   1.082   .     S
C985   C990    1.396   .     A
C985   C1245   1.375   .     S
C986   C989    1.396   .     A
C986   H1002   1.082   .     S
C986   C1504   1.375   1_545 S
C987   C989    1.419   .     A
C987   C1003   1.522   .     S
C987   C1501   1.375   1_545 S
C988   C990    1.419   .     A
C988   C1010   1.522   .     S
C988   C1244   1.375   .     S
C991   H1017   1.081   .     S
C991   N996    1.351   .     A
C991   C821    1.419   1_655 S
C992   N995    1.351   .     A
C992   H1018   1.081   .     S
C993   C1019   1.517   .     S
C993   N995    1.394   .     A
C994   N996    1.395   .     A
C994   C1026   1.518   .     S
C994   C820    1.419   1_655 S
C1003  H1008   1.113   .     S
C1003  H1009   1.106   .     S
C1003  C1004   1.531   .     S
C1004  H1006   1.109   .     S
C1004  H1007   1.110   .     S
C1004  H1005   1.110   .     S
C1010  H1015   1.107   .     S
C1010  H1016   1.113   .     S
C1010  C1011   1.531   .     S
C1011  H1013   1.109   .     S
C1011  H1014   1.109   .     S
C1011  H1012   1.109   .     S
C1019  C1020   1.529   .     S
C1019  H1024   1.109   .     S
C1019  H1025   1.087   .     S
C1020  H1022   1.108   .     S
C1020  H1023   1.111   .     S
C1020  H1021   1.108   .     S
C1026  H1032   1.111   .     S
C1026  C1027   1.530   .     S
C1026  H1031   1.087   .     S
C1027  H1028   1.108   .     S
C1027  H1029   1.108   .     S
C1027  H1030   1.111   .     S
O1033  C1037   1.283   .     A
O1033  Zn1045  2.025   .     S
O1034  C1038   1.282   .     A
O1034  Zn1046  2.025   .     S
O1035  Zn1046  2.013   .     S
O1035  C1037   1.300   .     A
O1036  Zn1045  2.013   .     S
O1036  C1038   1.301   .     A
C1037  C1076   1.436   .     S
C1038  C1075   1.436   .     S
O1039  C1043   1.295   .     A
O1039  Zn1045  1.973   .     S
O1040  Zn1046  1.973   .     S
O1040  C1044   1.296   .     A
O1041  Zn1046  1.931   .     S
O1041  C1043   1.299   .     A
O1042  C1044   1.298   .     A
O1042  Zn1045  1.931   .     S
C1043  C1047   1.455   .     S
C1044  C1048   1.454   .     S
Zn1045 N1081   2.022   .     S
Zn1046 N1082   2.022   .     S
C1047  C1051   1.400   .     A
C1047  C1053   1.392   .     A
C1048  C1052   1.400   .     A
C1048  C1054   1.389   .     A
C1049  C1057   1.403   .     A
C1049  C1051   1.392   .     A
C1049  H1067   1.083   .     S
C1050  C1058   1.405   .     A
C1050  C1052   1.394   .     A
C1050  H1068   1.084   .     S
C1051  H1086   1.083   .     S
C1052  H1085   1.083   .     S
C1053  C1055   1.394   .     A
C1053  H1084   1.077   .     S
C1054  C1056   1.393   .     A
C1054  H1083   1.078   .     S
C1055  C1059   1.417   .     A
C1055  C1057   1.419   .     A
C1056  C1058   1.418   .     A
C1056  C1060   1.417   .     A
C1057  C289    1.389   1_556 S
C1059  C1062   1.418   .     A
C1059  C286    1.414   1_556 S
C1060  C1061   1.419   .     A
C1061  C1063   1.387   .     A
C1061  H1069   1.076   .     S
C1062  H1070   1.078   .     S
C1062  C1064   1.388   .     A
C1063  H1065   1.084   .     S
C1064  H1066   1.084   .     S
C1064  C284    1.390   1_556 S
C1071  H1087   1.082   .     S
C1071  C1076   1.396   .     A
C1071  C1331   1.375   .     S
C1072  C1075   1.396   .     A
C1072  H1088   1.082   .     S
C1073  C1075   1.419   .     A
C1073  C1089   1.522   .     S
C1074  C1076   1.419   .     A
C1074  C1096   1.522   .     S
C1074  C1330   1.375   .     S
C1077  H1103   1.081   .     S
C1077  N1082   1.351   .     A
C1077  C1165   1.419   .     S
C1078  N1081   1.351   .     A
C1078  H1104   1.081   .     S
C1078  C1252   1.419   1_455 S
C1079  C1105   1.517   .     S
C1079  N1081   1.394   .     A
C1079  C1249   1.419   1_455 S
C1080  N1082   1.395   .     A
C1080  C1112   1.518   .     S
C1080  C1164   1.419   .     S
C1089  H1094   1.113   .     S
C1089  H1095   1.106   .     S
C1089  C1090   1.531   .     S
C1090  H1092   1.109   .     S
C1090  H1093   1.110   .     S
C1090  H1091   1.110   .     S
C1096  H1101   1.107   .     S
C1096  H1102   1.113   .     S
C1096  C1097   1.531   .     S
C1097  H1099   1.109   .     S
C1097  H1100   1.109   .     S
C1097  H1098   1.109   .     S
C1105  C1106   1.529   .     S
C1105  H1110   1.109   .     S
C1105  H1111   1.087   .     S
C1106  H1108   1.108   .     S
C1106  H1109   1.111   .     S
C1106  H1107   1.108   .     S
C1112  H1118   1.111   .     S
C1112  C1113   1.530   .     S
C1112  H1117   1.087   .     S
C1113  H1114   1.108   .     S
C1113  H1115   1.108   .     S
C1113  H1116   1.111   .     S
O1119  C1123   1.283   .     A
O1119  Zn1131  2.025   .     S
O1120  C1124   1.282   .     A
O1120  Zn1132  2.025   .     S
O1121  Zn1132  2.013   .     S
O1121  C1123   1.300   .     A
O1122  Zn1131  2.013   .     S
O1122  C1124   1.301   .     A
C1123  C1162   1.436   .     S
C1124  C1161   1.436   .     S
O1125  C1129   1.295   .     A
O1125  Zn1131  1.973   .     S
O1126  Zn1132  1.973   .     S
O1126  C1130   1.296   .     A
O1127  Zn1132  1.931   .     S
O1127  C1129   1.299   .     A
O1128  C1130   1.298   .     A
O1128  Zn1131  1.931   .     S
C1129  C1133   1.455   .     S
C1130  C1134   1.454   .     S
Zn1131 N1167   2.022   .     S
Zn1132 N1168   2.022   .     S
C1133  C1137   1.400   .     A
C1133  C1139   1.392   .     A
C1134  C1138   1.400   .     A
C1134  C1140   1.389   .     A
C1135  C1143   1.403   .     A
C1135  C1137   1.392   .     A
C1135  H1153   1.083   .     S
C1136  C1144   1.405   .     A
C1136  C1138   1.394   .     A
C1136  H1154   1.084   .     S
C1137  H1172   1.083   .     S
C1138  H1171   1.083   .     S
C1139  C1141   1.394   .     A
C1139  H1170   1.077   .     S
C1140  C1142   1.393   .     A
C1140  H1169   1.078   .     S
C1141  C1145   1.417   .     A
C1141  C1143   1.419   .     A
C1142  C1144   1.418   .     A
C1142  C1146   1.417   .     A
C1143  C375    1.389   1_556 S
C1145  C1148   1.418   .     A
C1145  C372    1.414   1_556 S
C1146  C1147   1.419   .     A
C1147  C1149   1.387   .     A
C1147  H1155   1.076   .     S
C1148  H1156   1.078   .     S
C1148  C1150   1.388   .     A
C1149  H1151   1.084   .     S
C1150  H1152   1.084   .     S
C1150  C370    1.390   1_556 S
C1157  H1173   1.082   .     S
C1157  C1162   1.396   .     A
C1157  C1417   1.375   .     S
C1158  C1161   1.396   .     A
C1158  H1174   1.082   .     S
C1159  C1161   1.419   .     A
C1159  C1175   1.522   .     S
C1160  C1162   1.419   .     A
C1160  C1182   1.522   .     S
C1160  C1416   1.375   .     S
C1163  H1189   1.081   .     S
C1163  N1168   1.351   .     A
C1163  C1251   1.419   .     S
C1164  N1167   1.351   .     A
C1164  H1190   1.081   .     S
C1165  C1191   1.517   .     S
C1165  N1167   1.394   .     A
C1166  N1168   1.395   .     A
C1166  C1198   1.518   .     S
C1166  C1250   1.419   .     S
C1175  H1180   1.113   .     S
C1175  H1181   1.106   .     S
C1175  C1176   1.531   .     S
C1176  H1178   1.109   .     S
C1176  H1179   1.110   .     S
C1176  H1177   1.110   .     S
C1182  H1187   1.107   .     S
C1182  H1188   1.113   .     S
C1182  C1183   1.531   .     S
C1183  H1185   1.109   .     S
C1183  H1186   1.109   .     S
C1183  H1184   1.109   .     S
C1191  C1192   1.529   .     S
C1191  H1196   1.109   .     S
C1191  H1197   1.087   .     S
C1192  H1194   1.108   .     S
C1192  H1195   1.111   .     S
C1192  H1193   1.108   .     S
C1198  H1204   1.111   .     S
C1198  C1199   1.530   .     S
C1198  H1203   1.087   .     S
C1199  H1200   1.108   .     S
C1199  H1201   1.108   .     S
C1199  H1202   1.111   .     S
O1205  C1209   1.283   .     A
O1205  Zn1217  2.025   .     S
O1206  C1210   1.282   .     A
O1206  Zn1218  2.025   .     S
O1207  Zn1218  2.013   .     S
O1207  C1209   1.300   .     A
O1208  Zn1217  2.013   .     S
O1208  C1210   1.301   .     A
C1209  C1248   1.436   .     S
C1210  C1247   1.436   .     S
O1211  C1215   1.295   .     A
O1211  Zn1217  1.973   .     S
O1212  Zn1218  1.973   .     S
O1212  C1216   1.296   .     A
O1213  Zn1218  1.931   .     S
O1213  C1215   1.299   .     A
O1214  C1216   1.298   .     A
O1214  Zn1217  1.931   .     S
C1215  C1219   1.455   .     S
C1216  C1220   1.454   .     S
Zn1217 N1253   2.022   .     S
Zn1218 N1254   2.022   .     S
C1219  C1223   1.400   .     A
C1219  C1225   1.392   .     A
C1220  C1224   1.400   .     A
C1220  C1226   1.389   .     A
C1221  C1229   1.403   .     A
C1221  C1223   1.392   .     A
C1221  H1239   1.083   .     S
C1222  C1230   1.405   .     A
C1222  C1224   1.394   .     A
C1222  H1240   1.084   .     S
C1223  H1258   1.083   .     S
C1224  H1257   1.083   .     S
C1225  C1227   1.394   .     A
C1225  H1256   1.077   .     S
C1226  C1228   1.393   .     A
C1226  H1255   1.078   .     S
C1227  C1231   1.417   .     A
C1227  C1229   1.419   .     A
C1228  C1230   1.418   .     A
C1228  C1232   1.417   .     A
C1229  C461    1.389   1_556 S
C1231  C1234   1.418   .     A
C1231  C458    1.414   1_556 S
C1232  C1233   1.419   .     A
C1233  C1235   1.387   .     A
C1233  H1241   1.076   .     S
C1234  H1242   1.078   .     S
C1234  C1236   1.388   .     A
C1235  H1237   1.084   .     S
C1236  H1238   1.084   .     S
C1236  C456    1.390   1_556 S
C1243  H1259   1.082   .     S
C1243  C1248   1.396   .     A
C1243  C1503   1.375   .     S
C1244  C1247   1.396   .     A
C1244  H1260   1.082   .     S
C1245  C1247   1.419   .     A
C1245  C1261   1.522   .     S
C1246  C1248   1.419   .     A
C1246  C1268   1.522   .     S
C1246  C1502   1.375   .     S
C1249  H1275   1.081   .     S
C1249  N1254   1.351   .     A
C1249  C1079   1.419   1_655 S
C1250  N1253   1.351   .     A
C1250  H1276   1.081   .     S
C1251  C1277   1.517   .     S
C1251  N1253   1.394   .     A
C1252  N1254   1.395   .     A
C1252  C1284   1.518   .     S
C1252  C1078   1.419   1_655 S
C1261  H1266   1.113   .     S
C1261  H1267   1.106   .     S
C1261  C1262   1.531   .     S
C1262  H1264   1.109   .     S
C1262  H1265   1.110   .     S
C1262  H1263   1.110   .     S
C1268  H1273   1.107   .     S
C1268  H1274   1.113   .     S
C1268  C1269   1.531   .     S
C1269  H1271   1.109   .     S
C1269  H1272   1.109   .     S
C1269  H1270   1.109   .     S
C1277  C1278   1.529   .     S
C1277  H1282   1.109   .     S
C1277  H1283   1.087   .     S
C1278  H1280   1.108   .     S
C1278  H1281   1.111   .     S
C1278  H1279   1.108   .     S
C1284  H1290   1.111   .     S
C1284  C1285   1.530   .     S
C1284  H1289   1.087   .     S
C1285  H1286   1.108   .     S
C1285  H1287   1.108   .     S
C1285  H1288   1.111   .     S
O1291  C1295   1.283   .     A
O1291  Zn1303  2.025   .     S
O1292  C1296   1.282   .     A
O1292  Zn1304  2.025   .     S
O1293  Zn1304  2.013   .     S
O1293  C1295   1.300   .     A
O1294  Zn1303  2.013   .     S
O1294  C1296   1.301   .     A
C1295  C1334   1.436   .     S
C1296  C1333   1.436   .     S
O1297  C1301   1.295   .     A
O1297  Zn1303  1.973   .     S
O1298  Zn1304  1.973   .     S
O1298  C1302   1.296   .     A
O1299  Zn1304  1.931   .     S
O1299  C1301   1.299   .     A
O1300  C1302   1.298   .     A
O1300  Zn1303  1.931   .     S
C1301  C1305   1.455   .     S
C1302  C1306   1.454   .     S
Zn1303 N1339   2.022   .     S
Zn1304 N1340   2.022   .     S
C1305  C1309   1.400   .     A
C1305  C1311   1.392   .     A
C1306  C1310   1.400   .     A
C1306  C1312   1.389   .     A
C1307  C1315   1.403   .     A
C1307  C1309   1.392   .     A
C1307  H1325   1.083   .     S
C1308  C1316   1.405   .     A
C1308  C1310   1.394   .     A
C1308  H1326   1.084   .     S
C1309  H1344   1.083   .     S
C1310  H1343   1.083   .     S
C1311  C1313   1.394   .     A
C1311  H1342   1.077   .     S
C1312  C1314   1.393   .     A
C1312  H1341   1.078   .     S
C1313  C1317   1.417   .     A
C1313  C1315   1.419   .     A
C1314  C1316   1.418   .     A
C1314  C1318   1.417   .     A
C1315  C547    1.389   1_556 S
C1317  C1320   1.418   .     A
C1317  C544    1.414   1_556 S
C1318  C1319   1.419   .     A
C1319  C1321   1.387   .     A
C1319  H1327   1.076   .     S
C1320  H1328   1.078   .     S
C1320  C1322   1.388   .     A
C1321  H1323   1.084   .     S
C1322  H1324   1.084   .     S
C1322  C542    1.390   1_556 S
C1329  H1345   1.082   .     S
C1329  C1334   1.396   .     A
C1329  C815    1.375   1_565 S
C1330  C1333   1.396   .     A
C1330  H1346   1.082   .     S
C1331  C1333   1.419   .     A
C1331  C1347   1.522   .     S
C1332  C1334   1.419   .     A
C1332  C1354   1.522   .     S
C1332  C814    1.375   1_565 S
C1335  H1361   1.081   .     S
C1335  N1340   1.351   .     A
C1335  C1423   1.419   .     S
C1336  N1339   1.351   .     A
C1336  H1362   1.081   .     S
C1336  C1510   1.419   1_455 S
C1337  C1363   1.517   .     S
C1337  N1339   1.394   .     A
C1337  C1507   1.419   1_455 S
C1338  N1340   1.395   .     A
C1338  C1370   1.518   .     S
C1338  C1422   1.419   .     S
C1347  H1352   1.113   .     S
C1347  H1353   1.106   .     S
C1347  C1348   1.531   .     S
C1348  H1350   1.109   .     S
C1348  H1351   1.110   .     S
C1348  H1349   1.110   .     S
C1354  H1359   1.107   .     S
C1354  H1360   1.113   .     S
C1354  C1355   1.531   .     S
C1355  H1357   1.109   .     S
C1355  H1358   1.109   .     S
C1355  H1356   1.109   .     S
C1363  C1364   1.529   .     S
C1363  H1368   1.109   .     S
C1363  H1369   1.087   .     S
C1364  H1366   1.108   .     S
C1364  H1367   1.111   .     S
C1364  H1365   1.108   .     S
C1370  H1376   1.111   .     S
C1370  C1371   1.530   .     S
C1370  H1375   1.087   .     S
C1371  H1372   1.108   .     S
C1371  H1373   1.108   .     S
C1371  H1374   1.111   .     S
O1377  C1381   1.283   .     A
O1377  Zn1389  2.025   .     S
O1378  C1382   1.282   .     A
O1378  Zn1390  2.025   .     S
O1379  Zn1390  2.013   .     S
O1379  C1381   1.300   .     A
O1380  Zn1389  2.013   .     S
O1380  C1382   1.301   .     A
C1381  C1420   1.436   .     S
C1382  C1419   1.436   .     S
O1383  C1387   1.295   .     A
O1383  Zn1389  1.973   .     S
O1384  Zn1390  1.973   .     S
O1384  C1388   1.296   .     A
O1385  Zn1390  1.931   .     S
O1385  C1387   1.299   .     A
O1386  C1388   1.298   .     A
O1386  Zn1389  1.931   .     S
C1387  C1391   1.455   .     S
C1388  C1392   1.454   .     S
Zn1389 N1425   2.022   .     S
Zn1390 N1426   2.022   .     S
C1391  C1395   1.400   .     A
C1391  C1397   1.392   .     A
C1392  C1396   1.400   .     A
C1392  C1398   1.389   .     A
C1393  C1401   1.403   .     A
C1393  C1395   1.392   .     A
C1393  H1411   1.083   .     S
C1394  C1402   1.405   .     A
C1394  C1396   1.394   .     A
C1394  H1412   1.084   .     S
C1395  H1430   1.083   .     S
C1396  H1429   1.083   .     S
C1397  C1399   1.394   .     A
C1397  H1428   1.077   .     S
C1398  C1400   1.393   .     A
C1398  H1427   1.078   .     S
C1399  C1403   1.417   .     A
C1399  C1401   1.419   .     A
C1400  C1402   1.418   .     A
C1400  C1404   1.417   .     A
C1401  C633    1.389   1_556 S
C1403  C1406   1.418   .     A
C1403  C630    1.414   1_556 S
C1404  C1405   1.419   .     A
C1405  C1407   1.387   .     A
C1405  H1413   1.076   .     S
C1406  H1414   1.078   .     S
C1406  C1408   1.388   .     A
C1407  H1409   1.084   .     S
C1408  H1410   1.084   .     S
C1408  C628    1.390   1_556 S
C1415  H1431   1.082   .     S
C1415  C1420   1.396   .     A
C1415  C901    1.375   1_565 S
C1416  C1419   1.396   .     A
C1416  H1432   1.082   .     S
C1417  C1419   1.419   .     A
C1417  C1433   1.522   .     S
C1418  C1420   1.419   .     A
C1418  C1440   1.522   .     S
C1418  C900    1.375   1_565 S
C1421  H1447   1.081   .     S
C1421  N1426   1.351   .     A
C1421  C1509   1.419   .     S
C1422  N1425   1.351   .     A
C1422  H1448   1.081   .     S
C1423  C1449   1.517   .     S
C1423  N1425   1.394   .     A
C1424  N1426   1.395   .     A
C1424  C1456   1.518   .     S
C1424  C1508   1.419   .     S
C1433  H1438   1.113   .     S
C1433  H1439   1.106   .     S
C1433  C1434   1.531   .     S
C1434  H1436   1.109   .     S
C1434  H1437   1.110   .     S
C1434  H1435   1.110   .     S
C1440  H1445   1.107   .     S
C1440  H1446   1.113   .     S
C1440  C1441   1.531   .     S
C1441  H1443   1.109   .     S
C1441  H1444   1.109   .     S
C1441  H1442   1.109   .     S
C1449  C1450   1.529   .     S
C1449  H1454   1.109   .     S
C1449  H1455   1.087   .     S
C1450  H1452   1.108   .     S
C1450  H1453   1.111   .     S
C1450  H1451   1.108   .     S
C1456  H1462   1.111   .     S
C1456  C1457   1.530   .     S
C1456  H1461   1.087   .     S
C1457  H1458   1.108   .     S
C1457  H1459   1.108   .     S
C1457  H1460   1.111   .     S
O1463  C1467   1.283   .     A
O1463  Zn1475  2.025   .     S
O1464  C1468   1.282   .     A
O1464  Zn1476  2.025   .     S
O1465  Zn1476  2.013   .     S
O1465  C1467   1.300   .     A
O1466  Zn1475  2.013   .     S
O1466  C1468   1.301   .     A
C1467  C1506   1.436   .     S
C1468  C1505   1.436   .     S
O1469  C1473   1.295   .     A
O1469  Zn1475  1.973   .     S
O1470  Zn1476  1.973   .     S
O1470  C1474   1.296   .     A
O1471  Zn1476  1.931   .     S
O1471  C1473   1.299   .     A
O1472  C1474   1.298   .     A
O1472  Zn1475  1.931   .     S
C1473  C1477   1.455   .     S
C1474  C1478   1.454   .     S
Zn1475 N1511   2.022   .     S
Zn1476 N1512   2.022   .     S
C1477  C1481   1.400   .     A
C1477  C1483   1.392   .     A
C1478  C1482   1.400   .     A
C1478  C1484   1.389   .     A
C1479  C1487   1.403   .     A
C1479  C1481   1.392   .     A
C1479  H1497   1.083   .     S
C1480  C1488   1.405   .     A
C1480  C1482   1.394   .     A
C1480  H1498   1.084   .     S
C1481  H1516   1.083   .     S
C1482  H1515   1.083   .     S
C1483  C1485   1.394   .     A
C1483  H1514   1.077   .     S
C1484  C1486   1.393   .     A
C1484  H1513   1.078   .     S
C1485  C1489   1.417   .     A
C1485  C1487   1.419   .     A
C1486  C1488   1.418   .     A
C1486  C1490   1.417   .     A
C1487  C719    1.389   1_556 S
C1489  C1492   1.418   .     A
C1489  C716    1.414   1_556 S
C1490  C1491   1.419   .     A
C1491  C1493   1.387   .     A
C1491  H1499   1.076   .     S
C1492  H1500   1.078   .     S
C1492  C1494   1.388   .     A
C1493  H1495   1.084   .     S
C1494  H1496   1.084   .     S
C1494  C714    1.390   1_556 S
C1501  H1517   1.082   .     S
C1501  C1506   1.396   .     A
C1501  C987    1.375   1_565 S
C1502  C1505   1.396   .     A
C1502  H1518   1.082   .     S
C1503  C1505   1.419   .     A
C1503  C1519   1.522   .     S
C1504  C1506   1.419   .     A
C1504  C1526   1.522   .     S
C1504  C986    1.375   1_565 S
C1507  H1533   1.081   .     S
C1507  N1512   1.351   .     A
C1507  C1337   1.419   1_655 S
C1508  N1511   1.351   .     A
C1508  H1534   1.081   .     S
C1509  C1535   1.517   .     S
C1509  N1511   1.394   .     A
C1510  N1512   1.395   .     A
C1510  C1542   1.518   .     S
C1510  C1336   1.419   1_655 S
C1519  H1524   1.113   .     S
C1519  H1525   1.106   .     S
C1519  C1520   1.531   .     S
C1520  H1522   1.109   .     S
C1520  H1523   1.110   .     S
C1520  H1521   1.110   .     S
C1526  H1531   1.107   .     S
C1526  H1532   1.113   .     S
C1526  C1527   1.531   .     S
C1527  H1529   1.109   .     S
C1527  H1530   1.109   .     S
C1527  H1528   1.109   .     S
C1535  C1536   1.529   .     S
C1535  H1540   1.109   .     S
C1535  H1541   1.087   .     S
C1536  H1538   1.108   .     S
C1536  H1539   1.111   .     S
C1536  H1537   1.108   .     S
C1542  H1548   1.111   .     S
C1542  C1543   1.530   .     S
C1542  H1547   1.087   .     S
C1543  H1544   1.108   .     S
C1543  H1545   1.108   .     S
C1543  H1546   1.111   .     S
