data_str_m3_o2_o5_pcu_sym.104
_audit_creation_date              2020-01-03
_audit_creation_method            'Materials Studio'
_symmetry_space_group_name_H-M    'P1'
_symmetry_Int_Tables_number       1
_symmetry_cell_setting            triclinic
loop_
_symmetry_equiv_pos_as_xyz
  x,y,z
_cell_length_a                    30.0872
_cell_length_b                    28.7476
_cell_length_c                    26.9137
_cell_angle_alpha                 90.0518
_cell_angle_beta                  95.8267
_cell_angle_gamma                 90.2897
loop_
_atom_site_label
_atom_site_type_symbol
_atom_site_fract_x
_atom_site_fract_y
_atom_site_fract_z
_atom_site_U_iso_or_equiv
_atom_site_adp_type
_atom_site_occupancy
C1     C     0.16431   0.24973   0.17027   0.00000  Uiso   1.00
C2     C     0.23041   0.44788   0.12634   0.00000  Uiso   1.00
C3     C     0.24985   0.24998   0.07294   0.00000  Uiso   1.00
C4     C     0.25020   0.25001   0.26040   0.00000  Uiso   1.00
C5     C     0.25011   0.02668   0.16663   0.00000  Uiso   1.00
C6     C     0.25016   0.47373   0.16663   0.00000  Uiso   1.00
C7     C     0.24998   0.24993   0.02177   0.00000  Uiso   1.00
C8     C     0.25008   0.24998   0.31157   0.00000  Uiso   1.00
C9     C     0.05230   0.29080   0.20315   0.00000  Uiso   1.00
C10    C     0.45503   0.21586   0.19400   0.00000  Uiso   1.00
C11    C     0.45346   0.29460   0.16222   0.00000  Uiso   1.00
C12    C     0.33600   0.25000   0.16412   0.00000  Uiso   1.00
C13    C     0.04347   0.21615   0.16171   0.00000  Uiso   1.00
C14    C     0.09854   0.28820   0.20265   0.00000  Uiso   1.00
C15    C     0.40988   0.21045   0.17971   0.00000  Uiso   1.00
C16    C     0.40719   0.29198   0.15174   0.00000  Uiso   1.00
C17    C     0.08911   0.21113   0.16280   0.00000  Uiso   1.00
C18    C     0.11713   0.24920   0.17944   0.00000  Uiso   1.00
C19    C     0.38466   0.25019   0.16307   0.00000  Uiso   1.00
C20    C     0.02514   0.25509   0.18246   0.00000  Uiso   1.00
C21    C     0.47707   0.25665   0.18293   0.00000  Uiso   1.00
C22    C     0.12652   0.32454   0.23024   0.00000  Uiso   1.00
C23    C     0.22260   0.10114   0.13150   0.00000  Uiso   1.00
C24    C     0.39222   0.16197   0.17721   0.00000  Uiso   1.00
C25    C     0.38415   0.33138   0.12434   0.00000  Uiso   1.00
C26    C     0.10512   0.16441   0.14945   0.00000  Uiso   1.00
C27    C     0.27262   0.39916   0.20560   0.00000  Uiso   1.00
C28    C     0.27747   0.10150   0.20183   0.00000  Uiso   1.00
C29    C     0.22746   0.39893   0.12769   0.00000  Uiso   1.00
C30    C     0.22068   0.05219   0.13375   0.00000  Uiso   1.00
C31    C     0.26990   0.44811   0.20691   0.00000  Uiso   1.00
C32    C     0.27949   0.05258   0.19952   0.00000  Uiso   1.00
H33    H     0.03735   0.31988   0.22087   0.00000  Uiso   1.00
H34    H     0.34593   0.31601   0.28038   0.00000  Uiso   1.00
H35    H     0.34149   0.18619   0.28683   0.00000  Uiso   1.00
H36    H     0.13639   0.34356   0.10069   0.00000  Uiso   1.00
H37    H     0.16076   0.31734   0.24462   0.00000  Uiso   1.00
H38    H     0.36561   0.15191   0.14901   0.00000  Uiso   1.00
H39    H     0.35282   0.32586   0.10134   0.00000  Uiso   1.00
H40    H     0.13410   0.14898   0.17014   0.00000  Uiso   1.00
H41    H     0.47429   0.18629   0.20887   0.00000  Uiso   1.00
H42    H     0.47154   0.32503   0.15129   0.00000  Uiso   1.00
H43    H     0.02180   0.18843   0.14600   0.00000  Uiso   1.00
H44    H     0.19683   0.03414   0.10802   0.00000  Uiso   1.00
H45    H     0.28344   0.46603   0.24028   0.00000  Uiso   1.00
H46    H     0.30340   0.03483   0.22518   0.00000  Uiso   1.00
H47    H     0.21696   0.46564   0.09297   0.00000  Uiso   1.00
H48    H     0.15964   0.18531   0.04584   0.00000  Uiso   1.00
N49    N     0.25000   0.12623   0.16667   0.00000  Uiso   1.00
N50    N     0.25000   0.37377   0.16667   0.00000  Uiso   1.00
O51    O     0.18453   0.28974   0.16667   0.00000  Uiso   1.00
O52    O     0.16160   0.09113   0.05156   0.00000  Uiso   1.00
O53    O     0.16972   0.17591   0.08055   0.00000  Uiso   1.00
O54    O     0.33550   0.41150   0.28293   0.00000  Uiso   1.00
O55    O     0.27262   0.36134   0.29565   0.00000  Uiso   1.00
O56    O     0.33584   0.32922   0.24718   0.00000  Uiso   1.00
O57    O     0.26902   0.13315   0.29224   0.00000  Uiso   1.00
O58    O     0.33781   0.09188   0.28237   0.00000  Uiso   1.00
O59    O     0.33156   0.17626   0.25219   0.00000  Uiso   1.00
O60    O     0.16518   0.41120   0.04961   0.00000  Uiso   1.00
O61    O     0.22629   0.35949   0.03789   0.00000  Uiso   1.00
O62    O     0.31547   0.21026   0.16666   0.00000  Uiso   1.00
O63    O     0.16239   0.32952   0.08660   0.00000  Uiso   1.00
O64    O     0.11126   0.36280   0.23825   0.00000  Uiso   1.00
O65    O     0.40852   0.13201   0.20553   0.00000  Uiso   1.00
O66    O     0.40041   0.37044   0.12635   0.00000  Uiso   1.00
O67    O     0.08467   0.14148   0.11629   0.00000  Uiso   1.00
O68    O     0.31547   0.28974   0.16666   0.00000  Uiso   1.00
O69    O     0.18453   0.21026   0.16667   0.00000  Uiso   1.00
O70    O     0.25000   0.28973   0.09511   0.00000  Uiso   1.00
O71    O     0.25000   0.21027   0.23822   0.00000  Uiso   1.00
O72    O     0.25000   0.28973   0.23822   0.00000  Uiso   1.00
O73    O     0.25000   0.21027   0.09511   0.00000  Uiso   1.00
O74    O     0.23113   0.13143   0.04073   0.00000  Uiso   1.00
S75    S     0.19564   0.12502   0.07530   0.00000  Uiso   1.00
S76    S     0.30438   0.37502   0.25884   0.00000  Uiso   1.00
S77    S     0.30455   0.12581   0.25797   0.00000  Uiso   1.00
S78    S     0.19514   0.37454   0.07464   0.00000  Uiso   1.00
Zn79   Zn    0.25000   0.30307   0.16667   0.00000  Uiso   1.00
Zn80   Zn    0.25000   0.19693   0.16667   0.00000  Uiso   1.00
C81    C     0.66431   0.24973   0.17027   0.00000  Uiso   1.00
C82    C     0.73041   0.44788   0.12634   0.00000  Uiso   1.00
C83    C     0.74985   0.24998   0.07294   0.00000  Uiso   1.00
C84    C     0.75020   0.25001   0.26040   0.00000  Uiso   1.00
C85    C     0.75011   0.02668   0.16663   0.00000  Uiso   1.00
C86    C     0.75016   0.47373   0.16663   0.00000  Uiso   1.00
C87    C     0.74998   0.24993   0.02177   0.00000  Uiso   1.00
C88    C     0.75008   0.24998   0.31157   0.00000  Uiso   1.00
C89    C     0.55230   0.29080   0.20315   0.00000  Uiso   1.00
C90    C     0.95503   0.21586   0.19400   0.00000  Uiso   1.00
C91    C     0.95346   0.29460   0.16222   0.00000  Uiso   1.00
C92    C     0.83600   0.25000   0.16412   0.00000  Uiso   1.00
C93    C     0.54347   0.21615   0.16171   0.00000  Uiso   1.00
C94    C     0.59854   0.28820   0.20265   0.00000  Uiso   1.00
C95    C     0.90988   0.21045   0.17971   0.00000  Uiso   1.00
C96    C     0.90719   0.29198   0.15174   0.00000  Uiso   1.00
C97    C     0.58911   0.21113   0.16280   0.00000  Uiso   1.00
C98    C     0.61713   0.24920   0.17944   0.00000  Uiso   1.00
C99    C     0.88466   0.25019   0.16307   0.00000  Uiso   1.00
C100   C     0.52514   0.25509   0.18246   0.00000  Uiso   1.00
C101   C     0.97707   0.25665   0.18293   0.00000  Uiso   1.00
C102   C     0.62652   0.32454   0.23024   0.00000  Uiso   1.00
C103   C     0.72260   0.10114   0.13150   0.00000  Uiso   1.00
C104   C     0.89222   0.16197   0.17721   0.00000  Uiso   1.00
C105   C     0.88415   0.33138   0.12434   0.00000  Uiso   1.00
C106   C     0.60512   0.16441   0.14945   0.00000  Uiso   1.00
C107   C     0.77262   0.39916   0.20560   0.00000  Uiso   1.00
C108   C     0.77747   0.10150   0.20183   0.00000  Uiso   1.00
C109   C     0.72746   0.39893   0.12769   0.00000  Uiso   1.00
C110   C     0.72068   0.05219   0.13375   0.00000  Uiso   1.00
C111   C     0.76990   0.44811   0.20691   0.00000  Uiso   1.00
C112   C     0.77949   0.05258   0.19952   0.00000  Uiso   1.00
H113   H     0.53735   0.31988   0.22087   0.00000  Uiso   1.00
H114   H     0.84593   0.31601   0.28038   0.00000  Uiso   1.00
H115   H     0.84149   0.18619   0.28683   0.00000  Uiso   1.00
H116   H     0.63639   0.34356   0.10069   0.00000  Uiso   1.00
H117   H     0.66076   0.31734   0.24462   0.00000  Uiso   1.00
H118   H     0.86561   0.15191   0.14901   0.00000  Uiso   1.00
H119   H     0.85282   0.32586   0.10134   0.00000  Uiso   1.00
H120   H     0.63410   0.14898   0.17014   0.00000  Uiso   1.00
H121   H     0.97429   0.18629   0.20887   0.00000  Uiso   1.00
H122   H     0.97154   0.32503   0.15129   0.00000  Uiso   1.00
H123   H     0.52180   0.18843   0.14600   0.00000  Uiso   1.00
H124   H     0.69683   0.03414   0.10802   0.00000  Uiso   1.00
H125   H     0.78344   0.46603   0.24028   0.00000  Uiso   1.00
H126   H     0.80340   0.03483   0.22518   0.00000  Uiso   1.00
H127   H     0.71696   0.46564   0.09297   0.00000  Uiso   1.00
H128   H     0.65964   0.18531   0.04584   0.00000  Uiso   1.00
N129   N     0.75000   0.12623   0.16667   0.00000  Uiso   1.00
N130   N     0.75000   0.37377   0.16667   0.00000  Uiso   1.00
O131   O     0.68453   0.28974   0.16667   0.00000  Uiso   1.00
O132   O     0.66160   0.09113   0.05156   0.00000  Uiso   1.00
O133   O     0.66972   0.17591   0.08055   0.00000  Uiso   1.00
O134   O     0.83550   0.41150   0.28293   0.00000  Uiso   1.00
O135   O     0.77262   0.36134   0.29565   0.00000  Uiso   1.00
O136   O     0.83584   0.32922   0.24718   0.00000  Uiso   1.00
O137   O     0.76902   0.13315   0.29224   0.00000  Uiso   1.00
O138   O     0.83781   0.09188   0.28237   0.00000  Uiso   1.00
O139   O     0.83156   0.17626   0.25219   0.00000  Uiso   1.00
O140   O     0.66518   0.41120   0.04961   0.00000  Uiso   1.00
O141   O     0.72629   0.35949   0.03789   0.00000  Uiso   1.00
O142   O     0.81547   0.21026   0.16666   0.00000  Uiso   1.00
O143   O     0.66239   0.32952   0.08660   0.00000  Uiso   1.00
O144   O     0.61126   0.36280   0.23825   0.00000  Uiso   1.00
O145   O     0.90852   0.13201   0.20553   0.00000  Uiso   1.00
O146   O     0.90041   0.37044   0.12635   0.00000  Uiso   1.00
O147   O     0.58467   0.14148   0.11629   0.00000  Uiso   1.00
O148   O     0.81547   0.28974   0.16666   0.00000  Uiso   1.00
O149   O     0.68453   0.21026   0.16667   0.00000  Uiso   1.00
O150   O     0.75000   0.28973   0.09511   0.00000  Uiso   1.00
O151   O     0.75000   0.21027   0.23822   0.00000  Uiso   1.00
O152   O     0.75000   0.28973   0.23822   0.00000  Uiso   1.00
O153   O     0.75000   0.21027   0.09511   0.00000  Uiso   1.00
O154   O     0.73113   0.13143   0.04073   0.00000  Uiso   1.00
S155   S     0.69564   0.12502   0.07530   0.00000  Uiso   1.00
S156   S     0.80438   0.37502   0.25884   0.00000  Uiso   1.00
S157   S     0.80455   0.12581   0.25797   0.00000  Uiso   1.00
S158   S     0.69514   0.37454   0.07464   0.00000  Uiso   1.00
Zn159  Zn    0.75000   0.30307   0.16667   0.00000  Uiso   1.00
Zn160  Zn    0.75000   0.19693   0.16667   0.00000  Uiso   1.00
C161   C     0.16431   0.74973   0.17027   0.00000  Uiso   1.00
C162   C     0.23041   0.94788   0.12634   0.00000  Uiso   1.00
C163   C     0.24985   0.74998   0.07294   0.00000  Uiso   1.00
C164   C     0.25020   0.75001   0.26040   0.00000  Uiso   1.00
C165   C     0.25011   0.52668   0.16663   0.00000  Uiso   1.00
C166   C     0.25016   0.97373   0.16663   0.00000  Uiso   1.00
C167   C     0.24998   0.74993   0.02177   0.00000  Uiso   1.00
C168   C     0.25008   0.74998   0.31157   0.00000  Uiso   1.00
C169   C     0.05230   0.79080   0.20315   0.00000  Uiso   1.00
C170   C     0.45503   0.71586   0.19400   0.00000  Uiso   1.00
C171   C     0.45346   0.79460   0.16222   0.00000  Uiso   1.00
C172   C     0.33600   0.75000   0.16412   0.00000  Uiso   1.00
C173   C     0.04347   0.71615   0.16171   0.00000  Uiso   1.00
C174   C     0.09854   0.78820   0.20265   0.00000  Uiso   1.00
C175   C     0.40988   0.71045   0.17971   0.00000  Uiso   1.00
C176   C     0.40719   0.79198   0.15174   0.00000  Uiso   1.00
C177   C     0.08911   0.71113   0.16280   0.00000  Uiso   1.00
C178   C     0.11713   0.74920   0.17944   0.00000  Uiso   1.00
C179   C     0.38466   0.75019   0.16307   0.00000  Uiso   1.00
C180   C     0.02514   0.75509   0.18246   0.00000  Uiso   1.00
C181   C     0.47707   0.75665   0.18293   0.00000  Uiso   1.00
C182   C     0.12652   0.82454   0.23024   0.00000  Uiso   1.00
C183   C     0.22260   0.60114   0.13150   0.00000  Uiso   1.00
C184   C     0.39222   0.66197   0.17721   0.00000  Uiso   1.00
C185   C     0.38415   0.83138   0.12434   0.00000  Uiso   1.00
C186   C     0.10512   0.66441   0.14945   0.00000  Uiso   1.00
C187   C     0.27262   0.89916   0.20560   0.00000  Uiso   1.00
C188   C     0.27747   0.60150   0.20183   0.00000  Uiso   1.00
C189   C     0.22746   0.89893   0.12769   0.00000  Uiso   1.00
C190   C     0.22068   0.55219   0.13375   0.00000  Uiso   1.00
C191   C     0.26990   0.94811   0.20691   0.00000  Uiso   1.00
C192   C     0.27949   0.55258   0.19952   0.00000  Uiso   1.00
H193   H     0.03735   0.81988   0.22087   0.00000  Uiso   1.00
H194   H     0.34593   0.81601   0.28038   0.00000  Uiso   1.00
H195   H     0.34149   0.68619   0.28683   0.00000  Uiso   1.00
H196   H     0.13639   0.84356   0.10069   0.00000  Uiso   1.00
H197   H     0.16076   0.81734   0.24462   0.00000  Uiso   1.00
H198   H     0.36561   0.65191   0.14901   0.00000  Uiso   1.00
H199   H     0.35282   0.82586   0.10134   0.00000  Uiso   1.00
H200   H     0.13410   0.64898   0.17014   0.00000  Uiso   1.00
H201   H     0.47429   0.68629   0.20887   0.00000  Uiso   1.00
H202   H     0.47154   0.82503   0.15129   0.00000  Uiso   1.00
H203   H     0.02180   0.68843   0.14600   0.00000  Uiso   1.00
H204   H     0.19683   0.53414   0.10802   0.00000  Uiso   1.00
H205   H     0.28344   0.96603   0.24028   0.00000  Uiso   1.00
H206   H     0.30340   0.53483   0.22518   0.00000  Uiso   1.00
H207   H     0.21696   0.96564   0.09297   0.00000  Uiso   1.00
H208   H     0.15964   0.68531   0.04584   0.00000  Uiso   1.00
N209   N     0.25000   0.62623   0.16667   0.00000  Uiso   1.00
N210   N     0.25000   0.87377   0.16667   0.00000  Uiso   1.00
O211   O     0.18453   0.78974   0.16667   0.00000  Uiso   1.00
O212   O     0.16160   0.59113   0.05156   0.00000  Uiso   1.00
O213   O     0.16972   0.67591   0.08055   0.00000  Uiso   1.00
O214   O     0.33550   0.91150   0.28293   0.00000  Uiso   1.00
O215   O     0.27262   0.86134   0.29565   0.00000  Uiso   1.00
O216   O     0.33584   0.82922   0.24718   0.00000  Uiso   1.00
O217   O     0.26902   0.63315   0.29224   0.00000  Uiso   1.00
O218   O     0.33781   0.59188   0.28237   0.00000  Uiso   1.00
O219   O     0.33156   0.67626   0.25219   0.00000  Uiso   1.00
O220   O     0.16518   0.91120   0.04961   0.00000  Uiso   1.00
O221   O     0.22629   0.85949   0.03789   0.00000  Uiso   1.00
O222   O     0.31547   0.71026   0.16666   0.00000  Uiso   1.00
O223   O     0.16239   0.82952   0.08660   0.00000  Uiso   1.00
O224   O     0.11126   0.86280   0.23825   0.00000  Uiso   1.00
O225   O     0.40852   0.63201   0.20553   0.00000  Uiso   1.00
O226   O     0.40041   0.87044   0.12635   0.00000  Uiso   1.00
O227   O     0.08467   0.64148   0.11629   0.00000  Uiso   1.00
O228   O     0.31547   0.78974   0.16666   0.00000  Uiso   1.00
O229   O     0.18453   0.71026   0.16667   0.00000  Uiso   1.00
O230   O     0.25000   0.78973   0.09511   0.00000  Uiso   1.00
O231   O     0.25000   0.71027   0.23822   0.00000  Uiso   1.00
O232   O     0.25000   0.78973   0.23822   0.00000  Uiso   1.00
O233   O     0.25000   0.71027   0.09511   0.00000  Uiso   1.00
O234   O     0.23113   0.63143   0.04073   0.00000  Uiso   1.00
S235   S     0.19564   0.62502   0.07530   0.00000  Uiso   1.00
S236   S     0.30438   0.87502   0.25884   0.00000  Uiso   1.00
S237   S     0.30455   0.62581   0.25797   0.00000  Uiso   1.00
S238   S     0.19514   0.87454   0.07464   0.00000  Uiso   1.00
Zn239  Zn    0.25000   0.80307   0.16667   0.00000  Uiso   1.00
Zn240  Zn    0.25000   0.69693   0.16667   0.00000  Uiso   1.00
C241   C     0.66431   0.74973   0.17027   0.00000  Uiso   1.00
C242   C     0.73041   0.94788   0.12634   0.00000  Uiso   1.00
C243   C     0.74985   0.74998   0.07294   0.00000  Uiso   1.00
C244   C     0.75020   0.75001   0.26040   0.00000  Uiso   1.00
C245   C     0.75011   0.52668   0.16663   0.00000  Uiso   1.00
C246   C     0.75016   0.97373   0.16663   0.00000  Uiso   1.00
C247   C     0.74998   0.74993   0.02177   0.00000  Uiso   1.00
C248   C     0.75008   0.74998   0.31157   0.00000  Uiso   1.00
C249   C     0.55230   0.79080   0.20315   0.00000  Uiso   1.00
C250   C     0.95503   0.71586   0.19400   0.00000  Uiso   1.00
C251   C     0.95346   0.79460   0.16222   0.00000  Uiso   1.00
C252   C     0.83600   0.75000   0.16412   0.00000  Uiso   1.00
C253   C     0.54347   0.71615   0.16171   0.00000  Uiso   1.00
C254   C     0.59854   0.78820   0.20265   0.00000  Uiso   1.00
C255   C     0.90988   0.71045   0.17971   0.00000  Uiso   1.00
C256   C     0.90719   0.79198   0.15174   0.00000  Uiso   1.00
C257   C     0.58911   0.71113   0.16280   0.00000  Uiso   1.00
C258   C     0.61713   0.74920   0.17944   0.00000  Uiso   1.00
C259   C     0.88466   0.75019   0.16307   0.00000  Uiso   1.00
C260   C     0.52514   0.75509   0.18246   0.00000  Uiso   1.00
C261   C     0.97707   0.75665   0.18293   0.00000  Uiso   1.00
C262   C     0.62652   0.82454   0.23024   0.00000  Uiso   1.00
C263   C     0.72260   0.60114   0.13150   0.00000  Uiso   1.00
C264   C     0.89222   0.66197   0.17721   0.00000  Uiso   1.00
C265   C     0.88415   0.83138   0.12434   0.00000  Uiso   1.00
C266   C     0.60512   0.66441   0.14945   0.00000  Uiso   1.00
C267   C     0.77262   0.89916   0.20560   0.00000  Uiso   1.00
C268   C     0.77747   0.60150   0.20183   0.00000  Uiso   1.00
C269   C     0.72746   0.89893   0.12769   0.00000  Uiso   1.00
C270   C     0.72068   0.55219   0.13375   0.00000  Uiso   1.00
C271   C     0.76990   0.94811   0.20691   0.00000  Uiso   1.00
C272   C     0.77949   0.55258   0.19952   0.00000  Uiso   1.00
H273   H     0.53735   0.81988   0.22087   0.00000  Uiso   1.00
H274   H     0.84593   0.81601   0.28038   0.00000  Uiso   1.00
H275   H     0.84149   0.68619   0.28683   0.00000  Uiso   1.00
H276   H     0.63639   0.84356   0.10069   0.00000  Uiso   1.00
H277   H     0.66076   0.81734   0.24462   0.00000  Uiso   1.00
H278   H     0.86561   0.65191   0.14901   0.00000  Uiso   1.00
H279   H     0.85282   0.82586   0.10134   0.00000  Uiso   1.00
H280   H     0.63410   0.64898   0.17014   0.00000  Uiso   1.00
H281   H     0.97429   0.68629   0.20887   0.00000  Uiso   1.00
H282   H     0.97154   0.82503   0.15129   0.00000  Uiso   1.00
H283   H     0.52180   0.68843   0.14600   0.00000  Uiso   1.00
H284   H     0.69683   0.53414   0.10802   0.00000  Uiso   1.00
H285   H     0.78344   0.96603   0.24028   0.00000  Uiso   1.00
H286   H     0.80340   0.53483   0.22518   0.00000  Uiso   1.00
H287   H     0.71696   0.96564   0.09297   0.00000  Uiso   1.00
H288   H     0.65964   0.68531   0.04584   0.00000  Uiso   1.00
N289   N     0.75000   0.62623   0.16667   0.00000  Uiso   1.00
N290   N     0.75000   0.87377   0.16667   0.00000  Uiso   1.00
O291   O     0.68453   0.78974   0.16667   0.00000  Uiso   1.00
O292   O     0.66160   0.59113   0.05156   0.00000  Uiso   1.00
O293   O     0.66972   0.67591   0.08055   0.00000  Uiso   1.00
O294   O     0.83550   0.91150   0.28293   0.00000  Uiso   1.00
O295   O     0.77262   0.86134   0.29565   0.00000  Uiso   1.00
O296   O     0.83584   0.82922   0.24718   0.00000  Uiso   1.00
O297   O     0.76902   0.63315   0.29224   0.00000  Uiso   1.00
O298   O     0.83781   0.59188   0.28237   0.00000  Uiso   1.00
O299   O     0.83156   0.67626   0.25219   0.00000  Uiso   1.00
O300   O     0.66518   0.91120   0.04961   0.00000  Uiso   1.00
O301   O     0.72629   0.85949   0.03789   0.00000  Uiso   1.00
O302   O     0.81547   0.71026   0.16666   0.00000  Uiso   1.00
O303   O     0.66239   0.82952   0.08660   0.00000  Uiso   1.00
O304   O     0.61126   0.86280   0.23825   0.00000  Uiso   1.00
O305   O     0.90852   0.63201   0.20553   0.00000  Uiso   1.00
O306   O     0.90041   0.87044   0.12635   0.00000  Uiso   1.00
O307   O     0.58467   0.64148   0.11629   0.00000  Uiso   1.00
O308   O     0.81547   0.78974   0.16666   0.00000  Uiso   1.00
O309   O     0.68453   0.71026   0.16667   0.00000  Uiso   1.00
O310   O     0.75000   0.78973   0.09511   0.00000  Uiso   1.00
O311   O     0.75000   0.71027   0.23822   0.00000  Uiso   1.00
O312   O     0.75000   0.78973   0.23822   0.00000  Uiso   1.00
O313   O     0.75000   0.71027   0.09511   0.00000  Uiso   1.00
O314   O     0.73113   0.63143   0.04073   0.00000  Uiso   1.00
S315   S     0.69564   0.62502   0.07530   0.00000  Uiso   1.00
S316   S     0.80438   0.87502   0.25884   0.00000  Uiso   1.00
S317   S     0.80455   0.62581   0.25797   0.00000  Uiso   1.00
S318   S     0.69514   0.87454   0.07464   0.00000  Uiso   1.00
Zn319  Zn    0.75000   0.80307   0.16667   0.00000  Uiso   1.00
Zn320  Zn    0.75000   0.69693   0.16667   0.00000  Uiso   1.00
C321   C     0.16431   0.24973   0.50360   0.00000  Uiso   1.00
C322   C     0.23041   0.44788   0.45967   0.00000  Uiso   1.00
C323   C     0.24985   0.24998   0.40627   0.00000  Uiso   1.00
C324   C     0.25020   0.25001   0.59373   0.00000  Uiso   1.00
C325   C     0.25011   0.02668   0.49997   0.00000  Uiso   1.00
C326   C     0.25016   0.47373   0.49996   0.00000  Uiso   1.00
C327   C     0.24998   0.24993   0.35510   0.00000  Uiso   1.00
C328   C     0.25008   0.24998   0.64490   0.00000  Uiso   1.00
C329   C     0.05230   0.29080   0.53648   0.00000  Uiso   1.00
C330   C     0.45503   0.21586   0.52733   0.00000  Uiso   1.00
C331   C     0.45346   0.29460   0.49555   0.00000  Uiso   1.00
C332   C     0.33600   0.25000   0.49745   0.00000  Uiso   1.00
C333   C     0.04347   0.21615   0.49504   0.00000  Uiso   1.00
C334   C     0.09854   0.28820   0.53599   0.00000  Uiso   1.00
C335   C     0.40988   0.21045   0.51304   0.00000  Uiso   1.00
C336   C     0.40719   0.29198   0.48507   0.00000  Uiso   1.00
C337   C     0.08911   0.21113   0.49613   0.00000  Uiso   1.00
C338   C     0.11713   0.24920   0.51277   0.00000  Uiso   1.00
C339   C     0.38466   0.25019   0.49641   0.00000  Uiso   1.00
C340   C     0.02514   0.25509   0.51579   0.00000  Uiso   1.00
C341   C     0.47707   0.25665   0.51626   0.00000  Uiso   1.00
C342   C     0.12652   0.32454   0.56358   0.00000  Uiso   1.00
C343   C     0.22260   0.10114   0.46483   0.00000  Uiso   1.00
C344   C     0.39222   0.16197   0.51054   0.00000  Uiso   1.00
C345   C     0.38415   0.33138   0.45767   0.00000  Uiso   1.00
C346   C     0.10512   0.16441   0.48278   0.00000  Uiso   1.00
C347   C     0.27262   0.39916   0.53893   0.00000  Uiso   1.00
C348   C     0.27747   0.10150   0.53516   0.00000  Uiso   1.00
C349   C     0.22746   0.39893   0.46102   0.00000  Uiso   1.00
C350   C     0.22068   0.05219   0.46709   0.00000  Uiso   1.00
C351   C     0.26990   0.44811   0.54024   0.00000  Uiso   1.00
C352   C     0.27949   0.05258   0.53286   0.00000  Uiso   1.00
H353   H     0.03735   0.31988   0.55421   0.00000  Uiso   1.00
H354   H     0.34593   0.31601   0.61371   0.00000  Uiso   1.00
H355   H     0.34149   0.18619   0.62016   0.00000  Uiso   1.00
H356   H     0.13639   0.34356   0.43402   0.00000  Uiso   1.00
H357   H     0.16076   0.31734   0.57795   0.00000  Uiso   1.00
H358   H     0.36561   0.15191   0.48234   0.00000  Uiso   1.00
H359   H     0.35282   0.32586   0.43468   0.00000  Uiso   1.00
H360   H     0.13410   0.14898   0.50347   0.00000  Uiso   1.00
H361   H     0.47429   0.18629   0.54220   0.00000  Uiso   1.00
H362   H     0.47154   0.32503   0.48462   0.00000  Uiso   1.00
H363   H     0.02180   0.18843   0.47934   0.00000  Uiso   1.00
H364   H     0.19683   0.03414   0.44135   0.00000  Uiso   1.00
H365   H     0.28344   0.46603   0.57362   0.00000  Uiso   1.00
H366   H     0.30340   0.03483   0.55852   0.00000  Uiso   1.00
H367   H     0.21696   0.46564   0.42630   0.00000  Uiso   1.00
H368   H     0.15964   0.18531   0.37917   0.00000  Uiso   1.00
N369   N     0.25000   0.12623   0.50000   0.00000  Uiso   1.00
N370   N     0.25000   0.37377   0.50000   0.00000  Uiso   1.00
O371   O     0.18453   0.28974   0.50000   0.00000  Uiso   1.00
O372   O     0.16160   0.09113   0.38490   0.00000  Uiso   1.00
O373   O     0.16972   0.17591   0.41389   0.00000  Uiso   1.00
O374   O     0.33550   0.41150   0.61626   0.00000  Uiso   1.00
O375   O     0.27262   0.36134   0.62898   0.00000  Uiso   1.00
O376   O     0.33584   0.32922   0.58051   0.00000  Uiso   1.00
O377   O     0.26902   0.13315   0.62557   0.00000  Uiso   1.00
O378   O     0.33781   0.09188   0.61570   0.00000  Uiso   1.00
O379   O     0.33156   0.17626   0.58552   0.00000  Uiso   1.00
O380   O     0.16518   0.41120   0.38295   0.00000  Uiso   1.00
O381   O     0.22629   0.35949   0.37123   0.00000  Uiso   1.00
O382   O     0.31547   0.21026   0.50000   0.00000  Uiso   1.00
O383   O     0.16239   0.32952   0.41994   0.00000  Uiso   1.00
O384   O     0.11126   0.36280   0.57159   0.00000  Uiso   1.00
O385   O     0.40852   0.13201   0.53886   0.00000  Uiso   1.00
O386   O     0.40041   0.37044   0.45968   0.00000  Uiso   1.00
O387   O     0.08467   0.14148   0.44962   0.00000  Uiso   1.00
O388   O     0.31547   0.28974   0.50000   0.00000  Uiso   1.00
O389   O     0.18453   0.21026   0.50000   0.00000  Uiso   1.00
O390   O     0.25000   0.28973   0.42845   0.00000  Uiso   1.00
O391   O     0.25000   0.21027   0.57155   0.00000  Uiso   1.00
O392   O     0.25000   0.28973   0.57155   0.00000  Uiso   1.00
O393   O     0.25000   0.21027   0.42845   0.00000  Uiso   1.00
O394   O     0.23113   0.13143   0.37406   0.00000  Uiso   1.00
S395   S     0.19564   0.12502   0.40863   0.00000  Uiso   1.00
S396   S     0.30438   0.37502   0.59217   0.00000  Uiso   1.00
S397   S     0.30455   0.12581   0.59131   0.00000  Uiso   1.00
S398   S     0.19514   0.37454   0.40797   0.00000  Uiso   1.00
Zn399  Zn    0.25000   0.30307   0.50000   0.00000  Uiso   1.00
Zn400  Zn    0.25000   0.19693   0.50000   0.00000  Uiso   1.00
C401   C     0.66431   0.24973   0.50360   0.00000  Uiso   1.00
C402   C     0.73041   0.44788   0.45967   0.00000  Uiso   1.00
C403   C     0.74985   0.24998   0.40627   0.00000  Uiso   1.00
C404   C     0.75020   0.25001   0.59373   0.00000  Uiso   1.00
C405   C     0.75011   0.02668   0.49997   0.00000  Uiso   1.00
C406   C     0.75016   0.47373   0.49996   0.00000  Uiso   1.00
C407   C     0.74998   0.24993   0.35510   0.00000  Uiso   1.00
C408   C     0.75008   0.24998   0.64490   0.00000  Uiso   1.00
C409   C     0.55230   0.29080   0.53648   0.00000  Uiso   1.00
C410   C     0.95503   0.21586   0.52733   0.00000  Uiso   1.00
C411   C     0.95346   0.29460   0.49555   0.00000  Uiso   1.00
C412   C     0.83600   0.25000   0.49745   0.00000  Uiso   1.00
C413   C     0.54347   0.21615   0.49504   0.00000  Uiso   1.00
C414   C     0.59854   0.28820   0.53599   0.00000  Uiso   1.00
C415   C     0.90988   0.21045   0.51304   0.00000  Uiso   1.00
C416   C     0.90719   0.29198   0.48507   0.00000  Uiso   1.00
C417   C     0.58911   0.21113   0.49613   0.00000  Uiso   1.00
C418   C     0.61713   0.24920   0.51277   0.00000  Uiso   1.00
C419   C     0.88466   0.25019   0.49641   0.00000  Uiso   1.00
C420   C     0.52514   0.25509   0.51579   0.00000  Uiso   1.00
C421   C     0.97707   0.25665   0.51626   0.00000  Uiso   1.00
C422   C     0.62652   0.32454   0.56358   0.00000  Uiso   1.00
C423   C     0.72260   0.10114   0.46483   0.00000  Uiso   1.00
C424   C     0.89222   0.16197   0.51054   0.00000  Uiso   1.00
C425   C     0.88415   0.33138   0.45767   0.00000  Uiso   1.00
C426   C     0.60512   0.16441   0.48278   0.00000  Uiso   1.00
C427   C     0.77262   0.39916   0.53893   0.00000  Uiso   1.00
C428   C     0.77747   0.10150   0.53516   0.00000  Uiso   1.00
C429   C     0.72746   0.39893   0.46102   0.00000  Uiso   1.00
C430   C     0.72068   0.05219   0.46709   0.00000  Uiso   1.00
C431   C     0.76990   0.44811   0.54024   0.00000  Uiso   1.00
C432   C     0.77949   0.05258   0.53286   0.00000  Uiso   1.00
H433   H     0.53735   0.31988   0.55421   0.00000  Uiso   1.00
H434   H     0.84593   0.31601   0.61371   0.00000  Uiso   1.00
H435   H     0.84149   0.18619   0.62016   0.00000  Uiso   1.00
H436   H     0.63639   0.34356   0.43402   0.00000  Uiso   1.00
H437   H     0.66076   0.31734   0.57795   0.00000  Uiso   1.00
H438   H     0.86561   0.15191   0.48234   0.00000  Uiso   1.00
H439   H     0.85282   0.32586   0.43468   0.00000  Uiso   1.00
H440   H     0.63410   0.14898   0.50347   0.00000  Uiso   1.00
H441   H     0.97429   0.18629   0.54220   0.00000  Uiso   1.00
H442   H     0.97154   0.32503   0.48462   0.00000  Uiso   1.00
H443   H     0.52180   0.18843   0.47934   0.00000  Uiso   1.00
H444   H     0.69683   0.03414   0.44135   0.00000  Uiso   1.00
H445   H     0.78344   0.46603   0.57362   0.00000  Uiso   1.00
H446   H     0.80340   0.03483   0.55852   0.00000  Uiso   1.00
H447   H     0.71696   0.46564   0.42630   0.00000  Uiso   1.00
H448   H     0.65964   0.18531   0.37917   0.00000  Uiso   1.00
N449   N     0.75000   0.12623   0.50000   0.00000  Uiso   1.00
N450   N     0.75000   0.37377   0.50000   0.00000  Uiso   1.00
O451   O     0.68453   0.28974   0.50000   0.00000  Uiso   1.00
O452   O     0.66160   0.09113   0.38490   0.00000  Uiso   1.00
O453   O     0.66972   0.17591   0.41389   0.00000  Uiso   1.00
O454   O     0.83550   0.41150   0.61626   0.00000  Uiso   1.00
O455   O     0.77262   0.36134   0.62898   0.00000  Uiso   1.00
O456   O     0.83584   0.32922   0.58051   0.00000  Uiso   1.00
O457   O     0.76902   0.13315   0.62557   0.00000  Uiso   1.00
O458   O     0.83781   0.09188   0.61570   0.00000  Uiso   1.00
O459   O     0.83156   0.17626   0.58552   0.00000  Uiso   1.00
O460   O     0.66518   0.41120   0.38295   0.00000  Uiso   1.00
O461   O     0.72629   0.35949   0.37123   0.00000  Uiso   1.00
O462   O     0.81547   0.21026   0.50000   0.00000  Uiso   1.00
O463   O     0.66239   0.32952   0.41994   0.00000  Uiso   1.00
O464   O     0.61126   0.36280   0.57159   0.00000  Uiso   1.00
O465   O     0.90852   0.13201   0.53886   0.00000  Uiso   1.00
O466   O     0.90041   0.37044   0.45968   0.00000  Uiso   1.00
O467   O     0.58467   0.14148   0.44962   0.00000  Uiso   1.00
O468   O     0.81547   0.28974   0.50000   0.00000  Uiso   1.00
O469   O     0.68453   0.21026   0.50000   0.00000  Uiso   1.00
O470   O     0.75000   0.28973   0.42845   0.00000  Uiso   1.00
O471   O     0.75000   0.21027   0.57155   0.00000  Uiso   1.00
O472   O     0.75000   0.28973   0.57155   0.00000  Uiso   1.00
O473   O     0.75000   0.21027   0.42845   0.00000  Uiso   1.00
O474   O     0.73113   0.13143   0.37406   0.00000  Uiso   1.00
S475   S     0.69564   0.12502   0.40863   0.00000  Uiso   1.00
S476   S     0.80438   0.37502   0.59217   0.00000  Uiso   1.00
S477   S     0.80455   0.12581   0.59131   0.00000  Uiso   1.00
S478   S     0.69514   0.37454   0.40797   0.00000  Uiso   1.00
Zn479  Zn    0.75000   0.30307   0.50000   0.00000  Uiso   1.00
Zn480  Zn    0.75000   0.19693   0.50000   0.00000  Uiso   1.00
C481   C     0.16431   0.74973   0.50360   0.00000  Uiso   1.00
C482   C     0.23041   0.94788   0.45967   0.00000  Uiso   1.00
C483   C     0.24985   0.74998   0.40627   0.00000  Uiso   1.00
C484   C     0.25020   0.75001   0.59373   0.00000  Uiso   1.00
C485   C     0.25011   0.52668   0.49997   0.00000  Uiso   1.00
C486   C     0.25016   0.97373   0.49996   0.00000  Uiso   1.00
C487   C     0.24998   0.74993   0.35510   0.00000  Uiso   1.00
C488   C     0.25008   0.74998   0.64490   0.00000  Uiso   1.00
C489   C     0.05230   0.79080   0.53648   0.00000  Uiso   1.00
C490   C     0.45503   0.71586   0.52733   0.00000  Uiso   1.00
C491   C     0.45346   0.79460   0.49555   0.00000  Uiso   1.00
C492   C     0.33600   0.75000   0.49745   0.00000  Uiso   1.00
C493   C     0.04347   0.71615   0.49504   0.00000  Uiso   1.00
C494   C     0.09854   0.78820   0.53599   0.00000  Uiso   1.00
C495   C     0.40988   0.71045   0.51304   0.00000  Uiso   1.00
C496   C     0.40719   0.79198   0.48507   0.00000  Uiso   1.00
C497   C     0.08911   0.71113   0.49613   0.00000  Uiso   1.00
C498   C     0.11713   0.74920   0.51277   0.00000  Uiso   1.00
C499   C     0.38466   0.75019   0.49641   0.00000  Uiso   1.00
C500   C     0.02514   0.75509   0.51579   0.00000  Uiso   1.00
C501   C     0.47707   0.75665   0.51626   0.00000  Uiso   1.00
C502   C     0.12652   0.82454   0.56358   0.00000  Uiso   1.00
C503   C     0.22260   0.60114   0.46483   0.00000  Uiso   1.00
C504   C     0.39222   0.66197   0.51054   0.00000  Uiso   1.00
C505   C     0.38415   0.83138   0.45767   0.00000  Uiso   1.00
C506   C     0.10512   0.66441   0.48278   0.00000  Uiso   1.00
C507   C     0.27262   0.89916   0.53893   0.00000  Uiso   1.00
C508   C     0.27747   0.60150   0.53516   0.00000  Uiso   1.00
C509   C     0.22746   0.89893   0.46102   0.00000  Uiso   1.00
C510   C     0.22068   0.55219   0.46709   0.00000  Uiso   1.00
C511   C     0.26990   0.94811   0.54024   0.00000  Uiso   1.00
C512   C     0.27949   0.55258   0.53286   0.00000  Uiso   1.00
H513   H     0.03735   0.81988   0.55421   0.00000  Uiso   1.00
H514   H     0.34593   0.81601   0.61371   0.00000  Uiso   1.00
H515   H     0.34149   0.68619   0.62016   0.00000  Uiso   1.00
H516   H     0.13639   0.84356   0.43402   0.00000  Uiso   1.00
H517   H     0.16076   0.81734   0.57795   0.00000  Uiso   1.00
H518   H     0.36561   0.65191   0.48234   0.00000  Uiso   1.00
H519   H     0.35282   0.82586   0.43468   0.00000  Uiso   1.00
H520   H     0.13410   0.64898   0.50347   0.00000  Uiso   1.00
H521   H     0.47429   0.68629   0.54220   0.00000  Uiso   1.00
H522   H     0.47154   0.82503   0.48462   0.00000  Uiso   1.00
H523   H     0.02180   0.68843   0.47934   0.00000  Uiso   1.00
H524   H     0.19683   0.53414   0.44135   0.00000  Uiso   1.00
H525   H     0.28344   0.96603   0.57362   0.00000  Uiso   1.00
H526   H     0.30340   0.53483   0.55852   0.00000  Uiso   1.00
H527   H     0.21696   0.96564   0.42630   0.00000  Uiso   1.00
H528   H     0.15964   0.68531   0.37917   0.00000  Uiso   1.00
N529   N     0.25000   0.62623   0.50000   0.00000  Uiso   1.00
N530   N     0.25000   0.87377   0.50000   0.00000  Uiso   1.00
O531   O     0.18453   0.78974   0.50000   0.00000  Uiso   1.00
O532   O     0.16160   0.59113   0.38490   0.00000  Uiso   1.00
O533   O     0.16972   0.67591   0.41389   0.00000  Uiso   1.00
O534   O     0.33550   0.91150   0.61626   0.00000  Uiso   1.00
O535   O     0.27262   0.86134   0.62898   0.00000  Uiso   1.00
O536   O     0.33584   0.82922   0.58051   0.00000  Uiso   1.00
O537   O     0.26902   0.63315   0.62557   0.00000  Uiso   1.00
O538   O     0.33781   0.59188   0.61570   0.00000  Uiso   1.00
O539   O     0.33156   0.67626   0.58552   0.00000  Uiso   1.00
O540   O     0.16518   0.91120   0.38295   0.00000  Uiso   1.00
O541   O     0.22629   0.85949   0.37123   0.00000  Uiso   1.00
O542   O     0.31547   0.71026   0.50000   0.00000  Uiso   1.00
O543   O     0.16239   0.82952   0.41994   0.00000  Uiso   1.00
O544   O     0.11126   0.86280   0.57159   0.00000  Uiso   1.00
O545   O     0.40852   0.63201   0.53886   0.00000  Uiso   1.00
O546   O     0.40041   0.87044   0.45968   0.00000  Uiso   1.00
O547   O     0.08467   0.64148   0.44962   0.00000  Uiso   1.00
O548   O     0.31547   0.78974   0.50000   0.00000  Uiso   1.00
O549   O     0.18453   0.71026   0.50000   0.00000  Uiso   1.00
O550   O     0.25000   0.78973   0.42845   0.00000  Uiso   1.00
O551   O     0.25000   0.71027   0.57155   0.00000  Uiso   1.00
O552   O     0.25000   0.78973   0.57155   0.00000  Uiso   1.00
O553   O     0.25000   0.71027   0.42845   0.00000  Uiso   1.00
O554   O     0.23113   0.63143   0.37406   0.00000  Uiso   1.00
S555   S     0.19564   0.62502   0.40863   0.00000  Uiso   1.00
S556   S     0.30438   0.87502   0.59217   0.00000  Uiso   1.00
S557   S     0.30455   0.62581   0.59131   0.00000  Uiso   1.00
S558   S     0.19514   0.87454   0.40797   0.00000  Uiso   1.00
Zn559  Zn    0.25000   0.80307   0.50000   0.00000  Uiso   1.00
Zn560  Zn    0.25000   0.69693   0.50000   0.00000  Uiso   1.00
C561   C     0.66431   0.74973   0.50360   0.00000  Uiso   1.00
C562   C     0.73041   0.94788   0.45967   0.00000  Uiso   1.00
C563   C     0.74985   0.74998   0.40627   0.00000  Uiso   1.00
C564   C     0.75020   0.75001   0.59373   0.00000  Uiso   1.00
C565   C     0.75011   0.52668   0.49997   0.00000  Uiso   1.00
C566   C     0.75016   0.97373   0.49996   0.00000  Uiso   1.00
C567   C     0.74998   0.74993   0.35510   0.00000  Uiso   1.00
C568   C     0.75008   0.74998   0.64490   0.00000  Uiso   1.00
C569   C     0.55230   0.79080   0.53648   0.00000  Uiso   1.00
C570   C     0.95503   0.71586   0.52733   0.00000  Uiso   1.00
C571   C     0.95346   0.79460   0.49555   0.00000  Uiso   1.00
C572   C     0.83600   0.75000   0.49745   0.00000  Uiso   1.00
C573   C     0.54347   0.71615   0.49504   0.00000  Uiso   1.00
C574   C     0.59854   0.78820   0.53599   0.00000  Uiso   1.00
C575   C     0.90988   0.71045   0.51304   0.00000  Uiso   1.00
C576   C     0.90719   0.79198   0.48507   0.00000  Uiso   1.00
C577   C     0.58911   0.71113   0.49613   0.00000  Uiso   1.00
C578   C     0.61713   0.74920   0.51277   0.00000  Uiso   1.00
C579   C     0.88466   0.75019   0.49641   0.00000  Uiso   1.00
C580   C     0.52514   0.75509   0.51579   0.00000  Uiso   1.00
C581   C     0.97707   0.75665   0.51626   0.00000  Uiso   1.00
C582   C     0.62652   0.82454   0.56358   0.00000  Uiso   1.00
C583   C     0.72260   0.60114   0.46483   0.00000  Uiso   1.00
C584   C     0.89222   0.66197   0.51054   0.00000  Uiso   1.00
C585   C     0.88415   0.83138   0.45767   0.00000  Uiso   1.00
C586   C     0.60512   0.66441   0.48278   0.00000  Uiso   1.00
C587   C     0.77262   0.89916   0.53893   0.00000  Uiso   1.00
C588   C     0.77747   0.60150   0.53516   0.00000  Uiso   1.00
C589   C     0.72746   0.89893   0.46102   0.00000  Uiso   1.00
C590   C     0.72068   0.55219   0.46709   0.00000  Uiso   1.00
C591   C     0.76990   0.94811   0.54024   0.00000  Uiso   1.00
C592   C     0.77949   0.55258   0.53286   0.00000  Uiso   1.00
H593   H     0.53735   0.81988   0.55421   0.00000  Uiso   1.00
H594   H     0.84593   0.81601   0.61371   0.00000  Uiso   1.00
H595   H     0.84149   0.68619   0.62016   0.00000  Uiso   1.00
H596   H     0.63639   0.84356   0.43402   0.00000  Uiso   1.00
H597   H     0.66076   0.81734   0.57795   0.00000  Uiso   1.00
H598   H     0.86561   0.65191   0.48234   0.00000  Uiso   1.00
H599   H     0.85282   0.82586   0.43468   0.00000  Uiso   1.00
H600   H     0.63410   0.64898   0.50347   0.00000  Uiso   1.00
H601   H     0.97429   0.68629   0.54220   0.00000  Uiso   1.00
H602   H     0.97154   0.82503   0.48462   0.00000  Uiso   1.00
H603   H     0.52180   0.68843   0.47934   0.00000  Uiso   1.00
H604   H     0.69683   0.53414   0.44135   0.00000  Uiso   1.00
H605   H     0.78344   0.96603   0.57362   0.00000  Uiso   1.00
H606   H     0.80340   0.53483   0.55852   0.00000  Uiso   1.00
H607   H     0.71696   0.96564   0.42630   0.00000  Uiso   1.00
H608   H     0.65964   0.68531   0.37917   0.00000  Uiso   1.00
N609   N     0.75000   0.62623   0.50000   0.00000  Uiso   1.00
N610   N     0.75000   0.87377   0.50000   0.00000  Uiso   1.00
O611   O     0.68453   0.78974   0.50000   0.00000  Uiso   1.00
O612   O     0.66160   0.59113   0.38490   0.00000  Uiso   1.00
O613   O     0.66972   0.67591   0.41389   0.00000  Uiso   1.00
O614   O     0.83550   0.91150   0.61626   0.00000  Uiso   1.00
O615   O     0.77262   0.86134   0.62898   0.00000  Uiso   1.00
O616   O     0.83584   0.82922   0.58051   0.00000  Uiso   1.00
O617   O     0.76902   0.63315   0.62557   0.00000  Uiso   1.00
O618   O     0.83781   0.59188   0.61570   0.00000  Uiso   1.00
O619   O     0.83156   0.67626   0.58552   0.00000  Uiso   1.00
O620   O     0.66518   0.91120   0.38295   0.00000  Uiso   1.00
O621   O     0.72629   0.85949   0.37123   0.00000  Uiso   1.00
O622   O     0.81547   0.71026   0.50000   0.00000  Uiso   1.00
O623   O     0.66239   0.82952   0.41994   0.00000  Uiso   1.00
O624   O     0.61126   0.86280   0.57159   0.00000  Uiso   1.00
O625   O     0.90852   0.63201   0.53886   0.00000  Uiso   1.00
O626   O     0.90041   0.87044   0.45968   0.00000  Uiso   1.00
O627   O     0.58467   0.64148   0.44962   0.00000  Uiso   1.00
O628   O     0.81547   0.78974   0.50000   0.00000  Uiso   1.00
O629   O     0.68453   0.71026   0.50000   0.00000  Uiso   1.00
O630   O     0.75000   0.78973   0.42845   0.00000  Uiso   1.00
O631   O     0.75000   0.71027   0.57155   0.00000  Uiso   1.00
O632   O     0.75000   0.78973   0.57155   0.00000  Uiso   1.00
O633   O     0.75000   0.71027   0.42845   0.00000  Uiso   1.00
O634   O     0.73113   0.63143   0.37406   0.00000  Uiso   1.00
S635   S     0.69564   0.62502   0.40863   0.00000  Uiso   1.00
S636   S     0.80438   0.87502   0.59217   0.00000  Uiso   1.00
S637   S     0.80455   0.62581   0.59131   0.00000  Uiso   1.00
S638   S     0.69514   0.87454   0.40797   0.00000  Uiso   1.00
Zn639  Zn    0.75000   0.80307   0.50000   0.00000  Uiso   1.00
Zn640  Zn    0.75000   0.69693   0.50000   0.00000  Uiso   1.00
C641   C     0.16431   0.24973   0.83693   0.00000  Uiso   1.00
C642   C     0.23041   0.44788   0.79301   0.00000  Uiso   1.00
C643   C     0.24985   0.24998   0.73960   0.00000  Uiso   1.00
C644   C     0.25020   0.25001   0.92707   0.00000  Uiso   1.00
C645   C     0.25011   0.02668   0.83330   0.00000  Uiso   1.00
C646   C     0.25016   0.47373   0.83329   0.00000  Uiso   1.00
C647   C     0.24998   0.24993   0.68843   0.00000  Uiso   1.00
C648   C     0.25008   0.24998   0.97823   0.00000  Uiso   1.00
C649   C     0.05230   0.29080   0.86982   0.00000  Uiso   1.00
C650   C     0.45503   0.21586   0.86066   0.00000  Uiso   1.00
C651   C     0.45346   0.29460   0.82888   0.00000  Uiso   1.00
C652   C     0.33600   0.25000   0.83078   0.00000  Uiso   1.00
C653   C     0.04347   0.21615   0.82838   0.00000  Uiso   1.00
C654   C     0.09854   0.28820   0.86932   0.00000  Uiso   1.00
C655   C     0.40988   0.21045   0.84637   0.00000  Uiso   1.00
C656   C     0.40719   0.29198   0.81840   0.00000  Uiso   1.00
C657   C     0.08911   0.21113   0.82947   0.00000  Uiso   1.00
C658   C     0.11713   0.24920   0.84611   0.00000  Uiso   1.00
C659   C     0.38466   0.25019   0.82974   0.00000  Uiso   1.00
C660   C     0.02514   0.25509   0.84912   0.00000  Uiso   1.00
C661   C     0.47707   0.25665   0.84960   0.00000  Uiso   1.00
C662   C     0.12652   0.32454   0.89691   0.00000  Uiso   1.00
C663   C     0.22260   0.10114   0.79816   0.00000  Uiso   1.00
C664   C     0.39222   0.16197   0.84388   0.00000  Uiso   1.00
C665   C     0.38415   0.33138   0.79101   0.00000  Uiso   1.00
C666   C     0.10512   0.16441   0.81611   0.00000  Uiso   1.00
C667   C     0.27262   0.39916   0.87227   0.00000  Uiso   1.00
C668   C     0.27747   0.10150   0.86849   0.00000  Uiso   1.00
C669   C     0.22746   0.39893   0.79435   0.00000  Uiso   1.00
C670   C     0.22068   0.05219   0.80042   0.00000  Uiso   1.00
C671   C     0.26990   0.44811   0.87358   0.00000  Uiso   1.00
C672   C     0.27949   0.05258   0.86619   0.00000  Uiso   1.00
H673   H     0.03735   0.31988   0.88754   0.00000  Uiso   1.00
H674   H     0.34593   0.31601   0.94705   0.00000  Uiso   1.00
H675   H     0.34149   0.18619   0.95350   0.00000  Uiso   1.00
H676   H     0.13639   0.34356   0.76736   0.00000  Uiso   1.00
H677   H     0.16076   0.31734   0.91129   0.00000  Uiso   1.00
H678   H     0.36561   0.15191   0.81567   0.00000  Uiso   1.00
H679   H     0.35282   0.32586   0.76801   0.00000  Uiso   1.00
H680   H     0.13410   0.14898   0.83680   0.00000  Uiso   1.00
H681   H     0.47429   0.18629   0.87553   0.00000  Uiso   1.00
H682   H     0.47154   0.32503   0.81795   0.00000  Uiso   1.00
H683   H     0.02180   0.18843   0.81267   0.00000  Uiso   1.00
H684   H     0.19683   0.03414   0.77469   0.00000  Uiso   1.00
H685   H     0.28344   0.46603   0.90695   0.00000  Uiso   1.00
H686   H     0.30340   0.03483   0.89185   0.00000  Uiso   1.00
H687   H     0.21696   0.46564   0.75964   0.00000  Uiso   1.00
H688   H     0.15964   0.18531   0.71250   0.00000  Uiso   1.00
N689   N     0.25000   0.12623   0.83333   0.00000  Uiso   1.00
N690   N     0.25000   0.37377   0.83333   0.00000  Uiso   1.00
O691   O     0.18453   0.28974   0.83334   0.00000  Uiso   1.00
O692   O     0.16160   0.09113   0.71823   0.00000  Uiso   1.00
O693   O     0.16972   0.17591   0.74722   0.00000  Uiso   1.00
O694   O     0.33550   0.41150   0.94959   0.00000  Uiso   1.00
O695   O     0.27262   0.36134   0.96231   0.00000  Uiso   1.00
O696   O     0.33584   0.32922   0.91384   0.00000  Uiso   1.00
O697   O     0.26902   0.13315   0.95891   0.00000  Uiso   1.00
O698   O     0.33781   0.09188   0.94903   0.00000  Uiso   1.00
O699   O     0.33156   0.17626   0.91886   0.00000  Uiso   1.00
O700   O     0.16518   0.41120   0.71628   0.00000  Uiso   1.00
O701   O     0.22629   0.35949   0.70456   0.00000  Uiso   1.00
O702   O     0.31547   0.21026   0.83333   0.00000  Uiso   1.00
O703   O     0.16239   0.32952   0.75327   0.00000  Uiso   1.00
O704   O     0.11126   0.36280   0.90492   0.00000  Uiso   1.00
O705   O     0.40852   0.13201   0.87220   0.00000  Uiso   1.00
O706   O     0.40041   0.37044   0.79302   0.00000  Uiso   1.00
O707   O     0.08467   0.14148   0.78296   0.00000  Uiso   1.00
O708   O     0.31547   0.28974   0.83333   0.00000  Uiso   1.00
O709   O     0.18453   0.21026   0.83334   0.00000  Uiso   1.00
O710   O     0.25000   0.28973   0.76178   0.00000  Uiso   1.00
O711   O     0.25000   0.21027   0.90489   0.00000  Uiso   1.00
O712   O     0.25000   0.28973   0.90489   0.00000  Uiso   1.00
O713   O     0.25000   0.21027   0.76178   0.00000  Uiso   1.00
O714   O     0.23113   0.13143   0.70740   0.00000  Uiso   1.00
S715   S     0.19564   0.12502   0.74197   0.00000  Uiso   1.00
S716   S     0.30438   0.37502   0.92551   0.00000  Uiso   1.00
S717   S     0.30455   0.12581   0.92464   0.00000  Uiso   1.00
S718   S     0.19514   0.37454   0.74131   0.00000  Uiso   1.00
Zn719  Zn    0.25000   0.30307   0.83333   0.00000  Uiso   1.00
Zn720  Zn    0.25000   0.19693   0.83333   0.00000  Uiso   1.00
C721   C     0.66431   0.24973   0.83693   0.00000  Uiso   1.00
C722   C     0.73041   0.44788   0.79301   0.00000  Uiso   1.00
C723   C     0.74985   0.24998   0.73960   0.00000  Uiso   1.00
C724   C     0.75020   0.25001   0.92707   0.00000  Uiso   1.00
C725   C     0.75011   0.02668   0.83330   0.00000  Uiso   1.00
C726   C     0.75016   0.47373   0.83329   0.00000  Uiso   1.00
C727   C     0.74998   0.24993   0.68843   0.00000  Uiso   1.00
C728   C     0.75008   0.24998   0.97823   0.00000  Uiso   1.00
C729   C     0.55230   0.29080   0.86982   0.00000  Uiso   1.00
C730   C     0.95503   0.21586   0.86066   0.00000  Uiso   1.00
C731   C     0.95346   0.29460   0.82888   0.00000  Uiso   1.00
C732   C     0.83600   0.25000   0.83078   0.00000  Uiso   1.00
C733   C     0.54347   0.21615   0.82838   0.00000  Uiso   1.00
C734   C     0.59854   0.28820   0.86932   0.00000  Uiso   1.00
C735   C     0.90988   0.21045   0.84637   0.00000  Uiso   1.00
C736   C     0.90719   0.29198   0.81840   0.00000  Uiso   1.00
C737   C     0.58911   0.21113   0.82947   0.00000  Uiso   1.00
C738   C     0.61713   0.24920   0.84611   0.00000  Uiso   1.00
C739   C     0.88466   0.25019   0.82974   0.00000  Uiso   1.00
C740   C     0.52514   0.25509   0.84912   0.00000  Uiso   1.00
C741   C     0.97707   0.25665   0.84960   0.00000  Uiso   1.00
C742   C     0.62652   0.32454   0.89691   0.00000  Uiso   1.00
C743   C     0.72260   0.10114   0.79816   0.00000  Uiso   1.00
C744   C     0.89222   0.16197   0.84388   0.00000  Uiso   1.00
C745   C     0.88415   0.33138   0.79101   0.00000  Uiso   1.00
C746   C     0.60512   0.16441   0.81611   0.00000  Uiso   1.00
C747   C     0.77262   0.39916   0.87227   0.00000  Uiso   1.00
C748   C     0.77747   0.10150   0.86849   0.00000  Uiso   1.00
C749   C     0.72746   0.39893   0.79435   0.00000  Uiso   1.00
C750   C     0.72068   0.05219   0.80042   0.00000  Uiso   1.00
C751   C     0.76990   0.44811   0.87358   0.00000  Uiso   1.00
C752   C     0.77949   0.05258   0.86619   0.00000  Uiso   1.00
H753   H     0.53735   0.31988   0.88754   0.00000  Uiso   1.00
H754   H     0.84593   0.31601   0.94705   0.00000  Uiso   1.00
H755   H     0.84149   0.18619   0.95350   0.00000  Uiso   1.00
H756   H     0.63639   0.34356   0.76736   0.00000  Uiso   1.00
H757   H     0.66076   0.31734   0.91129   0.00000  Uiso   1.00
H758   H     0.86561   0.15191   0.81567   0.00000  Uiso   1.00
H759   H     0.85282   0.32586   0.76801   0.00000  Uiso   1.00
H760   H     0.63410   0.14898   0.83680   0.00000  Uiso   1.00
H761   H     0.97429   0.18629   0.87553   0.00000  Uiso   1.00
H762   H     0.97154   0.32503   0.81795   0.00000  Uiso   1.00
H763   H     0.52180   0.18843   0.81267   0.00000  Uiso   1.00
H764   H     0.69683   0.03414   0.77469   0.00000  Uiso   1.00
H765   H     0.78344   0.46603   0.90695   0.00000  Uiso   1.00
H766   H     0.80340   0.03483   0.89185   0.00000  Uiso   1.00
H767   H     0.71696   0.46564   0.75964   0.00000  Uiso   1.00
H768   H     0.65964   0.18531   0.71250   0.00000  Uiso   1.00
N769   N     0.75000   0.12623   0.83333   0.00000  Uiso   1.00
N770   N     0.75000   0.37377   0.83333   0.00000  Uiso   1.00
O771   O     0.68453   0.28974   0.83334   0.00000  Uiso   1.00
O772   O     0.66160   0.09113   0.71823   0.00000  Uiso   1.00
O773   O     0.66972   0.17591   0.74722   0.00000  Uiso   1.00
O774   O     0.83550   0.41150   0.94959   0.00000  Uiso   1.00
O775   O     0.77262   0.36134   0.96231   0.00000  Uiso   1.00
O776   O     0.83584   0.32922   0.91384   0.00000  Uiso   1.00
O777   O     0.76902   0.13315   0.95891   0.00000  Uiso   1.00
O778   O     0.83781   0.09188   0.94903   0.00000  Uiso   1.00
O779   O     0.83156   0.17626   0.91886   0.00000  Uiso   1.00
O780   O     0.66518   0.41120   0.71628   0.00000  Uiso   1.00
O781   O     0.72629   0.35949   0.70456   0.00000  Uiso   1.00
O782   O     0.81547   0.21026   0.83333   0.00000  Uiso   1.00
O783   O     0.66239   0.32952   0.75327   0.00000  Uiso   1.00
O784   O     0.61126   0.36280   0.90492   0.00000  Uiso   1.00
O785   O     0.90852   0.13201   0.87220   0.00000  Uiso   1.00
O786   O     0.90041   0.37044   0.79302   0.00000  Uiso   1.00
O787   O     0.58467   0.14148   0.78296   0.00000  Uiso   1.00
O788   O     0.81547   0.28974   0.83333   0.00000  Uiso   1.00
O789   O     0.68453   0.21026   0.83334   0.00000  Uiso   1.00
O790   O     0.75000   0.28973   0.76178   0.00000  Uiso   1.00
O791   O     0.75000   0.21027   0.90489   0.00000  Uiso   1.00
O792   O     0.75000   0.28973   0.90489   0.00000  Uiso   1.00
O793   O     0.75000   0.21027   0.76178   0.00000  Uiso   1.00
O794   O     0.73113   0.13143   0.70740   0.00000  Uiso   1.00
S795   S     0.69564   0.12502   0.74197   0.00000  Uiso   1.00
S796   S     0.80438   0.37502   0.92551   0.00000  Uiso   1.00
S797   S     0.80455   0.12581   0.92464   0.00000  Uiso   1.00
S798   S     0.69514   0.37454   0.74131   0.00000  Uiso   1.00
Zn799  Zn    0.75000   0.30307   0.83333   0.00000  Uiso   1.00
Zn800  Zn    0.75000   0.19693   0.83333   0.00000  Uiso   1.00
C801   C     0.16431   0.74973   0.83693   0.00000  Uiso   1.00
C802   C     0.23041   0.94788   0.79301   0.00000  Uiso   1.00
C803   C     0.24985   0.74998   0.73960   0.00000  Uiso   1.00
C804   C     0.25020   0.75001   0.92707   0.00000  Uiso   1.00
C805   C     0.25011   0.52668   0.83330   0.00000  Uiso   1.00
C806   C     0.25016   0.97373   0.83329   0.00000  Uiso   1.00
C807   C     0.24998   0.74993   0.68843   0.00000  Uiso   1.00
C808   C     0.25008   0.74998   0.97823   0.00000  Uiso   1.00
C809   C     0.05230   0.79080   0.86982   0.00000  Uiso   1.00
C810   C     0.45503   0.71586   0.86066   0.00000  Uiso   1.00
C811   C     0.45346   0.79460   0.82888   0.00000  Uiso   1.00
C812   C     0.33600   0.75000   0.83078   0.00000  Uiso   1.00
C813   C     0.04347   0.71615   0.82838   0.00000  Uiso   1.00
C814   C     0.09854   0.78820   0.86932   0.00000  Uiso   1.00
C815   C     0.40988   0.71045   0.84637   0.00000  Uiso   1.00
C816   C     0.40719   0.79198   0.81840   0.00000  Uiso   1.00
C817   C     0.08911   0.71113   0.82947   0.00000  Uiso   1.00
C818   C     0.11713   0.74920   0.84611   0.00000  Uiso   1.00
C819   C     0.38466   0.75019   0.82974   0.00000  Uiso   1.00
C820   C     0.02514   0.75509   0.84912   0.00000  Uiso   1.00
C821   C     0.47707   0.75665   0.84960   0.00000  Uiso   1.00
C822   C     0.12652   0.82454   0.89691   0.00000  Uiso   1.00
C823   C     0.22260   0.60114   0.79816   0.00000  Uiso   1.00
C824   C     0.39222   0.66197   0.84388   0.00000  Uiso   1.00
C825   C     0.38415   0.83138   0.79101   0.00000  Uiso   1.00
C826   C     0.10512   0.66441   0.81611   0.00000  Uiso   1.00
C827   C     0.27262   0.89916   0.87227   0.00000  Uiso   1.00
C828   C     0.27747   0.60150   0.86849   0.00000  Uiso   1.00
C829   C     0.22746   0.89893   0.79435   0.00000  Uiso   1.00
C830   C     0.22068   0.55219   0.80042   0.00000  Uiso   1.00
C831   C     0.26990   0.94811   0.87358   0.00000  Uiso   1.00
C832   C     0.27949   0.55258   0.86619   0.00000  Uiso   1.00
H833   H     0.03735   0.81988   0.88754   0.00000  Uiso   1.00
H834   H     0.34593   0.81601   0.94705   0.00000  Uiso   1.00
H835   H     0.34149   0.68619   0.95350   0.00000  Uiso   1.00
H836   H     0.13639   0.84356   0.76736   0.00000  Uiso   1.00
H837   H     0.16076   0.81734   0.91129   0.00000  Uiso   1.00
H838   H     0.36561   0.65191   0.81567   0.00000  Uiso   1.00
H839   H     0.35282   0.82586   0.76801   0.00000  Uiso   1.00
H840   H     0.13410   0.64898   0.83680   0.00000  Uiso   1.00
H841   H     0.47429   0.68629   0.87553   0.00000  Uiso   1.00
H842   H     0.47154   0.82503   0.81795   0.00000  Uiso   1.00
H843   H     0.02180   0.68843   0.81267   0.00000  Uiso   1.00
H844   H     0.19683   0.53414   0.77469   0.00000  Uiso   1.00
H845   H     0.28344   0.96603   0.90695   0.00000  Uiso   1.00
H846   H     0.30340   0.53483   0.89185   0.00000  Uiso   1.00
H847   H     0.21696   0.96564   0.75964   0.00000  Uiso   1.00
H848   H     0.15964   0.68531   0.71250   0.00000  Uiso   1.00
N849   N     0.25000   0.62623   0.83333   0.00000  Uiso   1.00
N850   N     0.25000   0.87377   0.83333   0.00000  Uiso   1.00
O851   O     0.18453   0.78974   0.83334   0.00000  Uiso   1.00
O852   O     0.16160   0.59113   0.71823   0.00000  Uiso   1.00
O853   O     0.16972   0.67591   0.74722   0.00000  Uiso   1.00
O854   O     0.33550   0.91150   0.94959   0.00000  Uiso   1.00
O855   O     0.27262   0.86134   0.96231   0.00000  Uiso   1.00
O856   O     0.33584   0.82922   0.91384   0.00000  Uiso   1.00
O857   O     0.26902   0.63315   0.95891   0.00000  Uiso   1.00
O858   O     0.33781   0.59188   0.94903   0.00000  Uiso   1.00
O859   O     0.33156   0.67626   0.91886   0.00000  Uiso   1.00
O860   O     0.16518   0.91120   0.71628   0.00000  Uiso   1.00
O861   O     0.22629   0.85949   0.70456   0.00000  Uiso   1.00
O862   O     0.31547   0.71026   0.83333   0.00000  Uiso   1.00
O863   O     0.16239   0.82952   0.75327   0.00000  Uiso   1.00
O864   O     0.11126   0.86280   0.90492   0.00000  Uiso   1.00
O865   O     0.40852   0.63201   0.87220   0.00000  Uiso   1.00
O866   O     0.40041   0.87044   0.79302   0.00000  Uiso   1.00
O867   O     0.08467   0.64148   0.78296   0.00000  Uiso   1.00
O868   O     0.31547   0.78974   0.83333   0.00000  Uiso   1.00
O869   O     0.18453   0.71026   0.83334   0.00000  Uiso   1.00
O870   O     0.25000   0.78973   0.76178   0.00000  Uiso   1.00
O871   O     0.25000   0.71027   0.90489   0.00000  Uiso   1.00
O872   O     0.25000   0.78973   0.90489   0.00000  Uiso   1.00
O873   O     0.25000   0.71027   0.76178   0.00000  Uiso   1.00
O874   O     0.23113   0.63143   0.70740   0.00000  Uiso   1.00
S875   S     0.19564   0.62502   0.74197   0.00000  Uiso   1.00
S876   S     0.30438   0.87502   0.92551   0.00000  Uiso   1.00
S877   S     0.30455   0.62581   0.92464   0.00000  Uiso   1.00
S878   S     0.19514   0.87454   0.74131   0.00000  Uiso   1.00
Zn879  Zn    0.25000   0.80307   0.83333   0.00000  Uiso   1.00
Zn880  Zn    0.25000   0.69693   0.83333   0.00000  Uiso   1.00
C881   C     0.66431   0.74973   0.83693   0.00000  Uiso   1.00
C882   C     0.73041   0.94788   0.79301   0.00000  Uiso   1.00
C883   C     0.74985   0.74998   0.73960   0.00000  Uiso   1.00
C884   C     0.75020   0.75001   0.92707   0.00000  Uiso   1.00
C885   C     0.75011   0.52668   0.83330   0.00000  Uiso   1.00
C886   C     0.75016   0.97373   0.83329   0.00000  Uiso   1.00
C887   C     0.74998   0.74993   0.68843   0.00000  Uiso   1.00
C888   C     0.75008   0.74998   0.97823   0.00000  Uiso   1.00
C889   C     0.55230   0.79080   0.86982   0.00000  Uiso   1.00
C890   C     0.95503   0.71586   0.86066   0.00000  Uiso   1.00
C891   C     0.95346   0.79460   0.82888   0.00000  Uiso   1.00
C892   C     0.83600   0.75000   0.83078   0.00000  Uiso   1.00
C893   C     0.54347   0.71615   0.82838   0.00000  Uiso   1.00
C894   C     0.59854   0.78820   0.86932   0.00000  Uiso   1.00
C895   C     0.90988   0.71045   0.84637   0.00000  Uiso   1.00
C896   C     0.90719   0.79198   0.81840   0.00000  Uiso   1.00
C897   C     0.58911   0.71113   0.82947   0.00000  Uiso   1.00
C898   C     0.61713   0.74920   0.84611   0.00000  Uiso   1.00
C899   C     0.88466   0.75019   0.82974   0.00000  Uiso   1.00
C900   C     0.52514   0.75509   0.84912   0.00000  Uiso   1.00
C901   C     0.97707   0.75665   0.84960   0.00000  Uiso   1.00
C902   C     0.62652   0.82454   0.89691   0.00000  Uiso   1.00
C903   C     0.72260   0.60114   0.79816   0.00000  Uiso   1.00
C904   C     0.89222   0.66197   0.84388   0.00000  Uiso   1.00
C905   C     0.88415   0.83138   0.79101   0.00000  Uiso   1.00
C906   C     0.60512   0.66441   0.81611   0.00000  Uiso   1.00
C907   C     0.77262   0.89916   0.87227   0.00000  Uiso   1.00
C908   C     0.77747   0.60150   0.86849   0.00000  Uiso   1.00
C909   C     0.72746   0.89893   0.79435   0.00000  Uiso   1.00
C910   C     0.72068   0.55219   0.80042   0.00000  Uiso   1.00
C911   C     0.76990   0.94811   0.87358   0.00000  Uiso   1.00
C912   C     0.77949   0.55258   0.86619   0.00000  Uiso   1.00
H913   H     0.53735   0.81988   0.88754   0.00000  Uiso   1.00
H914   H     0.84593   0.81601   0.94705   0.00000  Uiso   1.00
H915   H     0.84149   0.68619   0.95350   0.00000  Uiso   1.00
H916   H     0.63639   0.84356   0.76736   0.00000  Uiso   1.00
H917   H     0.66076   0.81734   0.91129   0.00000  Uiso   1.00
H918   H     0.86561   0.65191   0.81567   0.00000  Uiso   1.00
H919   H     0.85282   0.82586   0.76801   0.00000  Uiso   1.00
H920   H     0.63410   0.64898   0.83680   0.00000  Uiso   1.00
H921   H     0.97429   0.68629   0.87553   0.00000  Uiso   1.00
H922   H     0.97154   0.82503   0.81795   0.00000  Uiso   1.00
H923   H     0.52180   0.68843   0.81267   0.00000  Uiso   1.00
H924   H     0.69683   0.53414   0.77469   0.00000  Uiso   1.00
H925   H     0.78344   0.96603   0.90695   0.00000  Uiso   1.00
H926   H     0.80340   0.53483   0.89185   0.00000  Uiso   1.00
H927   H     0.71696   0.96564   0.75964   0.00000  Uiso   1.00
H928   H     0.65964   0.68531   0.71250   0.00000  Uiso   1.00
N929   N     0.75000   0.62623   0.83333   0.00000  Uiso   1.00
N930   N     0.75000   0.87377   0.83333   0.00000  Uiso   1.00
O931   O     0.68453   0.78974   0.83334   0.00000  Uiso   1.00
O932   O     0.66160   0.59113   0.71823   0.00000  Uiso   1.00
O933   O     0.66972   0.67591   0.74722   0.00000  Uiso   1.00
O934   O     0.83550   0.91150   0.94959   0.00000  Uiso   1.00
O935   O     0.77262   0.86134   0.96231   0.00000  Uiso   1.00
O936   O     0.83584   0.82922   0.91384   0.00000  Uiso   1.00
O937   O     0.76902   0.63315   0.95891   0.00000  Uiso   1.00
O938   O     0.83781   0.59188   0.94903   0.00000  Uiso   1.00
O939   O     0.83156   0.67626   0.91886   0.00000  Uiso   1.00
O940   O     0.66518   0.91120   0.71628   0.00000  Uiso   1.00
O941   O     0.72629   0.85949   0.70456   0.00000  Uiso   1.00
O942   O     0.81547   0.71026   0.83333   0.00000  Uiso   1.00
O943   O     0.66239   0.82952   0.75327   0.00000  Uiso   1.00
O944   O     0.61126   0.86280   0.90492   0.00000  Uiso   1.00
O945   O     0.90852   0.63201   0.87220   0.00000  Uiso   1.00
O946   O     0.90041   0.87044   0.79302   0.00000  Uiso   1.00
O947   O     0.58467   0.64148   0.78296   0.00000  Uiso   1.00
O948   O     0.81547   0.78974   0.83333   0.00000  Uiso   1.00
O949   O     0.68453   0.71026   0.83334   0.00000  Uiso   1.00
O950   O     0.75000   0.78973   0.76178   0.00000  Uiso   1.00
O951   O     0.75000   0.71027   0.90489   0.00000  Uiso   1.00
O952   O     0.75000   0.78973   0.90489   0.00000  Uiso   1.00
O953   O     0.75000   0.71027   0.76178   0.00000  Uiso   1.00
O954   O     0.73113   0.63143   0.70740   0.00000  Uiso   1.00
S955   S     0.69564   0.62502   0.74197   0.00000  Uiso   1.00
S956   S     0.80438   0.87502   0.92551   0.00000  Uiso   1.00
S957   S     0.80455   0.62581   0.92464   0.00000  Uiso   1.00
S958   S     0.69514   0.87454   0.74131   0.00000  Uiso   1.00
Zn959  Zn    0.75000   0.80307   0.83333   0.00000  Uiso   1.00
Zn960  Zn    0.75000   0.69693   0.83333   0.00000  Uiso   1.00
loop_
_geom_bond_atom_site_label_1
_geom_bond_atom_site_label_2
_geom_bond_distance
_geom_bond_site_symmetry_2
_ccdc_geom_bond_type
C1     C18     1.465   .     S
C1     O69     1.298   .     A
C1     O51     1.307   .     A
C2     C6      1.394   .     A
C2     C29     1.410   .     A
C2     H47     1.077   .     S
C3     C7      1.378   .     S
C3     O70     1.288   .     A
C3     O73     1.289   .     A
C4     C8      1.377   .     S
C4     O72     1.289   .     A
C4     O71     1.288   .     A
C5     C32     1.397   .     A
C5     C30     1.398   .     A
C5     C166    1.522   1_545 S
C6     C31     1.395   .     A
C6     C165    1.522   .     S
C7     C648    1.172   1_554 S
C8     C327    1.172   .     S
C9     H33     1.084   .     S
C9     C14     1.395   .     A
C9     C20     1.389   .     A
C10    C15     1.382   .     A
C10    H41     1.085   .     S
C10    C21     1.392   .     A
C11    H42     1.084   .     S
C11    C16     1.394   .     A
C11    C21     1.391   .     A
C12    O68     1.307   .     A
C12    O62     1.301   .     A
C12    C19     1.467   .     S
C13    H43     1.085   .     S
C13    C20     1.392   .     A
C13    C17     1.379   .     A
C14    C18     1.427   .     A
C14    C22     1.488   .     S
C15    C19     1.422   .     A
C15    C24     1.488   .     S
C16    C25     1.488   .     S
C16    C19     1.425   .     A
C17    C26     1.485   .     S
C17    C18     1.422   .     A
C20    C101    1.449   1_455 S
C21    C100    1.449   .     S
C22    H37     1.084   .     S
C22    O64     1.221   .     D
C23    N49     1.389   .     A
C23    C30     1.410   .     A
C23    S75     1.782   .     S
C24    H38     1.084   .     S
C24    O65     1.222   .     D
C25    O66     1.221   .     D
C25    H39     1.085   .     S
C26    O67     1.222   .     D
C26    H40     1.083   .     S
C27    N50     1.394   .     A
C27    C31     1.411   .     A
C27    S76     1.783   .     S
C28    C32     1.410   .     A
C28    N49     1.390   .     A
C28    S77     1.783   .     S
C29    S78     1.785   .     S
C29    N50     1.395   .     A
C30    H44     1.076   .     S
C31    H45     1.077   .     S
C32    H46     1.076   .     S
H34    O56     0.991   .     S
H35    O59     0.991   .     S
H36    O63     0.991   .     S
H48    O53     0.991   .     S
N49    Zn80    2.032   .     S
N50    Zn79    2.032   .     S
O51    Zn79    2.005   .     S
O52    S75     1.504   .     D
O53    S75     1.674   .     S
O54    S76     1.504   .     D
O55    S76     1.496   .     D
O56    S76     1.673   .     S
O57    S77     1.496   .     D
O58    S77     1.504   .     D
O59    S77     1.674   .     S
O60    S78     1.505   .     D
O61    S78     1.495   .     D
O62    Zn80    2.005   .     S
O63    S78     1.674   .     S
O68    Zn79    2.009   .     S
O69    Zn80    2.009   .     S
O70    Zn79    1.963   .     S
O71    Zn80    1.963   .     S
O72    Zn79    1.964   .     S
O73    Zn80    1.964   .     S
O74    S75     1.496   .     D
C81    C98     1.465   .     S
C81    O149    1.298   .     A
C81    O131    1.307   .     A
C82    C86     1.394   .     A
C82    C109    1.410   .     A
C82    H127    1.077   .     S
C83    C87     1.378   .     S
C83    O150    1.288   .     A
C83    O153    1.289   .     A
C84    C88     1.377   .     S
C84    O152    1.289   .     A
C84    O151    1.288   .     A
C85    C112    1.397   .     A
C85    C110    1.398   .     A
C85    C246    1.522   1_545 S
C86    C111    1.395   .     A
C86    C245    1.522   .     S
C87    C728    1.172   1_554 S
C88    C407    1.172   .     S
C89    H113    1.084   .     S
C89    C94     1.395   .     A
C89    C100    1.389   .     A
C90    C95     1.382   .     A
C90    H121    1.085   .     S
C90    C101    1.392   .     A
C91    H122    1.084   .     S
C91    C96     1.394   .     A
C91    C101    1.391   .     A
C92    O148    1.307   .     A
C92    O142    1.301   .     A
C92    C99     1.467   .     S
C93    H123    1.085   .     S
C93    C100    1.392   .     A
C93    C97     1.379   .     A
C94    C98     1.427   .     A
C94    C102    1.488   .     S
C95    C99     1.422   .     A
C95    C104    1.488   .     S
C96    C105    1.488   .     S
C96    C99     1.425   .     A
C97    C106    1.485   .     S
C97    C98     1.422   .     A
C101   C20     1.449   1_655 S
C102   H117    1.084   .     S
C102   O144    1.221   .     D
C103   N129    1.389   .     A
C103   C110    1.410   .     A
C103   S155    1.782   .     S
C104   H118    1.084   .     S
C104   O145    1.222   .     D
C105   O146    1.221   .     D
C105   H119    1.085   .     S
C106   O147    1.222   .     D
C106   H120    1.083   .     S
C107   N130    1.394   .     A
C107   C111    1.411   .     A
C107   S156    1.783   .     S
C108   C112    1.410   .     A
C108   N129    1.390   .     A
C108   S157    1.783   .     S
C109   S158    1.785   .     S
C109   N130    1.395   .     A
C110   H124    1.076   .     S
C111   H125    1.077   .     S
C112   H126    1.076   .     S
H114   O136    0.991   .     S
H115   O139    0.991   .     S
H116   O143    0.991   .     S
H128   O133    0.991   .     S
N129   Zn160   2.032   .     S
N130   Zn159   2.032   .     S
O131   Zn159   2.005   .     S
O132   S155    1.504   .     D
O133   S155    1.674   .     S
O134   S156    1.504   .     D
O135   S156    1.496   .     D
O136   S156    1.673   .     S
O137   S157    1.496   .     D
O138   S157    1.504   .     D
O139   S157    1.674   .     S
O140   S158    1.505   .     D
O141   S158    1.495   .     D
O142   Zn160   2.005   .     S
O143   S158    1.674   .     S
O148   Zn159   2.009   .     S
O149   Zn160   2.009   .     S
O150   Zn159   1.963   .     S
O151   Zn160   1.963   .     S
O152   Zn159   1.964   .     S
O153   Zn160   1.964   .     S
O154   S155    1.496   .     D
C161   C178    1.465   .     S
C161   O229    1.298   .     A
C161   O211    1.307   .     A
C162   C166    1.394   .     A
C162   C189    1.410   .     A
C162   H207    1.077   .     S
C163   C167    1.378   .     S
C163   O230    1.288   .     A
C163   O233    1.289   .     A
C164   C168    1.377   .     S
C164   O232    1.289   .     A
C164   O231    1.288   .     A
C165   C192    1.397   .     A
C165   C190    1.398   .     A
C166   C191    1.395   .     A
C166   C5      1.522   1_565 S
C167   C808    1.172   1_554 S
C168   C487    1.172   .     S
C169   H193    1.084   .     S
C169   C174    1.395   .     A
C169   C180    1.389   .     A
C170   C175    1.382   .     A
C170   H201    1.085   .     S
C170   C181    1.392   .     A
C171   H202    1.084   .     S
C171   C176    1.394   .     A
C171   C181    1.391   .     A
C172   O228    1.307   .     A
C172   O222    1.301   .     A
C172   C179    1.467   .     S
C173   H203    1.085   .     S
C173   C180    1.392   .     A
C173   C177    1.379   .     A
C174   C178    1.427   .     A
C174   C182    1.488   .     S
C175   C179    1.422   .     A
C175   C184    1.488   .     S
C176   C185    1.488   .     S
C176   C179    1.425   .     A
C177   C186    1.485   .     S
C177   C178    1.422   .     A
C180   C261    1.449   1_455 S
C181   C260    1.449   .     S
C182   H197    1.084   .     S
C182   O224    1.221   .     D
C183   N209    1.389   .     A
C183   C190    1.410   .     A
C183   S235    1.782   .     S
C184   H198    1.084   .     S
C184   O225    1.222   .     D
C185   O226    1.221   .     D
C185   H199    1.085   .     S
C186   O227    1.222   .     D
C186   H200    1.083   .     S
C187   N210    1.394   .     A
C187   C191    1.411   .     A
C187   S236    1.783   .     S
C188   C192    1.410   .     A
C188   N209    1.390   .     A
C188   S237    1.783   .     S
C189   S238    1.785   .     S
C189   N210    1.395   .     A
C190   H204    1.076   .     S
C191   H205    1.077   .     S
C192   H206    1.076   .     S
H194   O216    0.991   .     S
H195   O219    0.991   .     S
H196   O223    0.991   .     S
H208   O213    0.991   .     S
N209   Zn240   2.032   .     S
N210   Zn239   2.032   .     S
O211   Zn239   2.005   .     S
O212   S235    1.504   .     D
O213   S235    1.674   .     S
O214   S236    1.504   .     D
O215   S236    1.496   .     D
O216   S236    1.673   .     S
O217   S237    1.496   .     D
O218   S237    1.504   .     D
O219   S237    1.674   .     S
O220   S238    1.505   .     D
O221   S238    1.495   .     D
O222   Zn240   2.005   .     S
O223   S238    1.674   .     S
O228   Zn239   2.009   .     S
O229   Zn240   2.009   .     S
O230   Zn239   1.963   .     S
O231   Zn240   1.963   .     S
O232   Zn239   1.964   .     S
O233   Zn240   1.964   .     S
O234   S235    1.496   .     D
C241   C258    1.465   .     S
C241   O309    1.298   .     A
C241   O291    1.307   .     A
C242   C246    1.394   .     A
C242   C269    1.410   .     A
C242   H287    1.077   .     S
C243   C247    1.378   .     S
C243   O310    1.288   .     A
C243   O313    1.289   .     A
C244   C248    1.377   .     S
C244   O312    1.289   .     A
C244   O311    1.288   .     A
C245   C272    1.397   .     A
C245   C270    1.398   .     A
C246   C271    1.395   .     A
C246   C85     1.522   1_565 S
C247   C888    1.172   1_554 S
C248   C567    1.172   .     S
C249   H273    1.084   .     S
C249   C254    1.395   .     A
C249   C260    1.389   .     A
C250   C255    1.382   .     A
C250   H281    1.085   .     S
C250   C261    1.392   .     A
C251   H282    1.084   .     S
C251   C256    1.394   .     A
C251   C261    1.391   .     A
C252   O308    1.307   .     A
C252   O302    1.301   .     A
C252   C259    1.467   .     S
C253   H283    1.085   .     S
C253   C260    1.392   .     A
C253   C257    1.379   .     A
C254   C258    1.427   .     A
C254   C262    1.488   .     S
C255   C259    1.422   .     A
C255   C264    1.488   .     S
C256   C265    1.488   .     S
C256   C259    1.425   .     A
C257   C266    1.485   .     S
C257   C258    1.422   .     A
C261   C180    1.449   1_655 S
C262   H277    1.084   .     S
C262   O304    1.221   .     D
C263   N289    1.389   .     A
C263   C270    1.410   .     A
C263   S315    1.782   .     S
C264   H278    1.084   .     S
C264   O305    1.222   .     D
C265   O306    1.221   .     D
C265   H279    1.085   .     S
C266   O307    1.222   .     D
C266   H280    1.083   .     S
C267   N290    1.394   .     A
C267   C271    1.411   .     A
C267   S316    1.783   .     S
C268   C272    1.410   .     A
C268   N289    1.390   .     A
C268   S317    1.783   .     S
C269   S318    1.785   .     S
C269   N290    1.395   .     A
C270   H284    1.076   .     S
C271   H285    1.077   .     S
C272   H286    1.076   .     S
H274   O296    0.991   .     S
H275   O299    0.991   .     S
H276   O303    0.991   .     S
H288   O293    0.991   .     S
N289   Zn320   2.032   .     S
N290   Zn319   2.032   .     S
O291   Zn319   2.005   .     S
O292   S315    1.504   .     D
O293   S315    1.674   .     S
O294   S316    1.504   .     D
O295   S316    1.496   .     D
O296   S316    1.673   .     S
O297   S317    1.496   .     D
O298   S317    1.504   .     D
O299   S317    1.674   .     S
O300   S318    1.505   .     D
O301   S318    1.495   .     D
O302   Zn320   2.005   .     S
O303   S318    1.674   .     S
O308   Zn319   2.009   .     S
O309   Zn320   2.009   .     S
O310   Zn319   1.963   .     S
O311   Zn320   1.963   .     S
O312   Zn319   1.964   .     S
O313   Zn320   1.964   .     S
O314   S315    1.496   .     D
C321   C338    1.465   .     S
C321   O389    1.298   .     A
C321   O371    1.307   .     A
C322   C326    1.394   .     A
C322   C349    1.410   .     A
C322   H367    1.077   .     S
C323   C327    1.378   .     S
C323   O390    1.288   .     A
C323   O393    1.289   .     A
C324   C328    1.377   .     S
C324   O392    1.289   .     A
C324   O391    1.288   .     A
C325   C352    1.397   .     A
C325   C350    1.398   .     A
C325   C486    1.522   1_545 S
C326   C351    1.395   .     A
C326   C485    1.522   .     S
C328   C647    1.172   .     S
C329   H353    1.084   .     S
C329   C334    1.395   .     A
C329   C340    1.389   .     A
C330   C335    1.382   .     A
C330   H361    1.085   .     S
C330   C341    1.392   .     A
C331   H362    1.084   .     S
C331   C336    1.394   .     A
C331   C341    1.391   .     A
C332   O388    1.307   .     A
C332   O382    1.301   .     A
C332   C339    1.467   .     S
C333   H363    1.085   .     S
C333   C340    1.392   .     A
C333   C337    1.379   .     A
C334   C338    1.427   .     A
C334   C342    1.488   .     S
C335   C339    1.422   .     A
C335   C344    1.488   .     S
C336   C345    1.488   .     S
C336   C339    1.425   .     A
C337   C346    1.485   .     S
C337   C338    1.422   .     A
C340   C421    1.449   1_455 S
C341   C420    1.449   .     S
C342   H357    1.084   .     S
C342   O384    1.221   .     D
C343   N369    1.389   .     A
C343   C350    1.410   .     A
C343   S395    1.782   .     S
C344   H358    1.084   .     S
C344   O385    1.222   .     D
C345   O386    1.221   .     D
C345   H359    1.085   .     S
C346   O387    1.222   .     D
C346   H360    1.083   .     S
C347   N370    1.394   .     A
C347   C351    1.411   .     A
C347   S396    1.783   .     S
C348   C352    1.410   .     A
C348   N369    1.390   .     A
C348   S397    1.783   .     S
C349   S398    1.785   .     S
C349   N370    1.395   .     A
C350   H364    1.076   .     S
C351   H365    1.077   .     S
C352   H366    1.076   .     S
H354   O376    0.991   .     S
H355   O379    0.991   .     S
H356   O383    0.991   .     S
H368   O373    0.991   .     S
N369   Zn400   2.032   .     S
N370   Zn399   2.032   .     S
O371   Zn399   2.005   .     S
O372   S395    1.504   .     D
O373   S395    1.674   .     S
O374   S396    1.504   .     D
O375   S396    1.496   .     D
O376   S396    1.673   .     S
O377   S397    1.496   .     D
O378   S397    1.504   .     D
O379   S397    1.674   .     S
O380   S398    1.505   .     D
O381   S398    1.495   .     D
O382   Zn400   2.005   .     S
O383   S398    1.674   .     S
O388   Zn399   2.009   .     S
O389   Zn400   2.009   .     S
O390   Zn399   1.963   .     S
O391   Zn400   1.963   .     S
O392   Zn399   1.964   .     S
O393   Zn400   1.964   .     S
O394   S395    1.496   .     D
C401   C418    1.465   .     S
C401   O469    1.298   .     A
C401   O451    1.307   .     A
C402   C406    1.394   .     A
C402   C429    1.410   .     A
C402   H447    1.077   .     S
C403   C407    1.378   .     S
C403   O470    1.288   .     A
C403   O473    1.289   .     A
C404   C408    1.377   .     S
C404   O472    1.289   .     A
C404   O471    1.288   .     A
C405   C432    1.397   .     A
C405   C430    1.398   .     A
C405   C566    1.522   1_545 S
C406   C431    1.395   .     A
C406   C565    1.522   .     S
C408   C727    1.172   .     S
C409   H433    1.084   .     S
C409   C414    1.395   .     A
C409   C420    1.389   .     A
C410   C415    1.382   .     A
C410   H441    1.085   .     S
C410   C421    1.392   .     A
C411   H442    1.084   .     S
C411   C416    1.394   .     A
C411   C421    1.391   .     A
C412   O468    1.307   .     A
C412   O462    1.301   .     A
C412   C419    1.467   .     S
C413   H443    1.085   .     S
C413   C420    1.392   .     A
C413   C417    1.379   .     A
C414   C418    1.427   .     A
C414   C422    1.488   .     S
C415   C419    1.422   .     A
C415   C424    1.488   .     S
C416   C425    1.488   .     S
C416   C419    1.425   .     A
C417   C426    1.485   .     S
C417   C418    1.422   .     A
C421   C340    1.449   1_655 S
C422   H437    1.084   .     S
C422   O464    1.221   .     D
C423   N449    1.389   .     A
C423   C430    1.410   .     A
C423   S475    1.782   .     S
C424   H438    1.084   .     S
C424   O465    1.222   .     D
C425   O466    1.221   .     D
C425   H439    1.085   .     S
C426   O467    1.222   .     D
C426   H440    1.083   .     S
C427   N450    1.394   .     A
C427   C431    1.411   .     A
C427   S476    1.783   .     S
C428   C432    1.410   .     A
C428   N449    1.390   .     A
C428   S477    1.783   .     S
C429   S478    1.785   .     S
C429   N450    1.395   .     A
C430   H444    1.076   .     S
C431   H445    1.077   .     S
C432   H446    1.076   .     S
H434   O456    0.991   .     S
H435   O459    0.991   .     S
H436   O463    0.991   .     S
H448   O453    0.991   .     S
N449   Zn480   2.032   .     S
N450   Zn479   2.032   .     S
O451   Zn479   2.005   .     S
O452   S475    1.504   .     D
O453   S475    1.674   .     S
O454   S476    1.504   .     D
O455   S476    1.496   .     D
O456   S476    1.673   .     S
O457   S477    1.496   .     D
O458   S477    1.504   .     D
O459   S477    1.674   .     S
O460   S478    1.505   .     D
O461   S478    1.495   .     D
O462   Zn480   2.005   .     S
O463   S478    1.674   .     S
O468   Zn479   2.009   .     S
O469   Zn480   2.009   .     S
O470   Zn479   1.963   .     S
O471   Zn480   1.963   .     S
O472   Zn479   1.964   .     S
O473   Zn480   1.964   .     S
O474   S475    1.496   .     D
C481   C498    1.465   .     S
C481   O549    1.298   .     A
C481   O531    1.307   .     A
C482   C486    1.394   .     A
C482   C509    1.410   .     A
C482   H527    1.077   .     S
C483   C487    1.378   .     S
C483   O550    1.288   .     A
C483   O553    1.289   .     A
C484   C488    1.377   .     S
C484   O552    1.289   .     A
C484   O551    1.288   .     A
C485   C512    1.397   .     A
C485   C510    1.398   .     A
C486   C511    1.395   .     A
C486   C325    1.522   1_565 S
C488   C807    1.172   .     S
C489   H513    1.084   .     S
C489   C494    1.395   .     A
C489   C500    1.389   .     A
C490   C495    1.382   .     A
C490   H521    1.085   .     S
C490   C501    1.392   .     A
C491   H522    1.084   .     S
C491   C496    1.394   .     A
C491   C501    1.391   .     A
C492   O548    1.307   .     A
C492   O542    1.301   .     A
C492   C499    1.467   .     S
C493   H523    1.085   .     S
C493   C500    1.392   .     A
C493   C497    1.379   .     A
C494   C498    1.427   .     A
C494   C502    1.488   .     S
C495   C499    1.422   .     A
C495   C504    1.488   .     S
C496   C505    1.488   .     S
C496   C499    1.425   .     A
C497   C506    1.485   .     S
C497   C498    1.422   .     A
C500   C581    1.449   1_455 S
C501   C580    1.449   .     S
C502   H517    1.084   .     S
C502   O544    1.221   .     D
C503   N529    1.389   .     A
C503   C510    1.410   .     A
C503   S555    1.782   .     S
C504   H518    1.084   .     S
C504   O545    1.222   .     D
C505   O546    1.221   .     D
C505   H519    1.085   .     S
C506   O547    1.222   .     D
C506   H520    1.083   .     S
C507   N530    1.394   .     A
C507   C511    1.411   .     A
C507   S556    1.783   .     S
C508   C512    1.410   .     A
C508   N529    1.390   .     A
C508   S557    1.783   .     S
C509   S558    1.785   .     S
C509   N530    1.395   .     A
C510   H524    1.076   .     S
C511   H525    1.077   .     S
C512   H526    1.076   .     S
H514   O536    0.991   .     S
H515   O539    0.991   .     S
H516   O543    0.991   .     S
H528   O533    0.991   .     S
N529   Zn560   2.032   .     S
N530   Zn559   2.032   .     S
O531   Zn559   2.005   .     S
O532   S555    1.504   .     D
O533   S555    1.674   .     S
O534   S556    1.504   .     D
O535   S556    1.496   .     D
O536   S556    1.673   .     S
O537   S557    1.496   .     D
O538   S557    1.504   .     D
O539   S557    1.674   .     S
O540   S558    1.505   .     D
O541   S558    1.495   .     D
O542   Zn560   2.005   .     S
O543   S558    1.674   .     S
O548   Zn559   2.009   .     S
O549   Zn560   2.009   .     S
O550   Zn559   1.963   .     S
O551   Zn560   1.963   .     S
O552   Zn559   1.964   .     S
O553   Zn560   1.964   .     S
O554   S555    1.496   .     D
C561   C578    1.465   .     S
C561   O629    1.298   .     A
C561   O611    1.307   .     A
C562   C566    1.394   .     A
C562   C589    1.410   .     A
C562   H607    1.077   .     S
C563   C567    1.378   .     S
C563   O630    1.288   .     A
C563   O633    1.289   .     A
C564   C568    1.377   .     S
C564   O632    1.289   .     A
C564   O631    1.288   .     A
C565   C592    1.397   .     A
C565   C590    1.398   .     A
C566   C591    1.395   .     A
C566   C405    1.522   1_565 S
C568   C887    1.172   .     S
C569   H593    1.084   .     S
C569   C574    1.395   .     A
C569   C580    1.389   .     A
C570   C575    1.382   .     A
C570   H601    1.085   .     S
C570   C581    1.392   .     A
C571   H602    1.084   .     S
C571   C576    1.394   .     A
C571   C581    1.391   .     A
C572   O628    1.307   .     A
C572   O622    1.301   .     A
C572   C579    1.467   .     S
C573   H603    1.085   .     S
C573   C580    1.392   .     A
C573   C577    1.379   .     A
C574   C578    1.427   .     A
C574   C582    1.488   .     S
C575   C579    1.422   .     A
C575   C584    1.488   .     S
C576   C585    1.488   .     S
C576   C579    1.425   .     A
C577   C586    1.485   .     S
C577   C578    1.422   .     A
C581   C500    1.449   1_655 S
C582   H597    1.084   .     S
C582   O624    1.221   .     D
C583   N609    1.389   .     A
C583   C590    1.410   .     A
C583   S635    1.782   .     S
C584   H598    1.084   .     S
C584   O625    1.222   .     D
C585   O626    1.221   .     D
C585   H599    1.085   .     S
C586   O627    1.222   .     D
C586   H600    1.083   .     S
C587   N610    1.394   .     A
C587   C591    1.411   .     A
C587   S636    1.783   .     S
C588   C592    1.410   .     A
C588   N609    1.390   .     A
C588   S637    1.783   .     S
C589   S638    1.785   .     S
C589   N610    1.395   .     A
C590   H604    1.076   .     S
C591   H605    1.077   .     S
C592   H606    1.076   .     S
H594   O616    0.991   .     S
H595   O619    0.991   .     S
H596   O623    0.991   .     S
H608   O613    0.991   .     S
N609   Zn640   2.032   .     S
N610   Zn639   2.032   .     S
O611   Zn639   2.005   .     S
O612   S635    1.504   .     D
O613   S635    1.674   .     S
O614   S636    1.504   .     D
O615   S636    1.496   .     D
O616   S636    1.673   .     S
O617   S637    1.496   .     D
O618   S637    1.504   .     D
O619   S637    1.674   .     S
O620   S638    1.505   .     D
O621   S638    1.495   .     D
O622   Zn640   2.005   .     S
O623   S638    1.674   .     S
O628   Zn639   2.009   .     S
O629   Zn640   2.009   .     S
O630   Zn639   1.963   .     S
O631   Zn640   1.963   .     S
O632   Zn639   1.964   .     S
O633   Zn640   1.964   .     S
O634   S635    1.496   .     D
C641   C658    1.465   .     S
C641   O709    1.298   .     A
C641   O691    1.307   .     A
C642   C646    1.394   .     A
C642   C669    1.410   .     A
C642   H687    1.077   .     S
C643   C647    1.378   .     S
C643   O710    1.288   .     A
C643   O713    1.289   .     A
C644   C648    1.377   .     S
C644   O712    1.289   .     A
C644   O711    1.288   .     A
C645   C672    1.397   .     A
C645   C670    1.398   .     A
C645   C806    1.522   1_545 S
C646   C671    1.395   .     A
C646   C805    1.522   .     S
C648   C7      1.172   1_556 S
C649   H673    1.084   .     S
C649   C654    1.395   .     A
C649   C660    1.389   .     A
C650   C655    1.382   .     A
C650   H681    1.085   .     S
C650   C661    1.392   .     A
C651   H682    1.084   .     S
C651   C656    1.394   .     A
C651   C661    1.391   .     A
C652   O708    1.307   .     A
C652   O702    1.301   .     A
C652   C659    1.467   .     S
C653   H683    1.085   .     S
C653   C660    1.392   .     A
C653   C657    1.379   .     A
C654   C658    1.427   .     A
C654   C662    1.488   .     S
C655   C659    1.422   .     A
C655   C664    1.488   .     S
C656   C665    1.488   .     S
C656   C659    1.425   .     A
C657   C666    1.485   .     S
C657   C658    1.422   .     A
C660   C741    1.449   1_455 S
C661   C740    1.449   .     S
C662   H677    1.084   .     S
C662   O704    1.221   .     D
C663   N689    1.389   .     A
C663   C670    1.410   .     A
C663   S715    1.782   .     S
C664   H678    1.084   .     S
C664   O705    1.222   .     D
C665   O706    1.221   .     D
C665   H679    1.085   .     S
C666   O707    1.222   .     D
C666   H680    1.083   .     S
C667   N690    1.394   .     A
C667   C671    1.411   .     A
C667   S716    1.783   .     S
C668   C672    1.410   .     A
C668   N689    1.390   .     A
C668   S717    1.783   .     S
C669   S718    1.785   .     S
C669   N690    1.395   .     A
C670   H684    1.076   .     S
C671   H685    1.077   .     S
C672   H686    1.076   .     S
H674   O696    0.991   .     S
H675   O699    0.991   .     S
H676   O703    0.991   .     S
H688   O693    0.991   .     S
N689   Zn720   2.032   .     S
N690   Zn719   2.032   .     S
O691   Zn719   2.005   .     S
O692   S715    1.504   .     D
O693   S715    1.674   .     S
O694   S716    1.504   .     D
O695   S716    1.496   .     D
O696   S716    1.673   .     S
O697   S717    1.496   .     D
O698   S717    1.504   .     D
O699   S717    1.674   .     S
O700   S718    1.505   .     D
O701   S718    1.495   .     D
O702   Zn720   2.005   .     S
O703   S718    1.674   .     S
O708   Zn719   2.009   .     S
O709   Zn720   2.009   .     S
O710   Zn719   1.963   .     S
O711   Zn720   1.963   .     S
O712   Zn719   1.964   .     S
O713   Zn720   1.964   .     S
O714   S715    1.496   .     D
C721   C738    1.465   .     S
C721   O789    1.298   .     A
C721   O771    1.307   .     A
C722   C726    1.394   .     A
C722   C749    1.410   .     A
C722   H767    1.077   .     S
C723   C727    1.378   .     S
C723   O790    1.288   .     A
C723   O793    1.289   .     A
C724   C728    1.377   .     S
C724   O792    1.289   .     A
C724   O791    1.288   .     A
C725   C752    1.397   .     A
C725   C750    1.398   .     A
C725   C886    1.522   1_545 S
C726   C751    1.395   .     A
C726   C885    1.522   .     S
C728   C87     1.172   1_556 S
C729   H753    1.084   .     S
C729   C734    1.395   .     A
C729   C740    1.389   .     A
C730   C735    1.382   .     A
C730   H761    1.085   .     S
C730   C741    1.392   .     A
C731   H762    1.084   .     S
C731   C736    1.394   .     A
C731   C741    1.391   .     A
C732   O788    1.307   .     A
C732   O782    1.301   .     A
C732   C739    1.467   .     S
C733   H763    1.085   .     S
C733   C740    1.392   .     A
C733   C737    1.379   .     A
C734   C738    1.427   .     A
C734   C742    1.488   .     S
C735   C739    1.422   .     A
C735   C744    1.488   .     S
C736   C745    1.488   .     S
C736   C739    1.425   .     A
C737   C746    1.485   .     S
C737   C738    1.422   .     A
C741   C660    1.449   1_655 S
C742   H757    1.084   .     S
C742   O784    1.221   .     D
C743   N769    1.389   .     A
C743   C750    1.410   .     A
C743   S795    1.782   .     S
C744   H758    1.084   .     S
C744   O785    1.222   .     D
C745   O786    1.221   .     D
C745   H759    1.085   .     S
C746   O787    1.222   .     D
C746   H760    1.083   .     S
C747   N770    1.394   .     A
C747   C751    1.411   .     A
C747   S796    1.783   .     S
C748   C752    1.410   .     A
C748   N769    1.390   .     A
C748   S797    1.783   .     S
C749   S798    1.785   .     S
C749   N770    1.395   .     A
C750   H764    1.076   .     S
C751   H765    1.077   .     S
C752   H766    1.076   .     S
H754   O776    0.991   .     S
H755   O779    0.991   .     S
H756   O783    0.991   .     S
H768   O773    0.991   .     S
N769   Zn800   2.032   .     S
N770   Zn799   2.032   .     S
O771   Zn799   2.005   .     S
O772   S795    1.504   .     D
O773   S795    1.674   .     S
O774   S796    1.504   .     D
O775   S796    1.496   .     D
O776   S796    1.673   .     S
O777   S797    1.496   .     D
O778   S797    1.504   .     D
O779   S797    1.674   .     S
O780   S798    1.505   .     D
O781   S798    1.495   .     D
O782   Zn800   2.005   .     S
O783   S798    1.674   .     S
O788   Zn799   2.009   .     S
O789   Zn800   2.009   .     S
O790   Zn799   1.963   .     S
O791   Zn800   1.963   .     S
O792   Zn799   1.964   .     S
O793   Zn800   1.964   .     S
O794   S795    1.496   .     D
C801   C818    1.465   .     S
C801   O869    1.298   .     A
C801   O851    1.307   .     A
C802   C806    1.394   .     A
C802   C829    1.410   .     A
C802   H847    1.077   .     S
C803   C807    1.378   .     S
C803   O870    1.288   .     A
C803   O873    1.289   .     A
C804   C808    1.377   .     S
C804   O872    1.289   .     A
C804   O871    1.288   .     A
C805   C832    1.397   .     A
C805   C830    1.398   .     A
C806   C831    1.395   .     A
C806   C645    1.522   1_565 S
C808   C167    1.172   1_556 S
C809   H833    1.084   .     S
C809   C814    1.395   .     A
C809   C820    1.389   .     A
C810   C815    1.382   .     A
C810   H841    1.085   .     S
C810   C821    1.392   .     A
C811   H842    1.084   .     S
C811   C816    1.394   .     A
C811   C821    1.391   .     A
C812   O868    1.307   .     A
C812   O862    1.301   .     A
C812   C819    1.467   .     S
C813   H843    1.085   .     S
C813   C820    1.392   .     A
C813   C817    1.379   .     A
C814   C818    1.427   .     A
C814   C822    1.488   .     S
C815   C819    1.422   .     A
C815   C824    1.488   .     S
C816   C825    1.488   .     S
C816   C819    1.425   .     A
C817   C826    1.485   .     S
C817   C818    1.422   .     A
C820   C901    1.449   1_455 S
C821   C900    1.449   .     S
C822   H837    1.084   .     S
C822   O864    1.221   .     D
C823   N849    1.389   .     A
C823   C830    1.410   .     A
C823   S875    1.782   .     S
C824   H838    1.084   .     S
C824   O865    1.222   .     D
C825   O866    1.221   .     D
C825   H839    1.085   .     S
C826   O867    1.222   .     D
C826   H840    1.083   .     S
C827   N850    1.394   .     A
C827   C831    1.411   .     A
C827   S876    1.783   .     S
C828   C832    1.410   .     A
C828   N849    1.390   .     A
C828   S877    1.783   .     S
C829   S878    1.785   .     S
C829   N850    1.395   .     A
C830   H844    1.076   .     S
C831   H845    1.077   .     S
C832   H846    1.076   .     S
H834   O856    0.991   .     S
H835   O859    0.991   .     S
H836   O863    0.991   .     S
H848   O853    0.991   .     S
N849   Zn880   2.032   .     S
N850   Zn879   2.032   .     S
O851   Zn879   2.005   .     S
O852   S875    1.504   .     D
O853   S875    1.674   .     S
O854   S876    1.504   .     D
O855   S876    1.496   .     D
O856   S876    1.673   .     S
O857   S877    1.496   .     D
O858   S877    1.504   .     D
O859   S877    1.674   .     S
O860   S878    1.505   .     D
O861   S878    1.495   .     D
O862   Zn880   2.005   .     S
O863   S878    1.674   .     S
O868   Zn879   2.009   .     S
O869   Zn880   2.009   .     S
O870   Zn879   1.963   .     S
O871   Zn880   1.963   .     S
O872   Zn879   1.964   .     S
O873   Zn880   1.964   .     S
O874   S875    1.496   .     D
C881   C898    1.465   .     S
C881   O949    1.298   .     A
C881   O931    1.307   .     A
C882   C886    1.394   .     A
C882   C909    1.410   .     A
C882   H927    1.077   .     S
C883   C887    1.378   .     S
C883   O950    1.288   .     A
C883   O953    1.289   .     A
C884   C888    1.377   .     S
C884   O952    1.289   .     A
C884   O951    1.288   .     A
C885   C912    1.397   .     A
C885   C910    1.398   .     A
C886   C911    1.395   .     A
C886   C725    1.522   1_565 S
C888   C247    1.172   1_556 S
C889   H913    1.084   .     S
C889   C894    1.395   .     A
C889   C900    1.389   .     A
C890   C895    1.382   .     A
C890   H921    1.085   .     S
C890   C901    1.392   .     A
C891   H922    1.084   .     S
C891   C896    1.394   .     A
C891   C901    1.391   .     A
C892   O948    1.307   .     A
C892   O942    1.301   .     A
C892   C899    1.467   .     S
C893   H923    1.085   .     S
C893   C900    1.392   .     A
C893   C897    1.379   .     A
C894   C898    1.427   .     A
C894   C902    1.488   .     S
C895   C899    1.422   .     A
C895   C904    1.488   .     S
C896   C905    1.488   .     S
C896   C899    1.425   .     A
C897   C906    1.485   .     S
C897   C898    1.422   .     A
C901   C820    1.449   1_655 S
C902   H917    1.084   .     S
C902   O944    1.221   .     D
C903   N929    1.389   .     A
C903   C910    1.410   .     A
C903   S955    1.782   .     S
C904   H918    1.084   .     S
C904   O945    1.222   .     D
C905   O946    1.221   .     D
C905   H919    1.085   .     S
C906   O947    1.222   .     D
C906   H920    1.083   .     S
C907   N930    1.394   .     A
C907   C911    1.411   .     A
C907   S956    1.783   .     S
C908   C912    1.410   .     A
C908   N929    1.390   .     A
C908   S957    1.783   .     S
C909   S958    1.785   .     S
C909   N930    1.395   .     A
C910   H924    1.076   .     S
C911   H925    1.077   .     S
C912   H926    1.076   .     S
H914   O936    0.991   .     S
H915   O939    0.991   .     S
H916   O943    0.991   .     S
H928   O933    0.991   .     S
N929   Zn960   2.032   .     S
N930   Zn959   2.032   .     S
O931   Zn959   2.005   .     S
O932   S955    1.504   .     D
O933   S955    1.674   .     S
O934   S956    1.504   .     D
O935   S956    1.496   .     D
O936   S956    1.673   .     S
O937   S957    1.496   .     D
O938   S957    1.504   .     D
O939   S957    1.674   .     S
O940   S958    1.505   .     D
O941   S958    1.495   .     D
O942   Zn960   2.005   .     S
O943   S958    1.674   .     S
O948   Zn959   2.009   .     S
O949   Zn960   2.009   .     S
O950   Zn959   1.963   .     S
O951   Zn960   1.963   .     S
O952   Zn959   1.964   .     S
O953   Zn960   1.964   .     S
O954   S955    1.496   .     D
