data_str_m2_o1_o16_pcu_sym.180
_audit_creation_date              2020-01-03
_audit_creation_method            'Materials Studio'
_symmetry_space_group_name_H-M    'P1'
_symmetry_Int_Tables_number       1
_symmetry_cell_setting            triclinic
loop_
_symmetry_equiv_pos_as_xyz
  x,y,z
_cell_length_a                    28.5192
_cell_length_b                    32.5041
_cell_length_c                    27.0712
_cell_angle_alpha                 89.6949
_cell_angle_beta                  73.0901
_cell_angle_gamma                 89.2220
loop_
_atom_site_label
_atom_site_type_symbol
_atom_site_fract_x
_atom_site_fract_y
_atom_site_fract_z
_atom_site_U_iso_or_equiv
_atom_site_adp_type
_atom_site_occupancy
C1     C     0.16633   0.24586   0.24999   0.00000  Uiso   1.00
C2     C     0.14764   0.16830   0.48810   0.00000  Uiso   1.00
C3     C     0.15933   0.15599   0.43562   0.00000  Uiso   1.00
C4     C     0.18316   0.16113   0.01503   0.00000  Uiso   1.00
C5     C     0.23179   0.14884   0.48786   0.00000  Uiso   1.00
C6     C     0.24198   0.13495   0.43681   0.00000  Uiso   1.00
C7     C     0.20480   0.13605   0.41280   0.00000  Uiso   1.00
C8     C     0.17126   0.16403   0.06875   0.00000  Uiso   1.00
C9     C     0.25652   0.15765   0.06579   0.00000  Uiso   1.00
C10    C     0.12572   0.16487   0.40691   0.00000  Uiso   1.00
C11    C     0.19721   0.31094   0.27099   0.00000  Uiso   1.00
C12    C     0.14078   0.16457   0.34994   0.00000  Uiso   1.00
C13    C     0.20103   0.02013   0.26715   0.00000  Uiso   1.00
C14    C     0.16960   0.04241   0.24446   0.00000  Uiso   1.00
C15    C     0.13973   0.02112   0.21950   0.00000  Uiso   1.00
C16    C     0.13730   0.31167   0.22351   0.00000  Uiso   1.00
C17    C     0.16602   0.29024   0.24905   0.00000  Uiso   1.00
C18    C     0.29852   0.19188   0.28346   0.00000  Uiso   1.00
C19    C     0.01579   0.19169   0.28267   0.00000  Uiso   1.00
C20    C     0.03433   0.14248   0.21649   0.00000  Uiso   1.00
C21    C     0.31814   0.14251   0.21644   0.00000  Uiso   1.00
C22    C     0.16765   0.08731   0.24783   0.00000  Uiso   1.00
C23    C     0.19266   0.16609   0.15026   0.00000  Uiso   1.00
C24    C     0.26856   0.14955   0.01325   0.00000  Uiso   1.00
C25    C     0.20745   0.16320   0.09406   0.00000  Uiso   1.00
C26    C     0.07878   0.18011   0.43238   0.00000  Uiso   1.00
C27    C     0.06719   0.19218   0.48349   0.00000  Uiso   1.00
C28    C     0.10203   0.18945   0.01036   0.00000  Uiso   1.00
Cu29   Cu    0.11978   0.16666   0.25000   0.00000  Uiso   1.00
Cu30   Cu    0.21355   0.16667   0.25000   0.00000  Uiso   1.00
H31    H     0.28525   0.15735   0.08461   0.00000  Uiso   1.00
H32    H     0.11474   0.29480   0.20478   0.00000  Uiso   1.00
H33    H     0.02897   0.21143   0.30753   0.00000  Uiso   1.00
H34    H     0.06063   0.12304   0.18960   0.00000  Uiso   1.00
H35    H     0.30709   0.12296   0.18970   0.00000  Uiso   1.00
H36    H     0.30667   0.14351   0.49314   0.00000  Uiso   1.00
H37    H     0.13349   0.16460   0.09180   0.00000  Uiso   1.00
H38    H     0.05206   0.18598   0.41169   0.00000  Uiso   1.00
H39    H     0.03202   0.20682   0.00130   0.00000  Uiso   1.00
H40    H     0.21203   0.12053   0.37611   0.00000  Uiso   1.00
H41    H     0.21892   0.29392   0.29113   0.00000  Uiso   1.00
N42    N     0.04931   0.16666   0.24999   0.00000  Uiso   1.00
N43    N     0.28402   0.16669   0.24999   0.00000  Uiso   1.00
O44    O     0.12708   0.22678   0.25000   0.00000  Uiso   1.00
O45    O     0.20627   0.22679   0.25000   0.00000  Uiso   1.00
O46    O     0.10775   0.16665   0.32549   0.00000  Uiso   1.00
O47    O     0.18694   0.16666   0.32549   0.00000  Uiso   1.00
O48    O     0.12706   0.10654   0.24999   0.00000  Uiso   1.00
O49    O     0.20625   0.10655   0.24999   0.00000  Uiso   1.00
O50    O     0.14640   0.16667   0.17451   0.00000  Uiso   1.00
O51    O     0.22559   0.16668   0.17451   0.00000  Uiso   1.00
O52    O     0.23297   0.03996   0.28887   0.00000  Uiso   1.00
C53    C     0.28184   0.02956   0.26072   0.00000  Uiso   1.00
H54    H     0.29099   0.04309   0.22123   0.00000  Uiso   1.00
H55    H     0.28852   0.32908   0.25739   0.00000  Uiso   1.00
C56    C     0.31670   0.04644   0.28834   0.00000  Uiso   1.00
H57    H     0.30537   0.03664   0.32944   0.00000  Uiso   1.00
H58    H     0.02116   0.03495   0.26977   0.00000  Uiso   1.00
H59    H     0.31648   0.08034   0.28596   0.00000  Uiso   1.00
C60    C     0.11466   0.04229   0.18525   0.00000  Uiso   1.00
H61    H     0.12633   0.07245   0.16955   0.00000  Uiso   1.00
O62    O     0.08149   0.02581   0.17294   0.00000  Uiso   1.00
O63    O     0.26308   0.21804   0.31487   0.00000  Uiso   1.00
C64    C     0.27557   0.23339   0.35810   0.00000  Uiso   1.00
H65    H     0.30411   0.25736   0.34578   0.00000  Uiso   1.00
H66    H     0.28831   0.20821   0.37928   0.00000  Uiso   1.00
C67    C     0.23067   0.25360   0.39523   0.00000  Uiso   1.00
H68    H     0.19957   0.23202   0.40517   0.00000  Uiso   1.00
H69    H     0.23911   0.26253   0.43123   0.00000  Uiso   1.00
H70    H     0.21978   0.28161   0.37749   0.00000  Uiso   1.00
C71    C     0.29036   0.11703   0.40870   0.00000  Uiso   1.00
H72    H     0.31174   0.09955   0.42891   0.00000  Uiso   1.00
O73    O     0.30726   0.12227   0.36237   0.00000  Uiso   1.00
O74    O     0.09126   0.20963   0.05717   0.00000  Uiso   1.00
C75    C     0.11217   0.24914   0.04901   0.00000  Uiso   1.00
H76    H     0.09231   0.26895   0.02781   0.00000  Uiso   1.00
H77    H     0.15183   0.24777   0.02691   0.00000  Uiso   1.00
C78    C     0.10788   0.26878   0.10101   0.00000  Uiso   1.00
H79    H     0.12764   0.24957   0.12278   0.00000  Uiso   1.00
H80    H     0.12431   0.29985   0.09514   0.00000  Uiso   1.00
H81    H     0.06874   0.27166   0.12387   0.00000  Uiso   1.00
C82    C     0.49966   0.24586   0.24999   0.00000  Uiso   1.00
C83    C     0.48098   0.16830   0.48810   0.00000  Uiso   1.00
C84    C     0.49267   0.15599   0.43562   0.00000  Uiso   1.00
C85    C     0.51649   0.16113   0.01503   0.00000  Uiso   1.00
C86    C     0.56512   0.14884   0.48786   0.00000  Uiso   1.00
C87    C     0.57531   0.13495   0.43681   0.00000  Uiso   1.00
C88    C     0.53813   0.13605   0.41280   0.00000  Uiso   1.00
C89    C     0.50459   0.16403   0.06875   0.00000  Uiso   1.00
C90    C     0.58985   0.15765   0.06579   0.00000  Uiso   1.00
C91    C     0.45906   0.16487   0.40691   0.00000  Uiso   1.00
C92    C     0.53054   0.31094   0.27099   0.00000  Uiso   1.00
C93    C     0.47411   0.16457   0.34994   0.00000  Uiso   1.00
C94    C     0.53437   0.02013   0.26715   0.00000  Uiso   1.00
C95    C     0.50293   0.04241   0.24446   0.00000  Uiso   1.00
C96    C     0.47306   0.02112   0.21950   0.00000  Uiso   1.00
C97    C     0.47063   0.31167   0.22351   0.00000  Uiso   1.00
C98    C     0.49936   0.29024   0.24905   0.00000  Uiso   1.00
C99    C     0.63186   0.19188   0.28346   0.00000  Uiso   1.00
C100   C     0.34912   0.19169   0.28267   0.00000  Uiso   1.00
C101   C     0.36767   0.14248   0.21649   0.00000  Uiso   1.00
C102   C     0.65147   0.14251   0.21644   0.00000  Uiso   1.00
C103   C     0.50098   0.08731   0.24783   0.00000  Uiso   1.00
C104   C     0.52600   0.16609   0.15026   0.00000  Uiso   1.00
C105   C     0.60189   0.14955   0.01325   0.00000  Uiso   1.00
C106   C     0.54079   0.16320   0.09406   0.00000  Uiso   1.00
C107   C     0.41212   0.18011   0.43238   0.00000  Uiso   1.00
C108   C     0.40053   0.19218   0.48349   0.00000  Uiso   1.00
C109   C     0.43536   0.18945   0.01036   0.00000  Uiso   1.00
Cu110  Cu    0.45311   0.16666   0.25000   0.00000  Uiso   1.00
Cu111  Cu    0.54689   0.16667   0.25000   0.00000  Uiso   1.00
H112   H     0.61858   0.15735   0.08461   0.00000  Uiso   1.00
H113   H     0.44808   0.29480   0.20478   0.00000  Uiso   1.00
H114   H     0.36231   0.21143   0.30753   0.00000  Uiso   1.00
H115   H     0.39396   0.12304   0.18960   0.00000  Uiso   1.00
H116   H     0.64042   0.12296   0.18970   0.00000  Uiso   1.00
H117   H     0.64001   0.14351   0.49314   0.00000  Uiso   1.00
H118   H     0.46682   0.16460   0.09180   0.00000  Uiso   1.00
H119   H     0.38539   0.18598   0.41169   0.00000  Uiso   1.00
H120   H     0.36535   0.20682   0.00130   0.00000  Uiso   1.00
H121   H     0.54536   0.12053   0.37611   0.00000  Uiso   1.00
H122   H     0.55225   0.29392   0.29113   0.00000  Uiso   1.00
N123   N     0.38265   0.16666   0.24999   0.00000  Uiso   1.00
N124   N     0.61735   0.16669   0.24999   0.00000  Uiso   1.00
O125   O     0.46042   0.22678   0.25000   0.00000  Uiso   1.00
O126   O     0.53961   0.22679   0.25000   0.00000  Uiso   1.00
O127   O     0.44108   0.16665   0.32549   0.00000  Uiso   1.00
O128   O     0.52027   0.16666   0.32549   0.00000  Uiso   1.00
O129   O     0.46039   0.10654   0.24999   0.00000  Uiso   1.00
O130   O     0.53958   0.10655   0.24999   0.00000  Uiso   1.00
O131   O     0.47973   0.16667   0.17451   0.00000  Uiso   1.00
O132   O     0.55892   0.16668   0.17451   0.00000  Uiso   1.00
O133   O     0.56630   0.03996   0.28887   0.00000  Uiso   1.00
C134   C     0.61518   0.02956   0.26072   0.00000  Uiso   1.00
H135   H     0.62433   0.04309   0.22123   0.00000  Uiso   1.00
H136   H     0.62185   0.32908   0.25739   0.00000  Uiso   1.00
C137   C     0.65003   0.04644   0.28834   0.00000  Uiso   1.00
H138   H     0.63871   0.03664   0.32944   0.00000  Uiso   1.00
H139   H     0.35449   0.03495   0.26977   0.00000  Uiso   1.00
H140   H     0.64982   0.08034   0.28596   0.00000  Uiso   1.00
C141   C     0.44799   0.04229   0.18525   0.00000  Uiso   1.00
H142   H     0.45966   0.07245   0.16955   0.00000  Uiso   1.00
O143   O     0.41483   0.02581   0.17294   0.00000  Uiso   1.00
O144   O     0.59641   0.21804   0.31487   0.00000  Uiso   1.00
C145   C     0.60890   0.23339   0.35810   0.00000  Uiso   1.00
H146   H     0.63745   0.25736   0.34578   0.00000  Uiso   1.00
H147   H     0.62165   0.20821   0.37928   0.00000  Uiso   1.00
C148   C     0.56400   0.25360   0.39523   0.00000  Uiso   1.00
H149   H     0.53291   0.23202   0.40517   0.00000  Uiso   1.00
H150   H     0.57245   0.26253   0.43123   0.00000  Uiso   1.00
H151   H     0.55312   0.28161   0.37749   0.00000  Uiso   1.00
C152   C     0.62370   0.11703   0.40870   0.00000  Uiso   1.00
H153   H     0.64508   0.09955   0.42891   0.00000  Uiso   1.00
O154   O     0.64060   0.12227   0.36237   0.00000  Uiso   1.00
O155   O     0.42459   0.20963   0.05717   0.00000  Uiso   1.00
C156   C     0.44550   0.24914   0.04901   0.00000  Uiso   1.00
H157   H     0.42565   0.26895   0.02781   0.00000  Uiso   1.00
H158   H     0.48517   0.24777   0.02691   0.00000  Uiso   1.00
C159   C     0.44122   0.26878   0.10101   0.00000  Uiso   1.00
H160   H     0.46098   0.24957   0.12278   0.00000  Uiso   1.00
H161   H     0.45765   0.29985   0.09514   0.00000  Uiso   1.00
H162   H     0.40208   0.27166   0.12387   0.00000  Uiso   1.00
C163   C     0.83300   0.24586   0.24999   0.00000  Uiso   1.00
C164   C     0.81431   0.16830   0.48810   0.00000  Uiso   1.00
C165   C     0.82600   0.15599   0.43562   0.00000  Uiso   1.00
C166   C     0.84982   0.16113   0.01503   0.00000  Uiso   1.00
C167   C     0.89845   0.14884   0.48786   0.00000  Uiso   1.00
C168   C     0.90864   0.13495   0.43681   0.00000  Uiso   1.00
C169   C     0.87146   0.13605   0.41280   0.00000  Uiso   1.00
C170   C     0.83793   0.16403   0.06875   0.00000  Uiso   1.00
C171   C     0.92319   0.15765   0.06579   0.00000  Uiso   1.00
C172   C     0.79239   0.16487   0.40691   0.00000  Uiso   1.00
C173   C     0.86387   0.31094   0.27099   0.00000  Uiso   1.00
C174   C     0.80744   0.16457   0.34994   0.00000  Uiso   1.00
C175   C     0.86770   0.02013   0.26715   0.00000  Uiso   1.00
C176   C     0.83627   0.04241   0.24446   0.00000  Uiso   1.00
C177   C     0.80640   0.02112   0.21950   0.00000  Uiso   1.00
C178   C     0.80397   0.31167   0.22351   0.00000  Uiso   1.00
C179   C     0.83269   0.29024   0.24905   0.00000  Uiso   1.00
C180   C     0.96519   0.19188   0.28346   0.00000  Uiso   1.00
C181   C     0.68246   0.19169   0.28267   0.00000  Uiso   1.00
C182   C     0.70100   0.14248   0.21649   0.00000  Uiso   1.00
C183   C     0.98481   0.14251   0.21644   0.00000  Uiso   1.00
C184   C     0.83431   0.08731   0.24783   0.00000  Uiso   1.00
C185   C     0.85933   0.16609   0.15026   0.00000  Uiso   1.00
C186   C     0.93522   0.14955   0.01325   0.00000  Uiso   1.00
C187   C     0.87412   0.16320   0.09406   0.00000  Uiso   1.00
C188   C     0.74545   0.18011   0.43238   0.00000  Uiso   1.00
C189   C     0.73386   0.19218   0.48349   0.00000  Uiso   1.00
C190   C     0.76870   0.18945   0.01036   0.00000  Uiso   1.00
Cu191  Cu    0.78645   0.16666   0.25000   0.00000  Uiso   1.00
Cu192  Cu    0.88022   0.16667   0.25000   0.00000  Uiso   1.00
H193   H     0.95192   0.15735   0.08461   0.00000  Uiso   1.00
H194   H     0.78141   0.29480   0.20478   0.00000  Uiso   1.00
H195   H     0.69564   0.21143   0.30753   0.00000  Uiso   1.00
H196   H     0.72729   0.12304   0.18960   0.00000  Uiso   1.00
H197   H     0.97376   0.12296   0.18970   0.00000  Uiso   1.00
H198   H     0.97334   0.14351   0.49314   0.00000  Uiso   1.00
H199   H     0.80016   0.16460   0.09180   0.00000  Uiso   1.00
H200   H     0.71873   0.18598   0.41169   0.00000  Uiso   1.00
H201   H     0.69868   0.20682   0.00130   0.00000  Uiso   1.00
H202   H     0.87870   0.12053   0.37611   0.00000  Uiso   1.00
H203   H     0.88558   0.29392   0.29113   0.00000  Uiso   1.00
N204   N     0.71598   0.16666   0.24999   0.00000  Uiso   1.00
N205   N     0.95069   0.16669   0.24999   0.00000  Uiso   1.00
O206   O     0.79375   0.22678   0.25000   0.00000  Uiso   1.00
O207   O     0.87294   0.22679   0.25000   0.00000  Uiso   1.00
O208   O     0.77441   0.16665   0.32549   0.00000  Uiso   1.00
O209   O     0.85360   0.16666   0.32549   0.00000  Uiso   1.00
O210   O     0.79373   0.10654   0.24999   0.00000  Uiso   1.00
O211   O     0.87292   0.10655   0.24999   0.00000  Uiso   1.00
O212   O     0.81306   0.16667   0.17451   0.00000  Uiso   1.00
O213   O     0.89225   0.16668   0.17451   0.00000  Uiso   1.00
O214   O     0.89964   0.03996   0.28887   0.00000  Uiso   1.00
C215   C     0.94851   0.02956   0.26072   0.00000  Uiso   1.00
H216   H     0.95766   0.04309   0.22123   0.00000  Uiso   1.00
H217   H     0.95518   0.32908   0.25739   0.00000  Uiso   1.00
C218   C     0.98336   0.04644   0.28834   0.00000  Uiso   1.00
H219   H     0.97204   0.03664   0.32944   0.00000  Uiso   1.00
H220   H     0.68783   0.03495   0.26977   0.00000  Uiso   1.00
H221   H     0.98315   0.08034   0.28596   0.00000  Uiso   1.00
C222   C     0.78132   0.04229   0.18525   0.00000  Uiso   1.00
H223   H     0.79300   0.07245   0.16955   0.00000  Uiso   1.00
O224   O     0.74816   0.02581   0.17294   0.00000  Uiso   1.00
O225   O     0.92975   0.21804   0.31487   0.00000  Uiso   1.00
C226   C     0.94223   0.23339   0.35810   0.00000  Uiso   1.00
H227   H     0.97078   0.25736   0.34578   0.00000  Uiso   1.00
H228   H     0.95498   0.20821   0.37928   0.00000  Uiso   1.00
C229   C     0.89734   0.25360   0.39523   0.00000  Uiso   1.00
H230   H     0.86624   0.23202   0.40517   0.00000  Uiso   1.00
H231   H     0.90578   0.26253   0.43123   0.00000  Uiso   1.00
H232   H     0.88645   0.28161   0.37749   0.00000  Uiso   1.00
C233   C     0.95703   0.11703   0.40870   0.00000  Uiso   1.00
H234   H     0.97841   0.09955   0.42891   0.00000  Uiso   1.00
O235   O     0.97393   0.12227   0.36237   0.00000  Uiso   1.00
O236   O     0.75793   0.20963   0.05717   0.00000  Uiso   1.00
C237   C     0.77884   0.24914   0.04901   0.00000  Uiso   1.00
H238   H     0.75898   0.26895   0.02781   0.00000  Uiso   1.00
H239   H     0.81850   0.24777   0.02691   0.00000  Uiso   1.00
C240   C     0.77455   0.26878   0.10101   0.00000  Uiso   1.00
H241   H     0.79431   0.24957   0.12278   0.00000  Uiso   1.00
H242   H     0.79098   0.29985   0.09514   0.00000  Uiso   1.00
H243   H     0.73541   0.27166   0.12387   0.00000  Uiso   1.00
C244   C     0.16633   0.57919   0.24999   0.00000  Uiso   1.00
C245   C     0.14764   0.50164   0.48810   0.00000  Uiso   1.00
C246   C     0.15933   0.48932   0.43562   0.00000  Uiso   1.00
C247   C     0.18316   0.49446   0.01503   0.00000  Uiso   1.00
C248   C     0.23179   0.48218   0.48786   0.00000  Uiso   1.00
C249   C     0.24198   0.46828   0.43681   0.00000  Uiso   1.00
C250   C     0.20480   0.46938   0.41280   0.00000  Uiso   1.00
C251   C     0.17126   0.49736   0.06875   0.00000  Uiso   1.00
C252   C     0.25652   0.49099   0.06579   0.00000  Uiso   1.00
C253   C     0.12572   0.49820   0.40691   0.00000  Uiso   1.00
C254   C     0.19721   0.64428   0.27099   0.00000  Uiso   1.00
C255   C     0.14078   0.49790   0.34994   0.00000  Uiso   1.00
C256   C     0.20103   0.35347   0.26715   0.00000  Uiso   1.00
C257   C     0.16960   0.37575   0.24446   0.00000  Uiso   1.00
C258   C     0.13973   0.35445   0.21950   0.00000  Uiso   1.00
C259   C     0.13730   0.64500   0.22351   0.00000  Uiso   1.00
C260   C     0.16602   0.62357   0.24905   0.00000  Uiso   1.00
C261   C     0.29852   0.52521   0.28346   0.00000  Uiso   1.00
C262   C     0.01579   0.52502   0.28267   0.00000  Uiso   1.00
C263   C     0.03433   0.47581   0.21649   0.00000  Uiso   1.00
C264   C     0.31814   0.47584   0.21644   0.00000  Uiso   1.00
C265   C     0.16765   0.42064   0.24783   0.00000  Uiso   1.00
C266   C     0.19266   0.49943   0.15026   0.00000  Uiso   1.00
C267   C     0.26856   0.48289   0.01325   0.00000  Uiso   1.00
C268   C     0.20745   0.49653   0.09406   0.00000  Uiso   1.00
C269   C     0.07878   0.51345   0.43238   0.00000  Uiso   1.00
C270   C     0.06719   0.52552   0.48349   0.00000  Uiso   1.00
C271   C     0.10203   0.52278   0.01036   0.00000  Uiso   1.00
Cu272  Cu    0.11978   0.49999   0.25000   0.00000  Uiso   1.00
Cu273  Cu    0.21355   0.50001   0.25000   0.00000  Uiso   1.00
H274   H     0.28525   0.49068   0.08461   0.00000  Uiso   1.00
H275   H     0.11474   0.62813   0.20478   0.00000  Uiso   1.00
H276   H     0.02897   0.54476   0.30753   0.00000  Uiso   1.00
H277   H     0.06063   0.45637   0.18960   0.00000  Uiso   1.00
H278   H     0.30709   0.45630   0.18970   0.00000  Uiso   1.00
H279   H     0.30667   0.47684   0.49314   0.00000  Uiso   1.00
H280   H     0.13349   0.49793   0.09180   0.00000  Uiso   1.00
H281   H     0.05206   0.51932   0.41169   0.00000  Uiso   1.00
H282   H     0.03202   0.54016   0.00130   0.00000  Uiso   1.00
H283   H     0.21203   0.45387   0.37611   0.00000  Uiso   1.00
H284   H     0.21892   0.62725   0.29113   0.00000  Uiso   1.00
N285   N     0.04931   0.49999   0.24999   0.00000  Uiso   1.00
N286   N     0.28402   0.50002   0.24999   0.00000  Uiso   1.00
O287   O     0.12708   0.56011   0.25000   0.00000  Uiso   1.00
O288   O     0.20627   0.56012   0.25000   0.00000  Uiso   1.00
O289   O     0.10775   0.49998   0.32549   0.00000  Uiso   1.00
O290   O     0.18694   0.49999   0.32549   0.00000  Uiso   1.00
O291   O     0.12706   0.43988   0.24999   0.00000  Uiso   1.00
O292   O     0.20625   0.43989   0.24999   0.00000  Uiso   1.00
O293   O     0.14640   0.50001   0.17451   0.00000  Uiso   1.00
O294   O     0.22559   0.50002   0.17451   0.00000  Uiso   1.00
O295   O     0.23297   0.37329   0.28887   0.00000  Uiso   1.00
C296   C     0.28184   0.36290   0.26072   0.00000  Uiso   1.00
H297   H     0.29099   0.37643   0.22123   0.00000  Uiso   1.00
H298   H     0.28852   0.66241   0.25739   0.00000  Uiso   1.00
C299   C     0.31670   0.37977   0.28834   0.00000  Uiso   1.00
H300   H     0.30537   0.36997   0.32944   0.00000  Uiso   1.00
H301   H     0.02116   0.36828   0.26977   0.00000  Uiso   1.00
H302   H     0.31648   0.41368   0.28596   0.00000  Uiso   1.00
C303   C     0.11466   0.37563   0.18525   0.00000  Uiso   1.00
H304   H     0.12633   0.40578   0.16955   0.00000  Uiso   1.00
O305   O     0.08149   0.35914   0.17294   0.00000  Uiso   1.00
O306   O     0.26308   0.55138   0.31487   0.00000  Uiso   1.00
C307   C     0.27557   0.56673   0.35810   0.00000  Uiso   1.00
H308   H     0.30411   0.59069   0.34578   0.00000  Uiso   1.00
H309   H     0.28831   0.54154   0.37928   0.00000  Uiso   1.00
C310   C     0.23067   0.58693   0.39523   0.00000  Uiso   1.00
H311   H     0.19957   0.56536   0.40517   0.00000  Uiso   1.00
H312   H     0.23911   0.59586   0.43123   0.00000  Uiso   1.00
H313   H     0.21978   0.61495   0.37749   0.00000  Uiso   1.00
C314   C     0.29036   0.45037   0.40870   0.00000  Uiso   1.00
H315   H     0.31174   0.43288   0.42891   0.00000  Uiso   1.00
O316   O     0.30726   0.45560   0.36237   0.00000  Uiso   1.00
O317   O     0.09126   0.54296   0.05717   0.00000  Uiso   1.00
C318   C     0.11217   0.58248   0.04901   0.00000  Uiso   1.00
H319   H     0.09231   0.60228   0.02781   0.00000  Uiso   1.00
H320   H     0.15183   0.58110   0.02691   0.00000  Uiso   1.00
C321   C     0.10788   0.60211   0.10101   0.00000  Uiso   1.00
H322   H     0.12764   0.58290   0.12278   0.00000  Uiso   1.00
H323   H     0.12431   0.63318   0.09514   0.00000  Uiso   1.00
H324   H     0.06874   0.60499   0.12387   0.00000  Uiso   1.00
C325   C     0.49966   0.57919   0.24999   0.00000  Uiso   1.00
C326   C     0.48098   0.50164   0.48810   0.00000  Uiso   1.00
C327   C     0.49267   0.48932   0.43562   0.00000  Uiso   1.00
C328   C     0.51649   0.49446   0.01503   0.00000  Uiso   1.00
C329   C     0.56512   0.48218   0.48786   0.00000  Uiso   1.00
C330   C     0.57531   0.46828   0.43681   0.00000  Uiso   1.00
C331   C     0.53813   0.46938   0.41280   0.00000  Uiso   1.00
C332   C     0.50459   0.49736   0.06875   0.00000  Uiso   1.00
C333   C     0.58985   0.49099   0.06579   0.00000  Uiso   1.00
C334   C     0.45906   0.49820   0.40691   0.00000  Uiso   1.00
C335   C     0.53054   0.64428   0.27099   0.00000  Uiso   1.00
C336   C     0.47411   0.49790   0.34994   0.00000  Uiso   1.00
C337   C     0.53437   0.35347   0.26715   0.00000  Uiso   1.00
C338   C     0.50293   0.37575   0.24446   0.00000  Uiso   1.00
C339   C     0.47306   0.35445   0.21950   0.00000  Uiso   1.00
C340   C     0.47063   0.64500   0.22351   0.00000  Uiso   1.00
C341   C     0.49936   0.62357   0.24905   0.00000  Uiso   1.00
C342   C     0.63186   0.52521   0.28346   0.00000  Uiso   1.00
C343   C     0.34912   0.52502   0.28267   0.00000  Uiso   1.00
C344   C     0.36767   0.47581   0.21649   0.00000  Uiso   1.00
C345   C     0.65147   0.47584   0.21644   0.00000  Uiso   1.00
C346   C     0.50098   0.42064   0.24783   0.00000  Uiso   1.00
C347   C     0.52600   0.49943   0.15026   0.00000  Uiso   1.00
C348   C     0.60189   0.48289   0.01325   0.00000  Uiso   1.00
C349   C     0.54079   0.49653   0.09406   0.00000  Uiso   1.00
C350   C     0.41212   0.51345   0.43238   0.00000  Uiso   1.00
C351   C     0.40053   0.52552   0.48349   0.00000  Uiso   1.00
C352   C     0.43536   0.52278   0.01036   0.00000  Uiso   1.00
Cu353  Cu    0.45311   0.49999   0.25000   0.00000  Uiso   1.00
Cu354  Cu    0.54689   0.50001   0.25000   0.00000  Uiso   1.00
H355   H     0.61858   0.49068   0.08461   0.00000  Uiso   1.00
H356   H     0.44808   0.62813   0.20478   0.00000  Uiso   1.00
H357   H     0.36231   0.54476   0.30753   0.00000  Uiso   1.00
H358   H     0.39396   0.45637   0.18960   0.00000  Uiso   1.00
H359   H     0.64042   0.45630   0.18970   0.00000  Uiso   1.00
H360   H     0.64001   0.47684   0.49314   0.00000  Uiso   1.00
H361   H     0.46682   0.49793   0.09180   0.00000  Uiso   1.00
H362   H     0.38539   0.51932   0.41169   0.00000  Uiso   1.00
H363   H     0.36535   0.54016   0.00130   0.00000  Uiso   1.00
H364   H     0.54536   0.45387   0.37611   0.00000  Uiso   1.00
H365   H     0.55225   0.62725   0.29113   0.00000  Uiso   1.00
N366   N     0.38265   0.49999   0.24999   0.00000  Uiso   1.00
N367   N     0.61735   0.50002   0.24999   0.00000  Uiso   1.00
O368   O     0.46042   0.56011   0.25000   0.00000  Uiso   1.00
O369   O     0.53961   0.56012   0.25000   0.00000  Uiso   1.00
O370   O     0.44108   0.49998   0.32549   0.00000  Uiso   1.00
O371   O     0.52027   0.49999   0.32549   0.00000  Uiso   1.00
O372   O     0.46039   0.43988   0.24999   0.00000  Uiso   1.00
O373   O     0.53958   0.43989   0.24999   0.00000  Uiso   1.00
O374   O     0.47973   0.50001   0.17451   0.00000  Uiso   1.00
O375   O     0.55892   0.50002   0.17451   0.00000  Uiso   1.00
O376   O     0.56630   0.37329   0.28887   0.00000  Uiso   1.00
C377   C     0.61518   0.36290   0.26072   0.00000  Uiso   1.00
H378   H     0.62433   0.37643   0.22123   0.00000  Uiso   1.00
H379   H     0.62185   0.66241   0.25739   0.00000  Uiso   1.00
C380   C     0.65003   0.37977   0.28834   0.00000  Uiso   1.00
H381   H     0.63871   0.36997   0.32944   0.00000  Uiso   1.00
H382   H     0.35449   0.36828   0.26977   0.00000  Uiso   1.00
H383   H     0.64982   0.41368   0.28596   0.00000  Uiso   1.00
C384   C     0.44799   0.37563   0.18525   0.00000  Uiso   1.00
H385   H     0.45966   0.40578   0.16955   0.00000  Uiso   1.00
O386   O     0.41483   0.35914   0.17294   0.00000  Uiso   1.00
O387   O     0.59641   0.55138   0.31487   0.00000  Uiso   1.00
C388   C     0.60890   0.56673   0.35810   0.00000  Uiso   1.00
H389   H     0.63745   0.59069   0.34578   0.00000  Uiso   1.00
H390   H     0.62165   0.54154   0.37928   0.00000  Uiso   1.00
C391   C     0.56400   0.58693   0.39523   0.00000  Uiso   1.00
H392   H     0.53291   0.56536   0.40517   0.00000  Uiso   1.00
H393   H     0.57245   0.59586   0.43123   0.00000  Uiso   1.00
H394   H     0.55312   0.61495   0.37749   0.00000  Uiso   1.00
C395   C     0.62370   0.45037   0.40870   0.00000  Uiso   1.00
H396   H     0.64508   0.43288   0.42891   0.00000  Uiso   1.00
O397   O     0.64060   0.45560   0.36237   0.00000  Uiso   1.00
O398   O     0.42459   0.54296   0.05717   0.00000  Uiso   1.00
C399   C     0.44550   0.58248   0.04901   0.00000  Uiso   1.00
H400   H     0.42565   0.60228   0.02781   0.00000  Uiso   1.00
H401   H     0.48517   0.58110   0.02691   0.00000  Uiso   1.00
C402   C     0.44122   0.60211   0.10101   0.00000  Uiso   1.00
H403   H     0.46098   0.58290   0.12278   0.00000  Uiso   1.00
H404   H     0.45765   0.63318   0.09514   0.00000  Uiso   1.00
H405   H     0.40208   0.60499   0.12387   0.00000  Uiso   1.00
C406   C     0.83300   0.57919   0.24999   0.00000  Uiso   1.00
C407   C     0.81431   0.50164   0.48810   0.00000  Uiso   1.00
C408   C     0.82600   0.48932   0.43562   0.00000  Uiso   1.00
C409   C     0.84982   0.49446   0.01503   0.00000  Uiso   1.00
C410   C     0.89845   0.48218   0.48786   0.00000  Uiso   1.00
C411   C     0.90864   0.46828   0.43681   0.00000  Uiso   1.00
C412   C     0.87146   0.46938   0.41280   0.00000  Uiso   1.00
C413   C     0.83793   0.49736   0.06875   0.00000  Uiso   1.00
C414   C     0.92319   0.49099   0.06579   0.00000  Uiso   1.00
C415   C     0.79239   0.49820   0.40691   0.00000  Uiso   1.00
C416   C     0.86387   0.64428   0.27099   0.00000  Uiso   1.00
C417   C     0.80744   0.49790   0.34994   0.00000  Uiso   1.00
C418   C     0.86770   0.35347   0.26715   0.00000  Uiso   1.00
C419   C     0.83627   0.37575   0.24446   0.00000  Uiso   1.00
C420   C     0.80640   0.35445   0.21950   0.00000  Uiso   1.00
C421   C     0.80397   0.64500   0.22351   0.00000  Uiso   1.00
C422   C     0.83269   0.62357   0.24905   0.00000  Uiso   1.00
C423   C     0.96519   0.52521   0.28346   0.00000  Uiso   1.00
C424   C     0.68246   0.52502   0.28267   0.00000  Uiso   1.00
C425   C     0.70100   0.47581   0.21649   0.00000  Uiso   1.00
C426   C     0.98481   0.47584   0.21644   0.00000  Uiso   1.00
C427   C     0.83431   0.42064   0.24783   0.00000  Uiso   1.00
C428   C     0.85933   0.49943   0.15026   0.00000  Uiso   1.00
C429   C     0.93522   0.48289   0.01325   0.00000  Uiso   1.00
C430   C     0.87412   0.49653   0.09406   0.00000  Uiso   1.00
C431   C     0.74545   0.51345   0.43238   0.00000  Uiso   1.00
C432   C     0.73386   0.52552   0.48349   0.00000  Uiso   1.00
C433   C     0.76870   0.52278   0.01036   0.00000  Uiso   1.00
Cu434  Cu    0.78645   0.49999   0.25000   0.00000  Uiso   1.00
Cu435  Cu    0.88022   0.50001   0.25000   0.00000  Uiso   1.00
H436   H     0.95192   0.49068   0.08461   0.00000  Uiso   1.00
H437   H     0.78141   0.62813   0.20478   0.00000  Uiso   1.00
H438   H     0.69564   0.54476   0.30753   0.00000  Uiso   1.00
H439   H     0.72729   0.45637   0.18960   0.00000  Uiso   1.00
H440   H     0.97376   0.45630   0.18970   0.00000  Uiso   1.00
H441   H     0.97334   0.47684   0.49314   0.00000  Uiso   1.00
H442   H     0.80016   0.49793   0.09180   0.00000  Uiso   1.00
H443   H     0.71873   0.51932   0.41169   0.00000  Uiso   1.00
H444   H     0.69868   0.54016   0.00130   0.00000  Uiso   1.00
H445   H     0.87870   0.45387   0.37611   0.00000  Uiso   1.00
H446   H     0.88558   0.62725   0.29113   0.00000  Uiso   1.00
N447   N     0.71598   0.49999   0.24999   0.00000  Uiso   1.00
N448   N     0.95069   0.50002   0.24999   0.00000  Uiso   1.00
O449   O     0.79375   0.56011   0.25000   0.00000  Uiso   1.00
O450   O     0.87294   0.56012   0.25000   0.00000  Uiso   1.00
O451   O     0.77441   0.49998   0.32549   0.00000  Uiso   1.00
O452   O     0.85360   0.49999   0.32549   0.00000  Uiso   1.00
O453   O     0.79373   0.43988   0.24999   0.00000  Uiso   1.00
O454   O     0.87292   0.43989   0.24999   0.00000  Uiso   1.00
O455   O     0.81306   0.50001   0.17451   0.00000  Uiso   1.00
O456   O     0.89225   0.50002   0.17451   0.00000  Uiso   1.00
O457   O     0.89964   0.37329   0.28887   0.00000  Uiso   1.00
C458   C     0.94851   0.36290   0.26072   0.00000  Uiso   1.00
H459   H     0.95766   0.37643   0.22123   0.00000  Uiso   1.00
H460   H     0.95518   0.66241   0.25739   0.00000  Uiso   1.00
C461   C     0.98336   0.37977   0.28834   0.00000  Uiso   1.00
H462   H     0.97204   0.36997   0.32944   0.00000  Uiso   1.00
H463   H     0.68783   0.36828   0.26977   0.00000  Uiso   1.00
H464   H     0.98315   0.41368   0.28596   0.00000  Uiso   1.00
C465   C     0.78132   0.37563   0.18525   0.00000  Uiso   1.00
H466   H     0.79300   0.40578   0.16955   0.00000  Uiso   1.00
O467   O     0.74816   0.35914   0.17294   0.00000  Uiso   1.00
O468   O     0.92975   0.55138   0.31487   0.00000  Uiso   1.00
C469   C     0.94223   0.56673   0.35810   0.00000  Uiso   1.00
H470   H     0.97078   0.59069   0.34578   0.00000  Uiso   1.00
H471   H     0.95498   0.54154   0.37928   0.00000  Uiso   1.00
C472   C     0.89734   0.58693   0.39523   0.00000  Uiso   1.00
H473   H     0.86624   0.56536   0.40517   0.00000  Uiso   1.00
H474   H     0.90578   0.59586   0.43123   0.00000  Uiso   1.00
H475   H     0.88645   0.61495   0.37749   0.00000  Uiso   1.00
C476   C     0.95703   0.45037   0.40870   0.00000  Uiso   1.00
H477   H     0.97841   0.43288   0.42891   0.00000  Uiso   1.00
O478   O     0.97393   0.45560   0.36237   0.00000  Uiso   1.00
O479   O     0.75793   0.54296   0.05717   0.00000  Uiso   1.00
C480   C     0.77884   0.58248   0.04901   0.00000  Uiso   1.00
H481   H     0.75898   0.60228   0.02781   0.00000  Uiso   1.00
H482   H     0.81850   0.58110   0.02691   0.00000  Uiso   1.00
C483   C     0.77455   0.60211   0.10101   0.00000  Uiso   1.00
H484   H     0.79431   0.58290   0.12278   0.00000  Uiso   1.00
H485   H     0.79098   0.63318   0.09514   0.00000  Uiso   1.00
H486   H     0.73541   0.60499   0.12387   0.00000  Uiso   1.00
C487   C     0.16633   0.91253   0.24999   0.00000  Uiso   1.00
C488   C     0.14764   0.83497   0.48810   0.00000  Uiso   1.00
C489   C     0.15933   0.82266   0.43562   0.00000  Uiso   1.00
C490   C     0.18316   0.82780   0.01503   0.00000  Uiso   1.00
C491   C     0.23179   0.81551   0.48786   0.00000  Uiso   1.00
C492   C     0.24198   0.80162   0.43681   0.00000  Uiso   1.00
C493   C     0.20480   0.80271   0.41280   0.00000  Uiso   1.00
C494   C     0.17126   0.83070   0.06875   0.00000  Uiso   1.00
C495   C     0.25652   0.82432   0.06579   0.00000  Uiso   1.00
C496   C     0.12572   0.83154   0.40691   0.00000  Uiso   1.00
C497   C     0.19721   0.97761   0.27099   0.00000  Uiso   1.00
C498   C     0.14078   0.83123   0.34994   0.00000  Uiso   1.00
C499   C     0.20103   0.68680   0.26715   0.00000  Uiso   1.00
C500   C     0.16960   0.70908   0.24446   0.00000  Uiso   1.00
C501   C     0.13973   0.68778   0.21950   0.00000  Uiso   1.00
C502   C     0.13730   0.97834   0.22351   0.00000  Uiso   1.00
C503   C     0.16602   0.95690   0.24905   0.00000  Uiso   1.00
C504   C     0.29852   0.85854   0.28346   0.00000  Uiso   1.00
C505   C     0.01579   0.85835   0.28267   0.00000  Uiso   1.00
C506   C     0.03433   0.80914   0.21649   0.00000  Uiso   1.00
C507   C     0.31814   0.80918   0.21644   0.00000  Uiso   1.00
C508   C     0.16765   0.75397   0.24783   0.00000  Uiso   1.00
C509   C     0.19266   0.83276   0.15026   0.00000  Uiso   1.00
C510   C     0.26856   0.81622   0.01325   0.00000  Uiso   1.00
C511   C     0.20745   0.82986   0.09406   0.00000  Uiso   1.00
C512   C     0.07878   0.84678   0.43238   0.00000  Uiso   1.00
C513   C     0.06719   0.85885   0.48349   0.00000  Uiso   1.00
C514   C     0.10203   0.85612   0.01036   0.00000  Uiso   1.00
Cu515  Cu    0.11978   0.83333   0.25000   0.00000  Uiso   1.00
Cu516  Cu    0.21355   0.83334   0.25000   0.00000  Uiso   1.00
H517   H     0.28525   0.82402   0.08461   0.00000  Uiso   1.00
H518   H     0.11474   0.96147   0.20478   0.00000  Uiso   1.00
H519   H     0.02897   0.87809   0.30753   0.00000  Uiso   1.00
H520   H     0.06063   0.78970   0.18960   0.00000  Uiso   1.00
H521   H     0.30709   0.78963   0.18970   0.00000  Uiso   1.00
H522   H     0.30667   0.81017   0.49314   0.00000  Uiso   1.00
H523   H     0.13349   0.83126   0.09180   0.00000  Uiso   1.00
H524   H     0.05206   0.85265   0.41169   0.00000  Uiso   1.00
H525   H     0.03202   0.87349   0.00130   0.00000  Uiso   1.00
H526   H     0.21203   0.78720   0.37611   0.00000  Uiso   1.00
H527   H     0.21892   0.96059   0.29113   0.00000  Uiso   1.00
N528   N     0.04931   0.83332   0.24999   0.00000  Uiso   1.00
N529   N     0.28402   0.83335   0.24999   0.00000  Uiso   1.00
O530   O     0.12708   0.89345   0.25000   0.00000  Uiso   1.00
O531   O     0.20627   0.89346   0.25000   0.00000  Uiso   1.00
O532   O     0.10775   0.83332   0.32549   0.00000  Uiso   1.00
O533   O     0.18694   0.83333   0.32549   0.00000  Uiso   1.00
O534   O     0.12706   0.77321   0.24999   0.00000  Uiso   1.00
O535   O     0.20625   0.77322   0.24999   0.00000  Uiso   1.00
O536   O     0.14640   0.83334   0.17451   0.00000  Uiso   1.00
O537   O     0.22559   0.83335   0.17451   0.00000  Uiso   1.00
O538   O     0.23297   0.70663   0.28887   0.00000  Uiso   1.00
C539   C     0.28184   0.69623   0.26072   0.00000  Uiso   1.00
H540   H     0.29099   0.70976   0.22123   0.00000  Uiso   1.00
H541   H     0.28852   0.99575   0.25739   0.00000  Uiso   1.00
C542   C     0.31670   0.71311   0.28834   0.00000  Uiso   1.00
H543   H     0.30537   0.70330   0.32944   0.00000  Uiso   1.00
H544   H     0.02116   0.70162   0.26977   0.00000  Uiso   1.00
H545   H     0.31648   0.74701   0.28596   0.00000  Uiso   1.00
C546   C     0.11466   0.70896   0.18525   0.00000  Uiso   1.00
H547   H     0.12633   0.73912   0.16955   0.00000  Uiso   1.00
O548   O     0.08149   0.69247   0.17294   0.00000  Uiso   1.00
O549   O     0.26308   0.88471   0.31487   0.00000  Uiso   1.00
C550   C     0.27557   0.90006   0.35810   0.00000  Uiso   1.00
H551   H     0.30411   0.92402   0.34578   0.00000  Uiso   1.00
H552   H     0.28831   0.87487   0.37928   0.00000  Uiso   1.00
C553   C     0.23067   0.92027   0.39523   0.00000  Uiso   1.00
H554   H     0.19957   0.89869   0.40517   0.00000  Uiso   1.00
H555   H     0.23911   0.92920   0.43123   0.00000  Uiso   1.00
H556   H     0.21978   0.94828   0.37749   0.00000  Uiso   1.00
C557   C     0.29036   0.78370   0.40870   0.00000  Uiso   1.00
H558   H     0.31174   0.76621   0.42891   0.00000  Uiso   1.00
O559   O     0.30726   0.78894   0.36237   0.00000  Uiso   1.00
O560   O     0.09126   0.87630   0.05717   0.00000  Uiso   1.00
C561   C     0.11217   0.91581   0.04901   0.00000  Uiso   1.00
H562   H     0.09231   0.93562   0.02781   0.00000  Uiso   1.00
H563   H     0.15183   0.91443   0.02691   0.00000  Uiso   1.00
C564   C     0.10788   0.93544   0.10101   0.00000  Uiso   1.00
H565   H     0.12764   0.91623   0.12278   0.00000  Uiso   1.00
H566   H     0.12431   0.96652   0.09514   0.00000  Uiso   1.00
H567   H     0.06874   0.93833   0.12387   0.00000  Uiso   1.00
C568   C     0.49966   0.91253   0.24999   0.00000  Uiso   1.00
C569   C     0.48098   0.83497   0.48810   0.00000  Uiso   1.00
C570   C     0.49267   0.82266   0.43562   0.00000  Uiso   1.00
C571   C     0.51649   0.82780   0.01503   0.00000  Uiso   1.00
C572   C     0.56512   0.81551   0.48786   0.00000  Uiso   1.00
C573   C     0.57531   0.80162   0.43681   0.00000  Uiso   1.00
C574   C     0.53813   0.80271   0.41280   0.00000  Uiso   1.00
C575   C     0.50459   0.83070   0.06875   0.00000  Uiso   1.00
C576   C     0.58985   0.82432   0.06579   0.00000  Uiso   1.00
C577   C     0.45906   0.83154   0.40691   0.00000  Uiso   1.00
C578   C     0.53054   0.97761   0.27099   0.00000  Uiso   1.00
C579   C     0.47411   0.83123   0.34994   0.00000  Uiso   1.00
C580   C     0.53437   0.68680   0.26715   0.00000  Uiso   1.00
C581   C     0.50293   0.70908   0.24446   0.00000  Uiso   1.00
C582   C     0.47306   0.68778   0.21950   0.00000  Uiso   1.00
C583   C     0.47063   0.97834   0.22351   0.00000  Uiso   1.00
C584   C     0.49936   0.95690   0.24905   0.00000  Uiso   1.00
C585   C     0.63186   0.85854   0.28346   0.00000  Uiso   1.00
C586   C     0.34912   0.85835   0.28267   0.00000  Uiso   1.00
C587   C     0.36767   0.80914   0.21649   0.00000  Uiso   1.00
C588   C     0.65147   0.80918   0.21644   0.00000  Uiso   1.00
C589   C     0.50098   0.75397   0.24783   0.00000  Uiso   1.00
C590   C     0.52600   0.83276   0.15026   0.00000  Uiso   1.00
C591   C     0.60189   0.81622   0.01325   0.00000  Uiso   1.00
C592   C     0.54079   0.82986   0.09406   0.00000  Uiso   1.00
C593   C     0.41212   0.84678   0.43238   0.00000  Uiso   1.00
C594   C     0.40053   0.85885   0.48349   0.00000  Uiso   1.00
C595   C     0.43536   0.85612   0.01036   0.00000  Uiso   1.00
Cu596  Cu    0.45311   0.83333   0.25000   0.00000  Uiso   1.00
Cu597  Cu    0.54689   0.83334   0.25000   0.00000  Uiso   1.00
H598   H     0.61858   0.82402   0.08461   0.00000  Uiso   1.00
H599   H     0.44808   0.96147   0.20478   0.00000  Uiso   1.00
H600   H     0.36231   0.87809   0.30753   0.00000  Uiso   1.00
H601   H     0.39396   0.78970   0.18960   0.00000  Uiso   1.00
H602   H     0.64042   0.78963   0.18970   0.00000  Uiso   1.00
H603   H     0.64001   0.81017   0.49314   0.00000  Uiso   1.00
H604   H     0.46682   0.83126   0.09180   0.00000  Uiso   1.00
H605   H     0.38539   0.85265   0.41169   0.00000  Uiso   1.00
H606   H     0.36535   0.87349   0.00130   0.00000  Uiso   1.00
H607   H     0.54536   0.78720   0.37611   0.00000  Uiso   1.00
H608   H     0.55225   0.96059   0.29113   0.00000  Uiso   1.00
N609   N     0.38265   0.83332   0.24999   0.00000  Uiso   1.00
N610   N     0.61735   0.83335   0.24999   0.00000  Uiso   1.00
O611   O     0.46042   0.89345   0.25000   0.00000  Uiso   1.00
O612   O     0.53961   0.89346   0.25000   0.00000  Uiso   1.00
O613   O     0.44108   0.83332   0.32549   0.00000  Uiso   1.00
O614   O     0.52027   0.83333   0.32549   0.00000  Uiso   1.00
O615   O     0.46039   0.77321   0.24999   0.00000  Uiso   1.00
O616   O     0.53958   0.77322   0.24999   0.00000  Uiso   1.00
O617   O     0.47973   0.83334   0.17451   0.00000  Uiso   1.00
O618   O     0.55892   0.83335   0.17451   0.00000  Uiso   1.00
O619   O     0.56630   0.70663   0.28887   0.00000  Uiso   1.00
C620   C     0.61518   0.69623   0.26072   0.00000  Uiso   1.00
H621   H     0.62433   0.70976   0.22123   0.00000  Uiso   1.00
H622   H     0.62185   0.99575   0.25739   0.00000  Uiso   1.00
C623   C     0.65003   0.71311   0.28834   0.00000  Uiso   1.00
H624   H     0.63871   0.70330   0.32944   0.00000  Uiso   1.00
H625   H     0.35449   0.70162   0.26977   0.00000  Uiso   1.00
H626   H     0.64982   0.74701   0.28596   0.00000  Uiso   1.00
C627   C     0.44799   0.70896   0.18525   0.00000  Uiso   1.00
H628   H     0.45966   0.73912   0.16955   0.00000  Uiso   1.00
O629   O     0.41483   0.69247   0.17294   0.00000  Uiso   1.00
O630   O     0.59641   0.88471   0.31487   0.00000  Uiso   1.00
C631   C     0.60890   0.90006   0.35810   0.00000  Uiso   1.00
H632   H     0.63745   0.92402   0.34578   0.00000  Uiso   1.00
H633   H     0.62165   0.87487   0.37928   0.00000  Uiso   1.00
C634   C     0.56400   0.92027   0.39523   0.00000  Uiso   1.00
H635   H     0.53291   0.89869   0.40517   0.00000  Uiso   1.00
H636   H     0.57245   0.92920   0.43123   0.00000  Uiso   1.00
H637   H     0.55312   0.94828   0.37749   0.00000  Uiso   1.00
C638   C     0.62370   0.78370   0.40870   0.00000  Uiso   1.00
H639   H     0.64508   0.76621   0.42891   0.00000  Uiso   1.00
O640   O     0.64060   0.78894   0.36237   0.00000  Uiso   1.00
O641   O     0.42459   0.87630   0.05717   0.00000  Uiso   1.00
C642   C     0.44550   0.91581   0.04901   0.00000  Uiso   1.00
H643   H     0.42565   0.93562   0.02781   0.00000  Uiso   1.00
H644   H     0.48517   0.91443   0.02691   0.00000  Uiso   1.00
C645   C     0.44122   0.93544   0.10101   0.00000  Uiso   1.00
H646   H     0.46098   0.91623   0.12278   0.00000  Uiso   1.00
H647   H     0.45765   0.96652   0.09514   0.00000  Uiso   1.00
H648   H     0.40208   0.93833   0.12387   0.00000  Uiso   1.00
C649   C     0.83300   0.91253   0.24999   0.00000  Uiso   1.00
C650   C     0.81431   0.83497   0.48810   0.00000  Uiso   1.00
C651   C     0.82600   0.82266   0.43562   0.00000  Uiso   1.00
C652   C     0.84982   0.82780   0.01503   0.00000  Uiso   1.00
C653   C     0.89845   0.81551   0.48786   0.00000  Uiso   1.00
C654   C     0.90864   0.80162   0.43681   0.00000  Uiso   1.00
C655   C     0.87146   0.80271   0.41280   0.00000  Uiso   1.00
C656   C     0.83793   0.83070   0.06875   0.00000  Uiso   1.00
C657   C     0.92319   0.82432   0.06579   0.00000  Uiso   1.00
C658   C     0.79239   0.83154   0.40691   0.00000  Uiso   1.00
C659   C     0.86387   0.97761   0.27099   0.00000  Uiso   1.00
C660   C     0.80744   0.83123   0.34994   0.00000  Uiso   1.00
C661   C     0.86770   0.68680   0.26715   0.00000  Uiso   1.00
C662   C     0.83627   0.70908   0.24446   0.00000  Uiso   1.00
C663   C     0.80640   0.68778   0.21950   0.00000  Uiso   1.00
C664   C     0.80397   0.97834   0.22351   0.00000  Uiso   1.00
C665   C     0.83269   0.95690   0.24905   0.00000  Uiso   1.00
C666   C     0.96519   0.85854   0.28346   0.00000  Uiso   1.00
C667   C     0.68246   0.85835   0.28267   0.00000  Uiso   1.00
C668   C     0.70100   0.80914   0.21649   0.00000  Uiso   1.00
C669   C     0.98481   0.80918   0.21644   0.00000  Uiso   1.00
C670   C     0.83431   0.75397   0.24783   0.00000  Uiso   1.00
C671   C     0.85933   0.83276   0.15026   0.00000  Uiso   1.00
C672   C     0.93522   0.81622   0.01325   0.00000  Uiso   1.00
C673   C     0.87412   0.82986   0.09406   0.00000  Uiso   1.00
C674   C     0.74545   0.84678   0.43238   0.00000  Uiso   1.00
C675   C     0.73386   0.85885   0.48349   0.00000  Uiso   1.00
C676   C     0.76870   0.85612   0.01036   0.00000  Uiso   1.00
Cu677  Cu    0.78645   0.83333   0.25000   0.00000  Uiso   1.00
Cu678  Cu    0.88022   0.83334   0.25000   0.00000  Uiso   1.00
H679   H     0.95192   0.82402   0.08461   0.00000  Uiso   1.00
H680   H     0.78141   0.96147   0.20478   0.00000  Uiso   1.00
H681   H     0.69564   0.87809   0.30753   0.00000  Uiso   1.00
H682   H     0.72729   0.78970   0.18960   0.00000  Uiso   1.00
H683   H     0.97376   0.78963   0.18970   0.00000  Uiso   1.00
H684   H     0.97334   0.81017   0.49314   0.00000  Uiso   1.00
H685   H     0.80016   0.83126   0.09180   0.00000  Uiso   1.00
H686   H     0.71873   0.85265   0.41169   0.00000  Uiso   1.00
H687   H     0.69868   0.87349   0.00130   0.00000  Uiso   1.00
H688   H     0.87870   0.78720   0.37611   0.00000  Uiso   1.00
H689   H     0.88558   0.96059   0.29113   0.00000  Uiso   1.00
N690   N     0.71598   0.83332   0.24999   0.00000  Uiso   1.00
N691   N     0.95069   0.83335   0.24999   0.00000  Uiso   1.00
O692   O     0.79375   0.89345   0.25000   0.00000  Uiso   1.00
O693   O     0.87294   0.89346   0.25000   0.00000  Uiso   1.00
O694   O     0.77441   0.83332   0.32549   0.00000  Uiso   1.00
O695   O     0.85360   0.83333   0.32549   0.00000  Uiso   1.00
O696   O     0.79373   0.77321   0.24999   0.00000  Uiso   1.00
O697   O     0.87292   0.77322   0.24999   0.00000  Uiso   1.00
O698   O     0.81306   0.83334   0.17451   0.00000  Uiso   1.00
O699   O     0.89225   0.83335   0.17451   0.00000  Uiso   1.00
O700   O     0.89964   0.70663   0.28887   0.00000  Uiso   1.00
C701   C     0.94851   0.69623   0.26072   0.00000  Uiso   1.00
H702   H     0.95766   0.70976   0.22123   0.00000  Uiso   1.00
H703   H     0.95518   0.99575   0.25739   0.00000  Uiso   1.00
C704   C     0.98336   0.71311   0.28834   0.00000  Uiso   1.00
H705   H     0.97204   0.70330   0.32944   0.00000  Uiso   1.00
H706   H     0.68783   0.70162   0.26977   0.00000  Uiso   1.00
H707   H     0.98315   0.74701   0.28596   0.00000  Uiso   1.00
C708   C     0.78132   0.70896   0.18525   0.00000  Uiso   1.00
H709   H     0.79300   0.73912   0.16955   0.00000  Uiso   1.00
O710   O     0.74816   0.69247   0.17294   0.00000  Uiso   1.00
O711   O     0.92975   0.88471   0.31487   0.00000  Uiso   1.00
C712   C     0.94223   0.90006   0.35810   0.00000  Uiso   1.00
H713   H     0.97078   0.92402   0.34578   0.00000  Uiso   1.00
H714   H     0.95498   0.87487   0.37928   0.00000  Uiso   1.00
C715   C     0.89734   0.92027   0.39523   0.00000  Uiso   1.00
H716   H     0.86624   0.89869   0.40517   0.00000  Uiso   1.00
H717   H     0.90578   0.92920   0.43123   0.00000  Uiso   1.00
H718   H     0.88645   0.94828   0.37749   0.00000  Uiso   1.00
C719   C     0.95703   0.78370   0.40870   0.00000  Uiso   1.00
H720   H     0.97841   0.76621   0.42891   0.00000  Uiso   1.00
O721   O     0.97393   0.78894   0.36237   0.00000  Uiso   1.00
O722   O     0.75793   0.87630   0.05717   0.00000  Uiso   1.00
C723   C     0.77884   0.91581   0.04901   0.00000  Uiso   1.00
H724   H     0.75898   0.93562   0.02781   0.00000  Uiso   1.00
H725   H     0.81850   0.91443   0.02691   0.00000  Uiso   1.00
C726   C     0.77455   0.93544   0.10101   0.00000  Uiso   1.00
H727   H     0.79431   0.91623   0.12278   0.00000  Uiso   1.00
H728   H     0.79098   0.96652   0.09514   0.00000  Uiso   1.00
H729   H     0.73541   0.93833   0.12387   0.00000  Uiso   1.00
C730   C     0.16633   0.24586   0.74999   0.00000  Uiso   1.00
C731   C     0.14764   0.16830   0.98810   0.00000  Uiso   1.00
C732   C     0.15933   0.15599   0.93562   0.00000  Uiso   1.00
C733   C     0.18316   0.16113   0.51503   0.00000  Uiso   1.00
C734   C     0.23179   0.14884   0.98786   0.00000  Uiso   1.00
C735   C     0.24198   0.13495   0.93681   0.00000  Uiso   1.00
C736   C     0.20480   0.13605   0.91280   0.00000  Uiso   1.00
C737   C     0.17126   0.16403   0.56875   0.00000  Uiso   1.00
C738   C     0.25652   0.15765   0.56579   0.00000  Uiso   1.00
C739   C     0.12572   0.16487   0.90691   0.00000  Uiso   1.00
C740   C     0.19721   0.31094   0.77099   0.00000  Uiso   1.00
C741   C     0.14078   0.16457   0.84994   0.00000  Uiso   1.00
C742   C     0.20103   0.02013   0.76715   0.00000  Uiso   1.00
C743   C     0.16960   0.04241   0.74446   0.00000  Uiso   1.00
C744   C     0.13973   0.02112   0.71950   0.00000  Uiso   1.00
C745   C     0.13730   0.31167   0.72351   0.00000  Uiso   1.00
C746   C     0.16602   0.29024   0.74905   0.00000  Uiso   1.00
C747   C     0.29852   0.19188   0.78346   0.00000  Uiso   1.00
C748   C     0.01579   0.19169   0.78267   0.00000  Uiso   1.00
C749   C     0.03433   0.14248   0.71649   0.00000  Uiso   1.00
C750   C     0.31814   0.14251   0.71644   0.00000  Uiso   1.00
C751   C     0.16765   0.08731   0.74783   0.00000  Uiso   1.00
C752   C     0.19266   0.16609   0.65026   0.00000  Uiso   1.00
C753   C     0.26856   0.14955   0.51325   0.00000  Uiso   1.00
C754   C     0.20745   0.16320   0.59406   0.00000  Uiso   1.00
C755   C     0.07878   0.18011   0.93238   0.00000  Uiso   1.00
C756   C     0.06719   0.19218   0.98349   0.00000  Uiso   1.00
C757   C     0.10203   0.18945   0.51036   0.00000  Uiso   1.00
Cu758  Cu    0.11978   0.16666   0.75000   0.00000  Uiso   1.00
Cu759  Cu    0.21355   0.16667   0.75000   0.00000  Uiso   1.00
H760   H     0.28525   0.15735   0.58461   0.00000  Uiso   1.00
H761   H     0.11474   0.29480   0.70478   0.00000  Uiso   1.00
H762   H     0.02897   0.21143   0.80753   0.00000  Uiso   1.00
H763   H     0.06063   0.12304   0.68960   0.00000  Uiso   1.00
H764   H     0.30709   0.12296   0.68970   0.00000  Uiso   1.00
H765   H     0.30667   0.14351   0.99314   0.00000  Uiso   1.00
H766   H     0.13349   0.16460   0.59180   0.00000  Uiso   1.00
H767   H     0.05206   0.18598   0.91169   0.00000  Uiso   1.00
H768   H     0.03202   0.20682   0.50130   0.00000  Uiso   1.00
H769   H     0.21203   0.12053   0.87611   0.00000  Uiso   1.00
H770   H     0.21892   0.29392   0.79113   0.00000  Uiso   1.00
N771   N     0.04931   0.16666   0.74999   0.00000  Uiso   1.00
N772   N     0.28402   0.16669   0.74999   0.00000  Uiso   1.00
O773   O     0.12708   0.22678   0.75000   0.00000  Uiso   1.00
O774   O     0.20627   0.22679   0.75000   0.00000  Uiso   1.00
O775   O     0.10775   0.16665   0.82549   0.00000  Uiso   1.00
O776   O     0.18694   0.16666   0.82549   0.00000  Uiso   1.00
O777   O     0.12706   0.10654   0.74999   0.00000  Uiso   1.00
O778   O     0.20625   0.10655   0.74999   0.00000  Uiso   1.00
O779   O     0.14640   0.16667   0.67451   0.00000  Uiso   1.00
O780   O     0.22559   0.16668   0.67451   0.00000  Uiso   1.00
O781   O     0.23297   0.03996   0.78887   0.00000  Uiso   1.00
C782   C     0.28184   0.02956   0.76072   0.00000  Uiso   1.00
H783   H     0.29099   0.04309   0.72123   0.00000  Uiso   1.00
H784   H     0.28852   0.32908   0.75739   0.00000  Uiso   1.00
C785   C     0.31670   0.04644   0.78834   0.00000  Uiso   1.00
H786   H     0.30537   0.03664   0.82944   0.00000  Uiso   1.00
H787   H     0.02116   0.03495   0.76977   0.00000  Uiso   1.00
H788   H     0.31648   0.08034   0.78596   0.00000  Uiso   1.00
C789   C     0.11466   0.04229   0.68525   0.00000  Uiso   1.00
H790   H     0.12633   0.07245   0.66955   0.00000  Uiso   1.00
O791   O     0.08149   0.02581   0.67294   0.00000  Uiso   1.00
O792   O     0.26308   0.21804   0.81487   0.00000  Uiso   1.00
C793   C     0.27557   0.23339   0.85810   0.00000  Uiso   1.00
H794   H     0.30411   0.25736   0.84578   0.00000  Uiso   1.00
H795   H     0.28831   0.20821   0.87928   0.00000  Uiso   1.00
C796   C     0.23067   0.25360   0.89523   0.00000  Uiso   1.00
H797   H     0.19957   0.23202   0.90517   0.00000  Uiso   1.00
H798   H     0.23911   0.26253   0.93123   0.00000  Uiso   1.00
H799   H     0.21978   0.28161   0.87749   0.00000  Uiso   1.00
C800   C     0.29036   0.11703   0.90870   0.00000  Uiso   1.00
H801   H     0.31174   0.09955   0.92891   0.00000  Uiso   1.00
O802   O     0.30726   0.12227   0.86237   0.00000  Uiso   1.00
O803   O     0.09126   0.20963   0.55717   0.00000  Uiso   1.00
C804   C     0.11217   0.24914   0.54901   0.00000  Uiso   1.00
H805   H     0.09231   0.26895   0.52781   0.00000  Uiso   1.00
H806   H     0.15183   0.24777   0.52691   0.00000  Uiso   1.00
C807   C     0.10788   0.26878   0.60101   0.00000  Uiso   1.00
H808   H     0.12764   0.24957   0.62278   0.00000  Uiso   1.00
H809   H     0.12431   0.29985   0.59514   0.00000  Uiso   1.00
H810   H     0.06874   0.27166   0.62387   0.00000  Uiso   1.00
C811   C     0.49966   0.24586   0.74999   0.00000  Uiso   1.00
C812   C     0.48098   0.16830   0.98810   0.00000  Uiso   1.00
C813   C     0.49267   0.15599   0.93562   0.00000  Uiso   1.00
C814   C     0.51649   0.16113   0.51503   0.00000  Uiso   1.00
C815   C     0.56512   0.14884   0.98786   0.00000  Uiso   1.00
C816   C     0.57531   0.13495   0.93681   0.00000  Uiso   1.00
C817   C     0.53813   0.13605   0.91280   0.00000  Uiso   1.00
C818   C     0.50459   0.16403   0.56875   0.00000  Uiso   1.00
C819   C     0.58985   0.15765   0.56579   0.00000  Uiso   1.00
C820   C     0.45906   0.16487   0.90691   0.00000  Uiso   1.00
C821   C     0.53054   0.31094   0.77099   0.00000  Uiso   1.00
C822   C     0.47411   0.16457   0.84994   0.00000  Uiso   1.00
C823   C     0.53437   0.02013   0.76715   0.00000  Uiso   1.00
C824   C     0.50293   0.04241   0.74446   0.00000  Uiso   1.00
C825   C     0.47306   0.02112   0.71950   0.00000  Uiso   1.00
C826   C     0.47063   0.31167   0.72351   0.00000  Uiso   1.00
C827   C     0.49936   0.29024   0.74905   0.00000  Uiso   1.00
C828   C     0.63186   0.19188   0.78346   0.00000  Uiso   1.00
C829   C     0.34912   0.19169   0.78267   0.00000  Uiso   1.00
C830   C     0.36767   0.14248   0.71649   0.00000  Uiso   1.00
C831   C     0.65147   0.14251   0.71644   0.00000  Uiso   1.00
C832   C     0.50098   0.08731   0.74783   0.00000  Uiso   1.00
C833   C     0.52600   0.16609   0.65026   0.00000  Uiso   1.00
C834   C     0.60189   0.14955   0.51325   0.00000  Uiso   1.00
C835   C     0.54079   0.16320   0.59406   0.00000  Uiso   1.00
C836   C     0.41212   0.18011   0.93238   0.00000  Uiso   1.00
C837   C     0.40053   0.19218   0.98349   0.00000  Uiso   1.00
C838   C     0.43536   0.18945   0.51036   0.00000  Uiso   1.00
Cu839  Cu    0.45311   0.16666   0.75000   0.00000  Uiso   1.00
Cu840  Cu    0.54689   0.16667   0.75000   0.00000  Uiso   1.00
H841   H     0.61858   0.15735   0.58461   0.00000  Uiso   1.00
H842   H     0.44808   0.29480   0.70478   0.00000  Uiso   1.00
H843   H     0.36231   0.21143   0.80753   0.00000  Uiso   1.00
H844   H     0.39396   0.12304   0.68960   0.00000  Uiso   1.00
H845   H     0.64042   0.12296   0.68970   0.00000  Uiso   1.00
H846   H     0.64001   0.14351   0.99314   0.00000  Uiso   1.00
H847   H     0.46682   0.16460   0.59180   0.00000  Uiso   1.00
H848   H     0.38539   0.18598   0.91169   0.00000  Uiso   1.00
H849   H     0.36535   0.20682   0.50130   0.00000  Uiso   1.00
H850   H     0.54536   0.12053   0.87611   0.00000  Uiso   1.00
H851   H     0.55225   0.29392   0.79113   0.00000  Uiso   1.00
N852   N     0.38265   0.16666   0.74999   0.00000  Uiso   1.00
N853   N     0.61735   0.16669   0.74999   0.00000  Uiso   1.00
O854   O     0.46042   0.22678   0.75000   0.00000  Uiso   1.00
O855   O     0.53961   0.22679   0.75000   0.00000  Uiso   1.00
O856   O     0.44108   0.16665   0.82549   0.00000  Uiso   1.00
O857   O     0.52027   0.16666   0.82549   0.00000  Uiso   1.00
O858   O     0.46039   0.10654   0.74999   0.00000  Uiso   1.00
O859   O     0.53958   0.10655   0.74999   0.00000  Uiso   1.00
O860   O     0.47973   0.16667   0.67451   0.00000  Uiso   1.00
O861   O     0.55892   0.16668   0.67451   0.00000  Uiso   1.00
O862   O     0.56630   0.03996   0.78887   0.00000  Uiso   1.00
C863   C     0.61518   0.02956   0.76072   0.00000  Uiso   1.00
H864   H     0.62433   0.04309   0.72123   0.00000  Uiso   1.00
H865   H     0.62185   0.32908   0.75739   0.00000  Uiso   1.00
C866   C     0.65003   0.04644   0.78834   0.00000  Uiso   1.00
H867   H     0.63871   0.03664   0.82944   0.00000  Uiso   1.00
H868   H     0.35449   0.03495   0.76977   0.00000  Uiso   1.00
H869   H     0.64982   0.08034   0.78596   0.00000  Uiso   1.00
C870   C     0.44799   0.04229   0.68525   0.00000  Uiso   1.00
H871   H     0.45966   0.07245   0.66955   0.00000  Uiso   1.00
O872   O     0.41483   0.02581   0.67294   0.00000  Uiso   1.00
O873   O     0.59641   0.21804   0.81487   0.00000  Uiso   1.00
C874   C     0.60890   0.23339   0.85810   0.00000  Uiso   1.00
H875   H     0.63745   0.25736   0.84578   0.00000  Uiso   1.00
H876   H     0.62165   0.20821   0.87928   0.00000  Uiso   1.00
C877   C     0.56400   0.25360   0.89523   0.00000  Uiso   1.00
H878   H     0.53291   0.23202   0.90517   0.00000  Uiso   1.00
H879   H     0.57245   0.26253   0.93123   0.00000  Uiso   1.00
H880   H     0.55312   0.28161   0.87749   0.00000  Uiso   1.00
C881   C     0.62370   0.11703   0.90870   0.00000  Uiso   1.00
H882   H     0.64508   0.09955   0.92891   0.00000  Uiso   1.00
O883   O     0.64060   0.12227   0.86237   0.00000  Uiso   1.00
O884   O     0.42459   0.20963   0.55717   0.00000  Uiso   1.00
C885   C     0.44550   0.24914   0.54901   0.00000  Uiso   1.00
H886   H     0.42565   0.26895   0.52781   0.00000  Uiso   1.00
H887   H     0.48517   0.24777   0.52691   0.00000  Uiso   1.00
C888   C     0.44122   0.26878   0.60101   0.00000  Uiso   1.00
H889   H     0.46098   0.24957   0.62278   0.00000  Uiso   1.00
H890   H     0.45765   0.29985   0.59514   0.00000  Uiso   1.00
H891   H     0.40208   0.27166   0.62387   0.00000  Uiso   1.00
C892   C     0.83300   0.24586   0.74999   0.00000  Uiso   1.00
C893   C     0.81431   0.16830   0.98810   0.00000  Uiso   1.00
C894   C     0.82600   0.15599   0.93562   0.00000  Uiso   1.00
C895   C     0.84982   0.16113   0.51503   0.00000  Uiso   1.00
C896   C     0.89845   0.14884   0.98786   0.00000  Uiso   1.00
C897   C     0.90864   0.13495   0.93681   0.00000  Uiso   1.00
C898   C     0.87146   0.13605   0.91280   0.00000  Uiso   1.00
C899   C     0.83793   0.16403   0.56875   0.00000  Uiso   1.00
C900   C     0.92319   0.15765   0.56579   0.00000  Uiso   1.00
C901   C     0.79239   0.16487   0.90691   0.00000  Uiso   1.00
C902   C     0.86387   0.31094   0.77099   0.00000  Uiso   1.00
C903   C     0.80744   0.16457   0.84994   0.00000  Uiso   1.00
C904   C     0.86770   0.02013   0.76715   0.00000  Uiso   1.00
C905   C     0.83627   0.04241   0.74446   0.00000  Uiso   1.00
C906   C     0.80640   0.02112   0.71950   0.00000  Uiso   1.00
C907   C     0.80397   0.31167   0.72351   0.00000  Uiso   1.00
C908   C     0.83269   0.29024   0.74905   0.00000  Uiso   1.00
C909   C     0.96519   0.19188   0.78346   0.00000  Uiso   1.00
C910   C     0.68246   0.19169   0.78267   0.00000  Uiso   1.00
C911   C     0.70100   0.14248   0.71649   0.00000  Uiso   1.00
C912   C     0.98481   0.14251   0.71644   0.00000  Uiso   1.00
C913   C     0.83431   0.08731   0.74783   0.00000  Uiso   1.00
C914   C     0.85933   0.16609   0.65026   0.00000  Uiso   1.00
C915   C     0.93522   0.14955   0.51325   0.00000  Uiso   1.00
C916   C     0.87412   0.16320   0.59406   0.00000  Uiso   1.00
C917   C     0.74545   0.18011   0.93238   0.00000  Uiso   1.00
C918   C     0.73386   0.19218   0.98349   0.00000  Uiso   1.00
C919   C     0.76870   0.18945   0.51036   0.00000  Uiso   1.00
Cu920  Cu    0.78645   0.16666   0.75000   0.00000  Uiso   1.00
Cu921  Cu    0.88022   0.16667   0.75000   0.00000  Uiso   1.00
H922   H     0.95192   0.15735   0.58461   0.00000  Uiso   1.00
H923   H     0.78141   0.29480   0.70478   0.00000  Uiso   1.00
H924   H     0.69564   0.21143   0.80753   0.00000  Uiso   1.00
H925   H     0.72729   0.12304   0.68960   0.00000  Uiso   1.00
H926   H     0.97376   0.12296   0.68970   0.00000  Uiso   1.00
H927   H     0.97334   0.14351   0.99314   0.00000  Uiso   1.00
H928   H     0.80016   0.16460   0.59180   0.00000  Uiso   1.00
H929   H     0.71873   0.18598   0.91169   0.00000  Uiso   1.00
H930   H     0.69868   0.20682   0.50130   0.00000  Uiso   1.00
H931   H     0.87870   0.12053   0.87611   0.00000  Uiso   1.00
H932   H     0.88558   0.29392   0.79113   0.00000  Uiso   1.00
N933   N     0.71598   0.16666   0.74999   0.00000  Uiso   1.00
N934   N     0.95069   0.16669   0.74999   0.00000  Uiso   1.00
O935   O     0.79375   0.22678   0.75000   0.00000  Uiso   1.00
O936   O     0.87294   0.22679   0.75000   0.00000  Uiso   1.00
O937   O     0.77441   0.16665   0.82549   0.00000  Uiso   1.00
O938   O     0.85360   0.16666   0.82549   0.00000  Uiso   1.00
O939   O     0.79373   0.10654   0.74999   0.00000  Uiso   1.00
O940   O     0.87292   0.10655   0.74999   0.00000  Uiso   1.00
O941   O     0.81306   0.16667   0.67451   0.00000  Uiso   1.00
O942   O     0.89225   0.16668   0.67451   0.00000  Uiso   1.00
O943   O     0.89964   0.03996   0.78887   0.00000  Uiso   1.00
C944   C     0.94851   0.02956   0.76072   0.00000  Uiso   1.00
H945   H     0.95766   0.04309   0.72123   0.00000  Uiso   1.00
H946   H     0.95518   0.32908   0.75739   0.00000  Uiso   1.00
C947   C     0.98336   0.04644   0.78834   0.00000  Uiso   1.00
H948   H     0.97204   0.03664   0.82944   0.00000  Uiso   1.00
H949   H     0.68783   0.03495   0.76977   0.00000  Uiso   1.00
H950   H     0.98315   0.08034   0.78596   0.00000  Uiso   1.00
C951   C     0.78132   0.04229   0.68525   0.00000  Uiso   1.00
H952   H     0.79300   0.07245   0.66955   0.00000  Uiso   1.00
O953   O     0.74816   0.02581   0.67294   0.00000  Uiso   1.00
O954   O     0.92975   0.21804   0.81487   0.00000  Uiso   1.00
C955   C     0.94223   0.23339   0.85810   0.00000  Uiso   1.00
H956   H     0.97078   0.25736   0.84578   0.00000  Uiso   1.00
H957   H     0.95498   0.20821   0.87928   0.00000  Uiso   1.00
C958   C     0.89734   0.25360   0.89523   0.00000  Uiso   1.00
H959   H     0.86624   0.23202   0.90517   0.00000  Uiso   1.00
H960   H     0.90578   0.26253   0.93123   0.00000  Uiso   1.00
H961   H     0.88645   0.28161   0.87749   0.00000  Uiso   1.00
C962   C     0.95703   0.11703   0.90870   0.00000  Uiso   1.00
H963   H     0.97841   0.09955   0.92891   0.00000  Uiso   1.00
O964   O     0.97393   0.12227   0.86237   0.00000  Uiso   1.00
O965   O     0.75793   0.20963   0.55717   0.00000  Uiso   1.00
C966   C     0.77884   0.24914   0.54901   0.00000  Uiso   1.00
H967   H     0.75898   0.26895   0.52781   0.00000  Uiso   1.00
H968   H     0.81850   0.24777   0.52691   0.00000  Uiso   1.00
C969   C     0.77455   0.26878   0.60101   0.00000  Uiso   1.00
H970   H     0.79431   0.24957   0.62278   0.00000  Uiso   1.00
H971   H     0.79098   0.29985   0.59514   0.00000  Uiso   1.00
H972   H     0.73541   0.27166   0.62387   0.00000  Uiso   1.00
C973   C     0.16633   0.57919   0.74999   0.00000  Uiso   1.00
C974   C     0.14764   0.50164   0.98810   0.00000  Uiso   1.00
C975   C     0.15933   0.48932   0.93562   0.00000  Uiso   1.00
C976   C     0.18316   0.49446   0.51503   0.00000  Uiso   1.00
C977   C     0.23179   0.48218   0.98786   0.00000  Uiso   1.00
C978   C     0.24198   0.46828   0.93681   0.00000  Uiso   1.00
C979   C     0.20480   0.46938   0.91280   0.00000  Uiso   1.00
C980   C     0.17126   0.49736   0.56875   0.00000  Uiso   1.00
C981   C     0.25652   0.49099   0.56579   0.00000  Uiso   1.00
C982   C     0.12572   0.49820   0.90691   0.00000  Uiso   1.00
C983   C     0.19721   0.64428   0.77099   0.00000  Uiso   1.00
C984   C     0.14078   0.49790   0.84994   0.00000  Uiso   1.00
C985   C     0.20103   0.35347   0.76715   0.00000  Uiso   1.00
C986   C     0.16960   0.37575   0.74446   0.00000  Uiso   1.00
C987   C     0.13973   0.35445   0.71950   0.00000  Uiso   1.00
C988   C     0.13730   0.64500   0.72351   0.00000  Uiso   1.00
C989   C     0.16602   0.62357   0.74905   0.00000  Uiso   1.00
C990   C     0.29852   0.52521   0.78346   0.00000  Uiso   1.00
C991   C     0.01579   0.52502   0.78267   0.00000  Uiso   1.00
C992   C     0.03433   0.47581   0.71649   0.00000  Uiso   1.00
C993   C     0.31814   0.47584   0.71644   0.00000  Uiso   1.00
C994   C     0.16765   0.42064   0.74783   0.00000  Uiso   1.00
C995   C     0.19266   0.49943   0.65026   0.00000  Uiso   1.00
C996   C     0.26856   0.48289   0.51325   0.00000  Uiso   1.00
C997   C     0.20745   0.49653   0.59406   0.00000  Uiso   1.00
C998   C     0.07878   0.51345   0.93238   0.00000  Uiso   1.00
C999   C     0.06719   0.52552   0.98349   0.00000  Uiso   1.00
C1000  C     0.10203   0.52278   0.51036   0.00000  Uiso   1.00
Cu1001 Cu    0.11978   0.49999   0.75000   0.00000  Uiso   1.00
Cu1002 Cu    0.21355   0.50001   0.75000   0.00000  Uiso   1.00
H1003  H     0.28525   0.49068   0.58461   0.00000  Uiso   1.00
H1004  H     0.11474   0.62813   0.70478   0.00000  Uiso   1.00
H1005  H     0.02897   0.54476   0.80753   0.00000  Uiso   1.00
H1006  H     0.06063   0.45637   0.68960   0.00000  Uiso   1.00
H1007  H     0.30709   0.45630   0.68970   0.00000  Uiso   1.00
H1008  H     0.30667   0.47684   0.99314   0.00000  Uiso   1.00
H1009  H     0.13349   0.49793   0.59180   0.00000  Uiso   1.00
H1010  H     0.05206   0.51932   0.91169   0.00000  Uiso   1.00
H1011  H     0.03202   0.54016   0.50130   0.00000  Uiso   1.00
H1012  H     0.21203   0.45387   0.87611   0.00000  Uiso   1.00
H1013  H     0.21892   0.62725   0.79113   0.00000  Uiso   1.00
N1014  N     0.04931   0.49999   0.74999   0.00000  Uiso   1.00
N1015  N     0.28402   0.50002   0.74999   0.00000  Uiso   1.00
O1016  O     0.12708   0.56011   0.75000   0.00000  Uiso   1.00
O1017  O     0.20627   0.56012   0.75000   0.00000  Uiso   1.00
O1018  O     0.10775   0.49998   0.82549   0.00000  Uiso   1.00
O1019  O     0.18694   0.49999   0.82549   0.00000  Uiso   1.00
O1020  O     0.12706   0.43988   0.74999   0.00000  Uiso   1.00
O1021  O     0.20625   0.43989   0.74999   0.00000  Uiso   1.00
O1022  O     0.14640   0.50001   0.67451   0.00000  Uiso   1.00
O1023  O     0.22559   0.50002   0.67451   0.00000  Uiso   1.00
O1024  O     0.23297   0.37329   0.78887   0.00000  Uiso   1.00
C1025  C     0.28184   0.36290   0.76072   0.00000  Uiso   1.00
H1026  H     0.29099   0.37643   0.72123   0.00000  Uiso   1.00
H1027  H     0.28852   0.66241   0.75739   0.00000  Uiso   1.00
C1028  C     0.31670   0.37977   0.78834   0.00000  Uiso   1.00
H1029  H     0.30537   0.36997   0.82944   0.00000  Uiso   1.00
H1030  H     0.02116   0.36828   0.76977   0.00000  Uiso   1.00
H1031  H     0.31648   0.41368   0.78596   0.00000  Uiso   1.00
C1032  C     0.11466   0.37563   0.68525   0.00000  Uiso   1.00
H1033  H     0.12633   0.40578   0.66955   0.00000  Uiso   1.00
O1034  O     0.08149   0.35914   0.67294   0.00000  Uiso   1.00
O1035  O     0.26308   0.55138   0.81487   0.00000  Uiso   1.00
C1036  C     0.27557   0.56673   0.85810   0.00000  Uiso   1.00
H1037  H     0.30411   0.59069   0.84578   0.00000  Uiso   1.00
H1038  H     0.28831   0.54154   0.87928   0.00000  Uiso   1.00
C1039  C     0.23067   0.58693   0.89523   0.00000  Uiso   1.00
H1040  H     0.19957   0.56536   0.90517   0.00000  Uiso   1.00
H1041  H     0.23911   0.59586   0.93123   0.00000  Uiso   1.00
H1042  H     0.21978   0.61495   0.87749   0.00000  Uiso   1.00
C1043  C     0.29036   0.45037   0.90870   0.00000  Uiso   1.00
H1044  H     0.31174   0.43288   0.92891   0.00000  Uiso   1.00
O1045  O     0.30726   0.45560   0.86237   0.00000  Uiso   1.00
O1046  O     0.09126   0.54296   0.55717   0.00000  Uiso   1.00
C1047  C     0.11217   0.58248   0.54901   0.00000  Uiso   1.00
H1048  H     0.09231   0.60228   0.52781   0.00000  Uiso   1.00
H1049  H     0.15183   0.58110   0.52691   0.00000  Uiso   1.00
C1050  C     0.10788   0.60211   0.60101   0.00000  Uiso   1.00
H1051  H     0.12764   0.58290   0.62278   0.00000  Uiso   1.00
H1052  H     0.12431   0.63318   0.59514   0.00000  Uiso   1.00
H1053  H     0.06874   0.60499   0.62387   0.00000  Uiso   1.00
C1054  C     0.49966   0.57919   0.74999   0.00000  Uiso   1.00
C1055  C     0.48098   0.50164   0.98810   0.00000  Uiso   1.00
C1056  C     0.49267   0.48932   0.93562   0.00000  Uiso   1.00
C1057  C     0.51649   0.49446   0.51503   0.00000  Uiso   1.00
C1058  C     0.56512   0.48218   0.98786   0.00000  Uiso   1.00
C1059  C     0.57531   0.46828   0.93681   0.00000  Uiso   1.00
C1060  C     0.53813   0.46938   0.91280   0.00000  Uiso   1.00
C1061  C     0.50459   0.49736   0.56875   0.00000  Uiso   1.00
C1062  C     0.58985   0.49099   0.56579   0.00000  Uiso   1.00
C1063  C     0.45906   0.49820   0.90691   0.00000  Uiso   1.00
C1064  C     0.53054   0.64428   0.77099   0.00000  Uiso   1.00
C1065  C     0.47411   0.49790   0.84994   0.00000  Uiso   1.00
C1066  C     0.53437   0.35347   0.76715   0.00000  Uiso   1.00
C1067  C     0.50293   0.37575   0.74446   0.00000  Uiso   1.00
C1068  C     0.47306   0.35445   0.71950   0.00000  Uiso   1.00
C1069  C     0.47063   0.64500   0.72351   0.00000  Uiso   1.00
C1070  C     0.49936   0.62357   0.74905   0.00000  Uiso   1.00
C1071  C     0.63186   0.52521   0.78346   0.00000  Uiso   1.00
C1072  C     0.34912   0.52502   0.78267   0.00000  Uiso   1.00
C1073  C     0.36767   0.47581   0.71649   0.00000  Uiso   1.00
C1074  C     0.65147   0.47584   0.71644   0.00000  Uiso   1.00
C1075  C     0.50098   0.42064   0.74783   0.00000  Uiso   1.00
C1076  C     0.52600   0.49943   0.65026   0.00000  Uiso   1.00
C1077  C     0.60189   0.48289   0.51325   0.00000  Uiso   1.00
C1078  C     0.54079   0.49653   0.59406   0.00000  Uiso   1.00
C1079  C     0.41212   0.51345   0.93238   0.00000  Uiso   1.00
C1080  C     0.40053   0.52552   0.98349   0.00000  Uiso   1.00
C1081  C     0.43536   0.52278   0.51036   0.00000  Uiso   1.00
Cu1082 Cu    0.45311   0.49999   0.75000   0.00000  Uiso   1.00
Cu1083 Cu    0.54689   0.50001   0.75000   0.00000  Uiso   1.00
H1084  H     0.61858   0.49068   0.58461   0.00000  Uiso   1.00
H1085  H     0.44808   0.62813   0.70478   0.00000  Uiso   1.00
H1086  H     0.36231   0.54476   0.80753   0.00000  Uiso   1.00
H1087  H     0.39396   0.45637   0.68960   0.00000  Uiso   1.00
H1088  H     0.64042   0.45630   0.68970   0.00000  Uiso   1.00
H1089  H     0.64001   0.47684   0.99314   0.00000  Uiso   1.00
H1090  H     0.46682   0.49793   0.59180   0.00000  Uiso   1.00
H1091  H     0.38539   0.51932   0.91169   0.00000  Uiso   1.00
H1092  H     0.36535   0.54016   0.50130   0.00000  Uiso   1.00
H1093  H     0.54536   0.45387   0.87611   0.00000  Uiso   1.00
H1094  H     0.55225   0.62725   0.79113   0.00000  Uiso   1.00
N1095  N     0.38265   0.49999   0.74999   0.00000  Uiso   1.00
N1096  N     0.61735   0.50002   0.74999   0.00000  Uiso   1.00
O1097  O     0.46042   0.56011   0.75000   0.00000  Uiso   1.00
O1098  O     0.53961   0.56012   0.75000   0.00000  Uiso   1.00
O1099  O     0.44108   0.49998   0.82549   0.00000  Uiso   1.00
O1100  O     0.52027   0.49999   0.82549   0.00000  Uiso   1.00
O1101  O     0.46039   0.43988   0.74999   0.00000  Uiso   1.00
O1102  O     0.53958   0.43989   0.74999   0.00000  Uiso   1.00
O1103  O     0.47973   0.50001   0.67451   0.00000  Uiso   1.00
O1104  O     0.55892   0.50002   0.67451   0.00000  Uiso   1.00
O1105  O     0.56630   0.37329   0.78887   0.00000  Uiso   1.00
C1106  C     0.61518   0.36290   0.76072   0.00000  Uiso   1.00
H1107  H     0.62433   0.37643   0.72123   0.00000  Uiso   1.00
H1108  H     0.62185   0.66241   0.75739   0.00000  Uiso   1.00
C1109  C     0.65003   0.37977   0.78834   0.00000  Uiso   1.00
H1110  H     0.63871   0.36997   0.82944   0.00000  Uiso   1.00
H1111  H     0.35449   0.36828   0.76977   0.00000  Uiso   1.00
H1112  H     0.64982   0.41368   0.78596   0.00000  Uiso   1.00
C1113  C     0.44799   0.37563   0.68525   0.00000  Uiso   1.00
H1114  H     0.45966   0.40578   0.66955   0.00000  Uiso   1.00
O1115  O     0.41483   0.35914   0.67294   0.00000  Uiso   1.00
O1116  O     0.59641   0.55138   0.81487   0.00000  Uiso   1.00
C1117  C     0.60890   0.56673   0.85810   0.00000  Uiso   1.00
H1118  H     0.63745   0.59069   0.84578   0.00000  Uiso   1.00
H1119  H     0.62165   0.54154   0.87928   0.00000  Uiso   1.00
C1120  C     0.56400   0.58693   0.89523   0.00000  Uiso   1.00
H1121  H     0.53291   0.56536   0.90517   0.00000  Uiso   1.00
H1122  H     0.57245   0.59586   0.93123   0.00000  Uiso   1.00
H1123  H     0.55312   0.61495   0.87749   0.00000  Uiso   1.00
C1124  C     0.62370   0.45037   0.90870   0.00000  Uiso   1.00
H1125  H     0.64508   0.43288   0.92891   0.00000  Uiso   1.00
O1126  O     0.64060   0.45560   0.86237   0.00000  Uiso   1.00
O1127  O     0.42459   0.54296   0.55717   0.00000  Uiso   1.00
C1128  C     0.44550   0.58248   0.54901   0.00000  Uiso   1.00
H1129  H     0.42565   0.60228   0.52781   0.00000  Uiso   1.00
H1130  H     0.48517   0.58110   0.52691   0.00000  Uiso   1.00
C1131  C     0.44122   0.60211   0.60101   0.00000  Uiso   1.00
H1132  H     0.46098   0.58290   0.62278   0.00000  Uiso   1.00
H1133  H     0.45765   0.63318   0.59514   0.00000  Uiso   1.00
H1134  H     0.40208   0.60499   0.62387   0.00000  Uiso   1.00
C1135  C     0.83300   0.57919   0.74999   0.00000  Uiso   1.00
C1136  C     0.81431   0.50164   0.98810   0.00000  Uiso   1.00
C1137  C     0.82600   0.48932   0.93562   0.00000  Uiso   1.00
C1138  C     0.84982   0.49446   0.51503   0.00000  Uiso   1.00
C1139  C     0.89845   0.48218   0.98786   0.00000  Uiso   1.00
C1140  C     0.90864   0.46828   0.93681   0.00000  Uiso   1.00
C1141  C     0.87146   0.46938   0.91280   0.00000  Uiso   1.00
C1142  C     0.83793   0.49736   0.56875   0.00000  Uiso   1.00
C1143  C     0.92319   0.49099   0.56579   0.00000  Uiso   1.00
C1144  C     0.79239   0.49820   0.90691   0.00000  Uiso   1.00
C1145  C     0.86387   0.64428   0.77099   0.00000  Uiso   1.00
C1146  C     0.80744   0.49790   0.84994   0.00000  Uiso   1.00
C1147  C     0.86770   0.35347   0.76715   0.00000  Uiso   1.00
C1148  C     0.83627   0.37575   0.74446   0.00000  Uiso   1.00
C1149  C     0.80640   0.35445   0.71950   0.00000  Uiso   1.00
C1150  C     0.80397   0.64500   0.72351   0.00000  Uiso   1.00
C1151  C     0.83269   0.62357   0.74905   0.00000  Uiso   1.00
C1152  C     0.96519   0.52521   0.78346   0.00000  Uiso   1.00
C1153  C     0.68246   0.52502   0.78267   0.00000  Uiso   1.00
C1154  C     0.70100   0.47581   0.71649   0.00000  Uiso   1.00
C1155  C     0.98481   0.47584   0.71644   0.00000  Uiso   1.00
C1156  C     0.83431   0.42064   0.74783   0.00000  Uiso   1.00
C1157  C     0.85933   0.49943   0.65026   0.00000  Uiso   1.00
C1158  C     0.93522   0.48289   0.51325   0.00000  Uiso   1.00
C1159  C     0.87412   0.49653   0.59406   0.00000  Uiso   1.00
C1160  C     0.74545   0.51345   0.93238   0.00000  Uiso   1.00
C1161  C     0.73386   0.52552   0.98349   0.00000  Uiso   1.00
C1162  C     0.76870   0.52278   0.51036   0.00000  Uiso   1.00
Cu1163 Cu    0.78645   0.49999   0.75000   0.00000  Uiso   1.00
Cu1164 Cu    0.88022   0.50001   0.75000   0.00000  Uiso   1.00
H1165  H     0.95192   0.49068   0.58461   0.00000  Uiso   1.00
H1166  H     0.78141   0.62813   0.70478   0.00000  Uiso   1.00
H1167  H     0.69564   0.54476   0.80753   0.00000  Uiso   1.00
H1168  H     0.72729   0.45637   0.68960   0.00000  Uiso   1.00
H1169  H     0.97376   0.45630   0.68970   0.00000  Uiso   1.00
H1170  H     0.97334   0.47684   0.99314   0.00000  Uiso   1.00
H1171  H     0.80016   0.49793   0.59180   0.00000  Uiso   1.00
H1172  H     0.71873   0.51932   0.91169   0.00000  Uiso   1.00
H1173  H     0.69868   0.54016   0.50130   0.00000  Uiso   1.00
H1174  H     0.87870   0.45387   0.87611   0.00000  Uiso   1.00
H1175  H     0.88558   0.62725   0.79113   0.00000  Uiso   1.00
N1176  N     0.71598   0.49999   0.74999   0.00000  Uiso   1.00
N1177  N     0.95069   0.50002   0.74999   0.00000  Uiso   1.00
O1178  O     0.79375   0.56011   0.75000   0.00000  Uiso   1.00
O1179  O     0.87294   0.56012   0.75000   0.00000  Uiso   1.00
O1180  O     0.77441   0.49998   0.82549   0.00000  Uiso   1.00
O1181  O     0.85360   0.49999   0.82549   0.00000  Uiso   1.00
O1182  O     0.79373   0.43988   0.74999   0.00000  Uiso   1.00
O1183  O     0.87292   0.43989   0.74999   0.00000  Uiso   1.00
O1184  O     0.81306   0.50001   0.67451   0.00000  Uiso   1.00
O1185  O     0.89225   0.50002   0.67451   0.00000  Uiso   1.00
O1186  O     0.89964   0.37329   0.78887   0.00000  Uiso   1.00
C1187  C     0.94851   0.36290   0.76072   0.00000  Uiso   1.00
H1188  H     0.95766   0.37643   0.72123   0.00000  Uiso   1.00
H1189  H     0.95518   0.66241   0.75739   0.00000  Uiso   1.00
C1190  C     0.98336   0.37977   0.78834   0.00000  Uiso   1.00
H1191  H     0.97204   0.36997   0.82944   0.00000  Uiso   1.00
H1192  H     0.68783   0.36828   0.76977   0.00000  Uiso   1.00
H1193  H     0.98315   0.41368   0.78596   0.00000  Uiso   1.00
C1194  C     0.78132   0.37563   0.68525   0.00000  Uiso   1.00
H1195  H     0.79300   0.40578   0.66955   0.00000  Uiso   1.00
O1196  O     0.74816   0.35914   0.67294   0.00000  Uiso   1.00
O1197  O     0.92975   0.55138   0.81487   0.00000  Uiso   1.00
C1198  C     0.94223   0.56673   0.85810   0.00000  Uiso   1.00
H1199  H     0.97078   0.59069   0.84578   0.00000  Uiso   1.00
H1200  H     0.95498   0.54154   0.87928   0.00000  Uiso   1.00
C1201  C     0.89734   0.58693   0.89523   0.00000  Uiso   1.00
H1202  H     0.86624   0.56536   0.90517   0.00000  Uiso   1.00
H1203  H     0.90578   0.59586   0.93123   0.00000  Uiso   1.00
H1204  H     0.88645   0.61495   0.87749   0.00000  Uiso   1.00
C1205  C     0.95703   0.45037   0.90870   0.00000  Uiso   1.00
H1206  H     0.97841   0.43288   0.92891   0.00000  Uiso   1.00
O1207  O     0.97393   0.45560   0.86237   0.00000  Uiso   1.00
O1208  O     0.75793   0.54296   0.55717   0.00000  Uiso   1.00
C1209  C     0.77884   0.58248   0.54901   0.00000  Uiso   1.00
H1210  H     0.75898   0.60228   0.52781   0.00000  Uiso   1.00
H1211  H     0.81850   0.58110   0.52691   0.00000  Uiso   1.00
C1212  C     0.77455   0.60211   0.60101   0.00000  Uiso   1.00
H1213  H     0.79431   0.58290   0.62278   0.00000  Uiso   1.00
H1214  H     0.79098   0.63318   0.59514   0.00000  Uiso   1.00
H1215  H     0.73541   0.60499   0.62387   0.00000  Uiso   1.00
C1216  C     0.16633   0.91253   0.74999   0.00000  Uiso   1.00
C1217  C     0.14764   0.83497   0.98810   0.00000  Uiso   1.00
C1218  C     0.15933   0.82266   0.93562   0.00000  Uiso   1.00
C1219  C     0.18316   0.82780   0.51503   0.00000  Uiso   1.00
C1220  C     0.23179   0.81551   0.98786   0.00000  Uiso   1.00
C1221  C     0.24198   0.80162   0.93681   0.00000  Uiso   1.00
C1222  C     0.20480   0.80271   0.91280   0.00000  Uiso   1.00
C1223  C     0.17126   0.83070   0.56875   0.00000  Uiso   1.00
C1224  C     0.25652   0.82432   0.56579   0.00000  Uiso   1.00
C1225  C     0.12572   0.83154   0.90691   0.00000  Uiso   1.00
C1226  C     0.19721   0.97761   0.77099   0.00000  Uiso   1.00
C1227  C     0.14078   0.83123   0.84994   0.00000  Uiso   1.00
C1228  C     0.20103   0.68680   0.76715   0.00000  Uiso   1.00
C1229  C     0.16960   0.70908   0.74446   0.00000  Uiso   1.00
C1230  C     0.13973   0.68778   0.71950   0.00000  Uiso   1.00
C1231  C     0.13730   0.97834   0.72351   0.00000  Uiso   1.00
C1232  C     0.16602   0.95690   0.74905   0.00000  Uiso   1.00
C1233  C     0.29852   0.85854   0.78346   0.00000  Uiso   1.00
C1234  C     0.01579   0.85835   0.78267   0.00000  Uiso   1.00
C1235  C     0.03433   0.80914   0.71649   0.00000  Uiso   1.00
C1236  C     0.31814   0.80918   0.71644   0.00000  Uiso   1.00
C1237  C     0.16765   0.75397   0.74783   0.00000  Uiso   1.00
C1238  C     0.19266   0.83276   0.65026   0.00000  Uiso   1.00
C1239  C     0.26856   0.81622   0.51325   0.00000  Uiso   1.00
C1240  C     0.20745   0.82986   0.59406   0.00000  Uiso   1.00
C1241  C     0.07878   0.84678   0.93238   0.00000  Uiso   1.00
C1242  C     0.06719   0.85885   0.98349   0.00000  Uiso   1.00
C1243  C     0.10203   0.85612   0.51036   0.00000  Uiso   1.00
Cu1244 Cu    0.11978   0.83333   0.75000   0.00000  Uiso   1.00
Cu1245 Cu    0.21355   0.83334   0.75000   0.00000  Uiso   1.00
H1246  H     0.28525   0.82402   0.58461   0.00000  Uiso   1.00
H1247  H     0.11474   0.96147   0.70478   0.00000  Uiso   1.00
H1248  H     0.02897   0.87809   0.80753   0.00000  Uiso   1.00
H1249  H     0.06063   0.78970   0.68960   0.00000  Uiso   1.00
H1250  H     0.30709   0.78963   0.68970   0.00000  Uiso   1.00
H1251  H     0.30667   0.81017   0.99314   0.00000  Uiso   1.00
H1252  H     0.13349   0.83126   0.59180   0.00000  Uiso   1.00
H1253  H     0.05206   0.85265   0.91169   0.00000  Uiso   1.00
H1254  H     0.03202   0.87349   0.50130   0.00000  Uiso   1.00
H1255  H     0.21203   0.78720   0.87611   0.00000  Uiso   1.00
H1256  H     0.21892   0.96059   0.79113   0.00000  Uiso   1.00
N1257  N     0.04931   0.83332   0.74999   0.00000  Uiso   1.00
N1258  N     0.28402   0.83335   0.74999   0.00000  Uiso   1.00
O1259  O     0.12708   0.89345   0.75000   0.00000  Uiso   1.00
O1260  O     0.20627   0.89346   0.75000   0.00000  Uiso   1.00
O1261  O     0.10775   0.83332   0.82549   0.00000  Uiso   1.00
O1262  O     0.18694   0.83333   0.82549   0.00000  Uiso   1.00
O1263  O     0.12706   0.77321   0.74999   0.00000  Uiso   1.00
O1264  O     0.20625   0.77322   0.74999   0.00000  Uiso   1.00
O1265  O     0.14640   0.83334   0.67451   0.00000  Uiso   1.00
O1266  O     0.22559   0.83335   0.67451   0.00000  Uiso   1.00
O1267  O     0.23297   0.70663   0.78887   0.00000  Uiso   1.00
C1268  C     0.28184   0.69623   0.76072   0.00000  Uiso   1.00
H1269  H     0.29099   0.70976   0.72123   0.00000  Uiso   1.00
H1270  H     0.28852   0.99575   0.75739   0.00000  Uiso   1.00
C1271  C     0.31670   0.71311   0.78834   0.00000  Uiso   1.00
H1272  H     0.30537   0.70330   0.82944   0.00000  Uiso   1.00
H1273  H     0.02116   0.70162   0.76977   0.00000  Uiso   1.00
H1274  H     0.31648   0.74701   0.78596   0.00000  Uiso   1.00
C1275  C     0.11466   0.70896   0.68525   0.00000  Uiso   1.00
H1276  H     0.12633   0.73912   0.66955   0.00000  Uiso   1.00
O1277  O     0.08149   0.69247   0.67294   0.00000  Uiso   1.00
O1278  O     0.26308   0.88471   0.81487   0.00000  Uiso   1.00
C1279  C     0.27557   0.90006   0.85810   0.00000  Uiso   1.00
H1280  H     0.30411   0.92402   0.84578   0.00000  Uiso   1.00
H1281  H     0.28831   0.87487   0.87928   0.00000  Uiso   1.00
C1282  C     0.23067   0.92027   0.89523   0.00000  Uiso   1.00
H1283  H     0.19957   0.89869   0.90517   0.00000  Uiso   1.00
H1284  H     0.23911   0.92920   0.93123   0.00000  Uiso   1.00
H1285  H     0.21978   0.94828   0.87749   0.00000  Uiso   1.00
C1286  C     0.29036   0.78370   0.90870   0.00000  Uiso   1.00
H1287  H     0.31174   0.76621   0.92891   0.00000  Uiso   1.00
O1288  O     0.30726   0.78894   0.86237   0.00000  Uiso   1.00
O1289  O     0.09126   0.87630   0.55717   0.00000  Uiso   1.00
C1290  C     0.11217   0.91581   0.54901   0.00000  Uiso   1.00
H1291  H     0.09231   0.93562   0.52781   0.00000  Uiso   1.00
H1292  H     0.15183   0.91443   0.52691   0.00000  Uiso   1.00
C1293  C     0.10788   0.93544   0.60101   0.00000  Uiso   1.00
H1294  H     0.12764   0.91623   0.62278   0.00000  Uiso   1.00
H1295  H     0.12431   0.96652   0.59514   0.00000  Uiso   1.00
H1296  H     0.06874   0.93833   0.62387   0.00000  Uiso   1.00
C1297  C     0.49966   0.91253   0.74999   0.00000  Uiso   1.00
C1298  C     0.48098   0.83497   0.98810   0.00000  Uiso   1.00
C1299  C     0.49267   0.82266   0.93562   0.00000  Uiso   1.00
C1300  C     0.51649   0.82780   0.51503   0.00000  Uiso   1.00
C1301  C     0.56512   0.81551   0.98786   0.00000  Uiso   1.00
C1302  C     0.57531   0.80162   0.93681   0.00000  Uiso   1.00
C1303  C     0.53813   0.80271   0.91280   0.00000  Uiso   1.00
C1304  C     0.50459   0.83070   0.56875   0.00000  Uiso   1.00
C1305  C     0.58985   0.82432   0.56579   0.00000  Uiso   1.00
C1306  C     0.45906   0.83154   0.90691   0.00000  Uiso   1.00
C1307  C     0.53054   0.97761   0.77099   0.00000  Uiso   1.00
C1308  C     0.47411   0.83123   0.84994   0.00000  Uiso   1.00
C1309  C     0.53437   0.68680   0.76715   0.00000  Uiso   1.00
C1310  C     0.50293   0.70908   0.74446   0.00000  Uiso   1.00
C1311  C     0.47306   0.68778   0.71950   0.00000  Uiso   1.00
C1312  C     0.47063   0.97834   0.72351   0.00000  Uiso   1.00
C1313  C     0.49936   0.95690   0.74905   0.00000  Uiso   1.00
C1314  C     0.63186   0.85854   0.78346   0.00000  Uiso   1.00
C1315  C     0.34912   0.85835   0.78267   0.00000  Uiso   1.00
C1316  C     0.36767   0.80914   0.71649   0.00000  Uiso   1.00
C1317  C     0.65147   0.80918   0.71644   0.00000  Uiso   1.00
C1318  C     0.50098   0.75397   0.74783   0.00000  Uiso   1.00
C1319  C     0.52600   0.83276   0.65026   0.00000  Uiso   1.00
C1320  C     0.60189   0.81622   0.51325   0.00000  Uiso   1.00
C1321  C     0.54079   0.82986   0.59406   0.00000  Uiso   1.00
C1322  C     0.41212   0.84678   0.93238   0.00000  Uiso   1.00
C1323  C     0.40053   0.85885   0.98349   0.00000  Uiso   1.00
C1324  C     0.43536   0.85612   0.51036   0.00000  Uiso   1.00
Cu1325 Cu    0.45311   0.83333   0.75000   0.00000  Uiso   1.00
Cu1326 Cu    0.54689   0.83334   0.75000   0.00000  Uiso   1.00
H1327  H     0.61858   0.82402   0.58461   0.00000  Uiso   1.00
H1328  H     0.44808   0.96147   0.70478   0.00000  Uiso   1.00
H1329  H     0.36231   0.87809   0.80753   0.00000  Uiso   1.00
H1330  H     0.39396   0.78970   0.68960   0.00000  Uiso   1.00
H1331  H     0.64042   0.78963   0.68970   0.00000  Uiso   1.00
H1332  H     0.64001   0.81017   0.99314   0.00000  Uiso   1.00
H1333  H     0.46682   0.83126   0.59180   0.00000  Uiso   1.00
H1334  H     0.38539   0.85265   0.91169   0.00000  Uiso   1.00
H1335  H     0.36535   0.87349   0.50130   0.00000  Uiso   1.00
H1336  H     0.54536   0.78720   0.87611   0.00000  Uiso   1.00
H1337  H     0.55225   0.96059   0.79113   0.00000  Uiso   1.00
N1338  N     0.38265   0.83332   0.74999   0.00000  Uiso   1.00
N1339  N     0.61735   0.83335   0.74999   0.00000  Uiso   1.00
O1340  O     0.46042   0.89345   0.75000   0.00000  Uiso   1.00
O1341  O     0.53961   0.89346   0.75000   0.00000  Uiso   1.00
O1342  O     0.44108   0.83332   0.82549   0.00000  Uiso   1.00
O1343  O     0.52027   0.83333   0.82549   0.00000  Uiso   1.00
O1344  O     0.46039   0.77321   0.74999   0.00000  Uiso   1.00
O1345  O     0.53958   0.77322   0.74999   0.00000  Uiso   1.00
O1346  O     0.47973   0.83334   0.67451   0.00000  Uiso   1.00
O1347  O     0.55892   0.83335   0.67451   0.00000  Uiso   1.00
O1348  O     0.56630   0.70663   0.78887   0.00000  Uiso   1.00
C1349  C     0.61518   0.69623   0.76072   0.00000  Uiso   1.00
H1350  H     0.62433   0.70976   0.72123   0.00000  Uiso   1.00
H1351  H     0.62185   0.99575   0.75739   0.00000  Uiso   1.00
C1352  C     0.65003   0.71311   0.78834   0.00000  Uiso   1.00
H1353  H     0.63871   0.70330   0.82944   0.00000  Uiso   1.00
H1354  H     0.35449   0.70162   0.76977   0.00000  Uiso   1.00
H1355  H     0.64982   0.74701   0.78596   0.00000  Uiso   1.00
C1356  C     0.44799   0.70896   0.68525   0.00000  Uiso   1.00
H1357  H     0.45966   0.73912   0.66955   0.00000  Uiso   1.00
O1358  O     0.41483   0.69247   0.67294   0.00000  Uiso   1.00
O1359  O     0.59641   0.88471   0.81487   0.00000  Uiso   1.00
C1360  C     0.60890   0.90006   0.85810   0.00000  Uiso   1.00
H1361  H     0.63745   0.92402   0.84578   0.00000  Uiso   1.00
H1362  H     0.62165   0.87487   0.87928   0.00000  Uiso   1.00
C1363  C     0.56400   0.92027   0.89523   0.00000  Uiso   1.00
H1364  H     0.53291   0.89869   0.90517   0.00000  Uiso   1.00
H1365  H     0.57245   0.92920   0.93123   0.00000  Uiso   1.00
H1366  H     0.55312   0.94828   0.87749   0.00000  Uiso   1.00
C1367  C     0.62370   0.78370   0.90870   0.00000  Uiso   1.00
H1368  H     0.64508   0.76621   0.92891   0.00000  Uiso   1.00
O1369  O     0.64060   0.78894   0.86237   0.00000  Uiso   1.00
O1370  O     0.42459   0.87630   0.55717   0.00000  Uiso   1.00
C1371  C     0.44550   0.91581   0.54901   0.00000  Uiso   1.00
H1372  H     0.42565   0.93562   0.52781   0.00000  Uiso   1.00
H1373  H     0.48517   0.91443   0.52691   0.00000  Uiso   1.00
C1374  C     0.44122   0.93544   0.60101   0.00000  Uiso   1.00
H1375  H     0.46098   0.91623   0.62278   0.00000  Uiso   1.00
H1376  H     0.45765   0.96652   0.59514   0.00000  Uiso   1.00
H1377  H     0.40208   0.93833   0.62387   0.00000  Uiso   1.00
C1378  C     0.83300   0.91253   0.74999   0.00000  Uiso   1.00
C1379  C     0.81431   0.83497   0.98810   0.00000  Uiso   1.00
C1380  C     0.82600   0.82266   0.93562   0.00000  Uiso   1.00
C1381  C     0.84982   0.82780   0.51503   0.00000  Uiso   1.00
C1382  C     0.89845   0.81551   0.98786   0.00000  Uiso   1.00
C1383  C     0.90864   0.80162   0.93681   0.00000  Uiso   1.00
C1384  C     0.87146   0.80271   0.91280   0.00000  Uiso   1.00
C1385  C     0.83793   0.83070   0.56875   0.00000  Uiso   1.00
C1386  C     0.92319   0.82432   0.56579   0.00000  Uiso   1.00
C1387  C     0.79239   0.83154   0.90691   0.00000  Uiso   1.00
C1388  C     0.86387   0.97761   0.77099   0.00000  Uiso   1.00
C1389  C     0.80744   0.83123   0.84994   0.00000  Uiso   1.00
C1390  C     0.86770   0.68680   0.76715   0.00000  Uiso   1.00
C1391  C     0.83627   0.70908   0.74446   0.00000  Uiso   1.00
C1392  C     0.80640   0.68778   0.71950   0.00000  Uiso   1.00
C1393  C     0.80397   0.97834   0.72351   0.00000  Uiso   1.00
C1394  C     0.83269   0.95690   0.74905   0.00000  Uiso   1.00
C1395  C     0.96519   0.85854   0.78346   0.00000  Uiso   1.00
C1396  C     0.68246   0.85835   0.78267   0.00000  Uiso   1.00
C1397  C     0.70100   0.80914   0.71649   0.00000  Uiso   1.00
C1398  C     0.98481   0.80918   0.71644   0.00000  Uiso   1.00
C1399  C     0.83431   0.75397   0.74783   0.00000  Uiso   1.00
C1400  C     0.85933   0.83276   0.65026   0.00000  Uiso   1.00
C1401  C     0.93522   0.81622   0.51325   0.00000  Uiso   1.00
C1402  C     0.87412   0.82986   0.59406   0.00000  Uiso   1.00
C1403  C     0.74545   0.84678   0.93238   0.00000  Uiso   1.00
C1404  C     0.73386   0.85885   0.98349   0.00000  Uiso   1.00
C1405  C     0.76870   0.85612   0.51036   0.00000  Uiso   1.00
Cu1406 Cu    0.78645   0.83333   0.75000   0.00000  Uiso   1.00
Cu1407 Cu    0.88022   0.83334   0.75000   0.00000  Uiso   1.00
H1408  H     0.95192   0.82402   0.58461   0.00000  Uiso   1.00
H1409  H     0.78141   0.96147   0.70478   0.00000  Uiso   1.00
H1410  H     0.69564   0.87809   0.80753   0.00000  Uiso   1.00
H1411  H     0.72729   0.78970   0.68960   0.00000  Uiso   1.00
H1412  H     0.97376   0.78963   0.68970   0.00000  Uiso   1.00
H1413  H     0.97334   0.81017   0.99314   0.00000  Uiso   1.00
H1414  H     0.80016   0.83126   0.59180   0.00000  Uiso   1.00
H1415  H     0.71873   0.85265   0.91169   0.00000  Uiso   1.00
H1416  H     0.69868   0.87349   0.50130   0.00000  Uiso   1.00
H1417  H     0.87870   0.78720   0.87611   0.00000  Uiso   1.00
H1418  H     0.88558   0.96059   0.79113   0.00000  Uiso   1.00
N1419  N     0.71598   0.83332   0.74999   0.00000  Uiso   1.00
N1420  N     0.95069   0.83335   0.74999   0.00000  Uiso   1.00
O1421  O     0.79375   0.89345   0.75000   0.00000  Uiso   1.00
O1422  O     0.87294   0.89346   0.75000   0.00000  Uiso   1.00
O1423  O     0.77441   0.83332   0.82549   0.00000  Uiso   1.00
O1424  O     0.85360   0.83333   0.82549   0.00000  Uiso   1.00
O1425  O     0.79373   0.77321   0.74999   0.00000  Uiso   1.00
O1426  O     0.87292   0.77322   0.74999   0.00000  Uiso   1.00
O1427  O     0.81306   0.83334   0.67451   0.00000  Uiso   1.00
O1428  O     0.89225   0.83335   0.67451   0.00000  Uiso   1.00
O1429  O     0.89964   0.70663   0.78887   0.00000  Uiso   1.00
C1430  C     0.94851   0.69623   0.76072   0.00000  Uiso   1.00
H1431  H     0.95766   0.70976   0.72123   0.00000  Uiso   1.00
H1432  H     0.95518   0.99575   0.75739   0.00000  Uiso   1.00
C1433  C     0.98336   0.71311   0.78834   0.00000  Uiso   1.00
H1434  H     0.97204   0.70330   0.82944   0.00000  Uiso   1.00
H1435  H     0.68783   0.70162   0.76977   0.00000  Uiso   1.00
H1436  H     0.98315   0.74701   0.78596   0.00000  Uiso   1.00
C1437  C     0.78132   0.70896   0.68525   0.00000  Uiso   1.00
H1438  H     0.79300   0.73912   0.66955   0.00000  Uiso   1.00
O1439  O     0.74816   0.69247   0.67294   0.00000  Uiso   1.00
O1440  O     0.92975   0.88471   0.81487   0.00000  Uiso   1.00
C1441  C     0.94223   0.90006   0.85810   0.00000  Uiso   1.00
H1442  H     0.97078   0.92402   0.84578   0.00000  Uiso   1.00
H1443  H     0.95498   0.87487   0.87928   0.00000  Uiso   1.00
C1444  C     0.89734   0.92027   0.89523   0.00000  Uiso   1.00
H1445  H     0.86624   0.89869   0.90517   0.00000  Uiso   1.00
H1446  H     0.90578   0.92920   0.93123   0.00000  Uiso   1.00
H1447  H     0.88645   0.94828   0.87749   0.00000  Uiso   1.00
C1448  C     0.95703   0.78370   0.90870   0.00000  Uiso   1.00
H1449  H     0.97841   0.76621   0.92891   0.00000  Uiso   1.00
O1450  O     0.97393   0.78894   0.86237   0.00000  Uiso   1.00
O1451  O     0.75793   0.87630   0.55717   0.00000  Uiso   1.00
C1452  C     0.77884   0.91581   0.54901   0.00000  Uiso   1.00
H1453  H     0.75898   0.93562   0.52781   0.00000  Uiso   1.00
H1454  H     0.81850   0.91443   0.52691   0.00000  Uiso   1.00
C1455  C     0.77455   0.93544   0.60101   0.00000  Uiso   1.00
H1456  H     0.79431   0.91623   0.62278   0.00000  Uiso   1.00
H1457  H     0.79098   0.96652   0.59514   0.00000  Uiso   1.00
H1458  H     0.73541   0.93833   0.62387   0.00000  Uiso   1.00
loop_
_geom_bond_atom_site_label_1
_geom_bond_atom_site_label_2
_geom_bond_distance
_geom_bond_site_symmetry_2
_ccdc_geom_bond_type
C1     O44     1.287   .     A
C1     C17     1.443   .     S
C1     O45     1.290   .     A
C2     C3      1.420   .     A
C2     C733    1.426   .     S
C2     C757    1.432   .     S
C3     C7      1.414   .     A
C3     C10     1.425   .     A
C4     C8      1.397   .     A
C4     C731    1.426   1_554 S
C4     C734    1.421   1_554 S
C5     C6      1.403   .     A
C5     C733    1.421   .     S
C5     C753    1.412   .     S
C6     C71     1.481   .     S
C6     C7      1.396   .     A
C7     H40     1.080   .     S
C8     C25     1.395   .     A
C8     H37     1.076   .     S
C9     C25     1.396   .     A
C9     C24     1.388   .     A
C9     H31     1.083   .     S
C10    C26     1.401   .     A
C10    C12     1.476   .     S
C11    C17     1.387   .     A
C11    H41     1.082   .     S
C11    C256    1.389   .     S
C12    O47     1.293   .     A
C12    O46     1.300   .     A
C13    C14     1.415   .     A
C13    O52     1.386   .     S
C13    C497    1.389   1_545 S
C14    C22     1.462   .     S
C14    C15     1.420   .     A
C15    C60     1.487   .     S
C15    C502    1.395   1_545 S
C16    C17     1.394   .     A
C16    H32     1.084   .     S
C16    C258    1.395   .     S
C18    O63     1.397   .     S
C18    N43     1.377   .     A
C18    C100    1.437   .     S
C19    N42     1.361   .     A
C19    H33     1.079   .     S
C19    C180    1.437   1_455 S
C20    H34     1.080   .     S
C20    N42     1.365   .     A
C20    C183    1.413   1_455 S
C21    N43     1.365   .     A
C21    H35     1.082   .     S
C21    C101    1.413   .     S
C22    O48     1.294   .     A
C22    O49     1.290   .     A
C23    O50     1.291   .     A
C23    O51     1.293   .     A
C23    C25     1.459   .     S
C24    C734    1.412   1_554 S
C24    H765    1.081   1_554 S
C26    C27     1.383   .     A
C26    H38     1.084   .     S
C27    C757    1.393   .     S
C27    H768    1.083   .     S
C28    O74     1.381   .     S
C28    C756    1.393   1_554 S
C28    C731    1.432   1_554 S
Cu29   N42     2.010   .     S
Cu29   O50     1.962   .     S
Cu29   O48     1.962   .     S
Cu29   Cu30    2.674   .     S
Cu29   O44     1.968   .     S
Cu29   O46     1.971   .     S
Cu30   O51     1.971   .     S
Cu30   O45     1.962   .     S
Cu30   O47     1.962   .     S
Cu30   O49     1.968   .     S
Cu30   N43     2.010   .     S
H36    C753    1.081   .     S
H39    C756    1.083   1_554 S
O52    C53     1.418   .     S
C53    H54     1.114   .     S
C53    C56     1.516   .     S
C53    H541    1.113   1_545 S
H55    C296    1.113   .     S
C56    H57     1.111   .     S
C56    H59     1.104   .     S
C56    H139    1.109   .     S
H58    C218    1.109   1_455 S
C60    O62     1.221   .     D
C60    H61     1.084   .     S
O63    C64     1.414   .     S
C64    C67     1.522   .     S
C64    H66     1.113   .     S
C64    H65     1.112   .     S
C67    H68     1.108   .     S
C67    H69     1.111   .     S
C67    H70     1.109   .     S
C71    O73     1.218   .     D
C71    H72     1.084   .     S
O74    C75     1.412   .     S
C75    H76     1.113   .     S
C75    H77     1.116   .     S
C75    C78     1.520   .     S
C78    H80     1.110   .     S
C78    H79     1.111   .     S
C78    H81     1.111   .     S
C82    O125    1.287   .     A
C82    C98     1.443   .     S
C82    O126    1.290   .     A
C83    C84     1.420   .     A
C83    C814    1.426   .     S
C83    C838    1.432   .     S
C84    C88     1.414   .     A
C84    C91     1.425   .     A
C85    C89     1.397   .     A
C85    C812    1.426   1_554 S
C85    C815    1.421   1_554 S
C86    C87     1.403   .     A
C86    C814    1.421   .     S
C86    C834    1.412   .     S
C87    C152    1.481   .     S
C87    C88     1.396   .     A
C88    H121    1.080   .     S
C89    C106    1.395   .     A
C89    H118    1.076   .     S
C90    C106    1.396   .     A
C90    C105    1.388   .     A
C90    H112    1.083   .     S
C91    C107    1.401   .     A
C91    C93     1.476   .     S
C92    C98     1.387   .     A
C92    H122    1.082   .     S
C92    C337    1.389   .     S
C93    O128    1.293   .     A
C93    O127    1.300   .     A
C94    C95     1.415   .     A
C94    O133    1.386   .     S
C94    C578    1.389   1_545 S
C95    C103    1.462   .     S
C95    C96     1.420   .     A
C96    C141    1.487   .     S
C96    C583    1.395   1_545 S
C97    C98     1.394   .     A
C97    H113    1.084   .     S
C97    C339    1.395   .     S
C99    O144    1.397   .     S
C99    N124    1.377   .     A
C99    C181    1.437   .     S
C100   N123    1.361   .     A
C100   H114    1.079   .     S
C101   H115    1.080   .     S
C101   N123    1.365   .     A
C102   N124    1.365   .     A
C102   H116    1.082   .     S
C102   C182    1.413   .     S
C103   O129    1.294   .     A
C103   O130    1.290   .     A
C104   O131    1.291   .     A
C104   O132    1.293   .     A
C104   C106    1.459   .     S
C105   C815    1.412   1_554 S
C105   H846    1.081   1_554 S
C107   C108    1.383   .     A
C107   H119    1.084   .     S
C108   C838    1.393   .     S
C108   H849    1.083   .     S
C109   O155    1.381   .     S
C109   C837    1.393   1_554 S
C109   C812    1.432   1_554 S
Cu110  N123    2.010   .     S
Cu110  O131    1.962   .     S
Cu110  O129    1.962   .     S
Cu110  Cu111   2.674   .     S
Cu110  O125    1.968   .     S
Cu110  O127    1.971   .     S
Cu111  O132    1.971   .     S
Cu111  O126    1.962   .     S
Cu111  O128    1.962   .     S
Cu111  O130    1.968   .     S
Cu111  N124    2.010   .     S
H117   C834    1.081   .     S
H120   C837    1.083   1_554 S
O133   C134    1.418   .     S
C134   H135    1.114   .     S
C134   C137    1.516   .     S
C134   H622    1.113   1_545 S
H136   C377    1.113   .     S
C137   H138    1.111   .     S
C137   H140    1.104   .     S
C137   H220    1.109   .     S
C141   O143    1.221   .     D
C141   H142    1.084   .     S
O144   C145    1.414   .     S
C145   C148    1.522   .     S
C145   H147    1.113   .     S
C145   H146    1.112   .     S
C148   H149    1.108   .     S
C148   H150    1.111   .     S
C148   H151    1.109   .     S
C152   O154    1.218   .     D
C152   H153    1.084   .     S
O155   C156    1.412   .     S
C156   H157    1.113   .     S
C156   H158    1.116   .     S
C156   C159    1.520   .     S
C159   H161    1.110   .     S
C159   H160    1.111   .     S
C159   H162    1.111   .     S
C163   O206    1.287   .     A
C163   C179    1.443   .     S
C163   O207    1.290   .     A
C164   C165    1.420   .     A
C164   C895    1.426   .     S
C164   C919    1.432   .     S
C165   C169    1.414   .     A
C165   C172    1.425   .     A
C166   C170    1.397   .     A
C166   C893    1.426   1_554 S
C166   C896    1.421   1_554 S
C167   C168    1.403   .     A
C167   C895    1.421   .     S
C167   C915    1.412   .     S
C168   C233    1.481   .     S
C168   C169    1.396   .     A
C169   H202    1.080   .     S
C170   C187    1.395   .     A
C170   H199    1.076   .     S
C171   C187    1.396   .     A
C171   C186    1.388   .     A
C171   H193    1.083   .     S
C172   C188    1.401   .     A
C172   C174    1.476   .     S
C173   C179    1.387   .     A
C173   H203    1.082   .     S
C173   C418    1.389   .     S
C174   O209    1.293   .     A
C174   O208    1.300   .     A
C175   C176    1.415   .     A
C175   O214    1.386   .     S
C175   C659    1.389   1_545 S
C176   C184    1.462   .     S
C176   C177    1.420   .     A
C177   C222    1.487   .     S
C177   C664    1.395   1_545 S
C178   C179    1.394   .     A
C178   H194    1.084   .     S
C178   C420    1.395   .     S
C180   O225    1.397   .     S
C180   N205    1.377   .     A
C180   C19     1.437   1_655 S
C181   N204    1.361   .     A
C181   H195    1.079   .     S
C182   H196    1.080   .     S
C182   N204    1.365   .     A
C183   N205    1.365   .     A
C183   H197    1.082   .     S
C183   C20     1.413   1_655 S
C184   O210    1.294   .     A
C184   O211    1.290   .     A
C185   O212    1.291   .     A
C185   O213    1.293   .     A
C185   C187    1.459   .     S
C186   C896    1.412   1_554 S
C186   H927    1.081   1_554 S
C188   C189    1.383   .     A
C188   H200    1.084   .     S
C189   C919    1.393   .     S
C189   H930    1.083   .     S
C190   O236    1.381   .     S
C190   C918    1.393   1_554 S
C190   C893    1.432   1_554 S
Cu191  N204    2.010   .     S
Cu191  O212    1.962   .     S
Cu191  O210    1.962   .     S
Cu191  Cu192   2.674   .     S
Cu191  O206    1.968   .     S
Cu191  O208    1.971   .     S
Cu192  O213    1.971   .     S
Cu192  O207    1.962   .     S
Cu192  O209    1.962   .     S
Cu192  O211    1.968   .     S
Cu192  N205    2.010   .     S
H198   C915    1.081   .     S
H201   C918    1.083   1_554 S
O214   C215    1.418   .     S
C215   H216    1.114   .     S
C215   C218    1.516   .     S
C215   H703    1.113   1_545 S
H217   C458    1.113   .     S
C218   H219    1.111   .     S
C218   H221    1.104   .     S
C218   H58     1.109   1_655 S
C222   O224    1.221   .     D
C222   H223    1.084   .     S
O225   C226    1.414   .     S
C226   C229    1.522   .     S
C226   H228    1.113   .     S
C226   H227    1.112   .     S
C229   H230    1.108   .     S
C229   H231    1.111   .     S
C229   H232    1.109   .     S
C233   O235    1.218   .     D
C233   H234    1.084   .     S
O236   C237    1.412   .     S
C237   H238    1.113   .     S
C237   H239    1.116   .     S
C237   C240    1.520   .     S
C240   H242    1.110   .     S
C240   H241    1.111   .     S
C240   H243    1.111   .     S
C244   O287    1.287   .     A
C244   C260    1.443   .     S
C244   O288    1.290   .     A
C245   C246    1.420   .     A
C245   C976    1.426   .     S
C245   C1000   1.432   .     S
C246   C250    1.414   .     A
C246   C253    1.425   .     A
C247   C251    1.397   .     A
C247   C974    1.426   1_554 S
C247   C977    1.421   1_554 S
C248   C249    1.403   .     A
C248   C976    1.421   .     S
C248   C996    1.412   .     S
C249   C314    1.481   .     S
C249   C250    1.396   .     A
C250   H283    1.080   .     S
C251   C268    1.395   .     A
C251   H280    1.076   .     S
C252   C268    1.396   .     A
C252   C267    1.388   .     A
C252   H274    1.083   .     S
C253   C269    1.401   .     A
C253   C255    1.476   .     S
C254   C260    1.387   .     A
C254   H284    1.082   .     S
C254   C499    1.389   .     S
C255   O290    1.293   .     A
C255   O289    1.300   .     A
C256   C257    1.415   .     A
C256   O295    1.386   .     S
C257   C265    1.462   .     S
C257   C258    1.420   .     A
C258   C303    1.487   .     S
C259   C260    1.394   .     A
C259   H275    1.084   .     S
C259   C501    1.395   .     S
C261   O306    1.397   .     S
C261   N286    1.377   .     A
C261   C343    1.437   .     S
C262   N285    1.361   .     A
C262   H276    1.079   .     S
C262   C423    1.437   1_455 S
C263   H277    1.080   .     S
C263   N285    1.365   .     A
C263   C426    1.413   1_455 S
C264   N286    1.365   .     A
C264   H278    1.082   .     S
C264   C344    1.413   .     S
C265   O291    1.294   .     A
C265   O292    1.290   .     A
C266   O293    1.291   .     A
C266   O294    1.293   .     A
C266   C268    1.459   .     S
C267   C977    1.412   1_554 S
C267   H1008   1.081   1_554 S
C269   C270    1.383   .     A
C269   H281    1.084   .     S
C270   C1000   1.393   .     S
C270   H1011   1.083   .     S
C271   O317    1.381   .     S
C271   C999    1.393   1_554 S
C271   C974    1.432   1_554 S
Cu272  N285    2.010   .     S
Cu272  O293    1.962   .     S
Cu272  O291    1.962   .     S
Cu272  Cu273   2.674   .     S
Cu272  O287    1.968   .     S
Cu272  O289    1.971   .     S
Cu273  O294    1.971   .     S
Cu273  O288    1.962   .     S
Cu273  O290    1.962   .     S
Cu273  O292    1.968   .     S
Cu273  N286    2.010   .     S
H279   C996    1.081   .     S
H282   C999    1.083   1_554 S
O295   C296    1.418   .     S
C296   H297    1.114   .     S
C296   C299    1.516   .     S
H298   C539    1.113   .     S
C299   H300    1.111   .     S
C299   H302    1.104   .     S
C299   H382    1.109   .     S
H301   C461    1.109   1_455 S
C303   O305    1.221   .     D
C303   H304    1.084   .     S
O306   C307    1.414   .     S
C307   C310    1.522   .     S
C307   H309    1.113   .     S
C307   H308    1.112   .     S
C310   H311    1.108   .     S
C310   H312    1.111   .     S
C310   H313    1.109   .     S
C314   O316    1.218   .     D
C314   H315    1.084   .     S
O317   C318    1.412   .     S
C318   H319    1.113   .     S
C318   H320    1.116   .     S
C318   C321    1.520   .     S
C321   H323    1.110   .     S
C321   H322    1.111   .     S
C321   H324    1.111   .     S
C325   O368    1.287   .     A
C325   C341    1.443   .     S
C325   O369    1.290   .     A
C326   C327    1.420   .     A
C326   C1057   1.426   .     S
C326   C1081   1.432   .     S
C327   C331    1.414   .     A
C327   C334    1.425   .     A
C328   C332    1.397   .     A
C328   C1055   1.426   1_554 S
C328   C1058   1.421   1_554 S
C329   C330    1.403   .     A
C329   C1057   1.421   .     S
C329   C1077   1.412   .     S
C330   C395    1.481   .     S
C330   C331    1.396   .     A
C331   H364    1.080   .     S
C332   C349    1.395   .     A
C332   H361    1.076   .     S
C333   C349    1.396   .     A
C333   C348    1.388   .     A
C333   H355    1.083   .     S
C334   C350    1.401   .     A
C334   C336    1.476   .     S
C335   C341    1.387   .     A
C335   H365    1.082   .     S
C335   C580    1.389   .     S
C336   O371    1.293   .     A
C336   O370    1.300   .     A
C337   C338    1.415   .     A
C337   O376    1.386   .     S
C338   C346    1.462   .     S
C338   C339    1.420   .     A
C339   C384    1.487   .     S
C340   C341    1.394   .     A
C340   H356    1.084   .     S
C340   C582    1.395   .     S
C342   O387    1.397   .     S
C342   N367    1.377   .     A
C342   C424    1.437   .     S
C343   N366    1.361   .     A
C343   H357    1.079   .     S
C344   H358    1.080   .     S
C344   N366    1.365   .     A
C345   N367    1.365   .     A
C345   H359    1.082   .     S
C345   C425    1.413   .     S
C346   O372    1.294   .     A
C346   O373    1.290   .     A
C347   O374    1.291   .     A
C347   O375    1.293   .     A
C347   C349    1.459   .     S
C348   C1058   1.412   1_554 S
C348   H1089   1.081   1_554 S
C350   C351    1.383   .     A
C350   H362    1.084   .     S
C351   C1081   1.393   .     S
C351   H1092   1.083   .     S
C352   O398    1.381   .     S
C352   C1080   1.393   1_554 S
C352   C1055   1.432   1_554 S
Cu353  N366    2.010   .     S
Cu353  O374    1.962   .     S
Cu353  O372    1.962   .     S
Cu353  Cu354   2.674   .     S
Cu353  O368    1.968   .     S
Cu353  O370    1.971   .     S
Cu354  O375    1.971   .     S
Cu354  O369    1.962   .     S
Cu354  O371    1.962   .     S
Cu354  O373    1.968   .     S
Cu354  N367    2.010   .     S
H360   C1077   1.081   .     S
H363   C1080   1.083   1_554 S
O376   C377    1.418   .     S
C377   H378    1.114   .     S
C377   C380    1.516   .     S
H379   C620    1.113   .     S
C380   H381    1.111   .     S
C380   H383    1.104   .     S
C380   H463    1.109   .     S
C384   O386    1.221   .     D
C384   H385    1.084   .     S
O387   C388    1.414   .     S
C388   C391    1.522   .     S
C388   H390    1.113   .     S
C388   H389    1.112   .     S
C391   H392    1.108   .     S
C391   H393    1.111   .     S
C391   H394    1.109   .     S
C395   O397    1.218   .     D
C395   H396    1.084   .     S
O398   C399    1.412   .     S
C399   H400    1.113   .     S
C399   H401    1.116   .     S
C399   C402    1.520   .     S
C402   H404    1.110   .     S
C402   H403    1.111   .     S
C402   H405    1.111   .     S
C406   O449    1.287   .     A
C406   C422    1.443   .     S
C406   O450    1.290   .     A
C407   C408    1.420   .     A
C407   C1138   1.426   .     S
C407   C1162   1.432   .     S
C408   C412    1.414   .     A
C408   C415    1.425   .     A
C409   C413    1.397   .     A
C409   C1136   1.426   1_554 S
C409   C1139   1.421   1_554 S
C410   C411    1.403   .     A
C410   C1138   1.421   .     S
C410   C1158   1.412   .     S
C411   C476    1.481   .     S
C411   C412    1.396   .     A
C412   H445    1.080   .     S
C413   C430    1.395   .     A
C413   H442    1.076   .     S
C414   C430    1.396   .     A
C414   C429    1.388   .     A
C414   H436    1.083   .     S
C415   C431    1.401   .     A
C415   C417    1.476   .     S
C416   C422    1.387   .     A
C416   H446    1.082   .     S
C416   C661    1.389   .     S
C417   O452    1.293   .     A
C417   O451    1.300   .     A
C418   C419    1.415   .     A
C418   O457    1.386   .     S
C419   C427    1.462   .     S
C419   C420    1.420   .     A
C420   C465    1.487   .     S
C421   C422    1.394   .     A
C421   H437    1.084   .     S
C421   C663    1.395   .     S
C423   O468    1.397   .     S
C423   N448    1.377   .     A
C423   C262    1.437   1_655 S
C424   N447    1.361   .     A
C424   H438    1.079   .     S
C425   H439    1.080   .     S
C425   N447    1.365   .     A
C426   N448    1.365   .     A
C426   H440    1.082   .     S
C426   C263    1.413   1_655 S
C427   O453    1.294   .     A
C427   O454    1.290   .     A
C428   O455    1.291   .     A
C428   O456    1.293   .     A
C428   C430    1.459   .     S
C429   C1139   1.412   1_554 S
C429   H1170   1.081   1_554 S
C431   C432    1.383   .     A
C431   H443    1.084   .     S
C432   C1162   1.393   .     S
C432   H1173   1.083   .     S
C433   O479    1.381   .     S
C433   C1161   1.393   1_554 S
C433   C1136   1.432   1_554 S
Cu434  N447    2.010   .     S
Cu434  O455    1.962   .     S
Cu434  O453    1.962   .     S
Cu434  Cu435   2.674   .     S
Cu434  O449    1.968   .     S
Cu434  O451    1.971   .     S
Cu435  O456    1.971   .     S
Cu435  O450    1.962   .     S
Cu435  O452    1.962   .     S
Cu435  O454    1.968   .     S
Cu435  N448    2.010   .     S
H441   C1158   1.081   .     S
H444   C1161   1.083   1_554 S
O457   C458    1.418   .     S
C458   H459    1.114   .     S
C458   C461    1.516   .     S
H460   C701    1.113   .     S
C461   H462    1.111   .     S
C461   H464    1.104   .     S
C461   H301    1.109   1_655 S
C465   O467    1.221   .     D
C465   H466    1.084   .     S
O468   C469    1.414   .     S
C469   C472    1.522   .     S
C469   H471    1.113   .     S
C469   H470    1.112   .     S
C472   H473    1.108   .     S
C472   H474    1.111   .     S
C472   H475    1.109   .     S
C476   O478    1.218   .     D
C476   H477    1.084   .     S
O479   C480    1.412   .     S
C480   H481    1.113   .     S
C480   H482    1.116   .     S
C480   C483    1.520   .     S
C483   H485    1.110   .     S
C483   H484    1.111   .     S
C483   H486    1.111   .     S
C487   O530    1.287   .     A
C487   C503    1.443   .     S
C487   O531    1.290   .     A
C488   C489    1.420   .     A
C488   C1219   1.426   .     S
C488   C1243   1.432   .     S
C489   C493    1.414   .     A
C489   C496    1.425   .     A
C490   C494    1.397   .     A
C490   C1217   1.426   1_554 S
C490   C1220   1.421   1_554 S
C491   C492    1.403   .     A
C491   C1219   1.421   .     S
C491   C1239   1.412   .     S
C492   C557    1.481   .     S
C492   C493    1.396   .     A
C493   H526    1.080   .     S
C494   C511    1.395   .     A
C494   H523    1.076   .     S
C495   C511    1.396   .     A
C495   C510    1.388   .     A
C495   H517    1.083   .     S
C496   C512    1.401   .     A
C496   C498    1.476   .     S
C497   C503    1.387   .     A
C497   H527    1.082   .     S
C497   C13     1.389   1_565 S
C498   O533    1.293   .     A
C498   O532    1.300   .     A
C499   C500    1.415   .     A
C499   O538    1.386   .     S
C500   C508    1.462   .     S
C500   C501    1.420   .     A
C501   C546    1.487   .     S
C502   C503    1.394   .     A
C502   H518    1.084   .     S
C502   C15     1.395   1_565 S
C504   O549    1.397   .     S
C504   N529    1.377   .     A
C504   C586    1.437   .     S
C505   N528    1.361   .     A
C505   H519    1.079   .     S
C505   C666    1.437   1_455 S
C506   H520    1.080   .     S
C506   N528    1.365   .     A
C506   C669    1.413   1_455 S
C507   N529    1.365   .     A
C507   H521    1.082   .     S
C507   C587    1.413   .     S
C508   O534    1.294   .     A
C508   O535    1.290   .     A
C509   O536    1.291   .     A
C509   O537    1.293   .     A
C509   C511    1.459   .     S
C510   C1220   1.412   1_554 S
C510   H1251   1.081   1_554 S
C512   C513    1.383   .     A
C512   H524    1.084   .     S
C513   C1243   1.393   .     S
C513   H1254   1.083   .     S
C514   O560    1.381   .     S
C514   C1242   1.393   1_554 S
C514   C1217   1.432   1_554 S
Cu515  N528    2.010   .     S
Cu515  O536    1.962   .     S
Cu515  O534    1.962   .     S
Cu515  Cu516   2.674   .     S
Cu515  O530    1.968   .     S
Cu515  O532    1.971   .     S
Cu516  O537    1.971   .     S
Cu516  O531    1.962   .     S
Cu516  O533    1.962   .     S
Cu516  O535    1.968   .     S
Cu516  N529    2.010   .     S
H522   C1239   1.081   .     S
H525   C1242   1.083   1_554 S
O538   C539    1.418   .     S
C539   H540    1.114   .     S
C539   C542    1.516   .     S
H541   C53     1.113   1_565 S
C542   H543    1.111   .     S
C542   H545    1.104   .     S
C542   H625    1.109   .     S
H544   C704    1.109   1_455 S
C546   O548    1.221   .     D
C546   H547    1.084   .     S
O549   C550    1.414   .     S
C550   C553    1.522   .     S
C550   H552    1.113   .     S
C550   H551    1.112   .     S
C553   H554    1.108   .     S
C553   H555    1.111   .     S
C553   H556    1.109   .     S
C557   O559    1.218   .     D
C557   H558    1.084   .     S
O560   C561    1.412   .     S
C561   H562    1.113   .     S
C561   H563    1.116   .     S
C561   C564    1.520   .     S
C564   H566    1.110   .     S
C564   H565    1.111   .     S
C564   H567    1.111   .     S
C568   O611    1.287   .     A
C568   C584    1.443   .     S
C568   O612    1.290   .     A
C569   C570    1.420   .     A
C569   C1300   1.426   .     S
C569   C1324   1.432   .     S
C570   C574    1.414   .     A
C570   C577    1.425   .     A
C571   C575    1.397   .     A
C571   C1298   1.426   1_554 S
C571   C1301   1.421   1_554 S
C572   C573    1.403   .     A
C572   C1300   1.421   .     S
C572   C1320   1.412   .     S
C573   C638    1.481   .     S
C573   C574    1.396   .     A
C574   H607    1.080   .     S
C575   C592    1.395   .     A
C575   H604    1.076   .     S
C576   C592    1.396   .     A
C576   C591    1.388   .     A
C576   H598    1.083   .     S
C577   C593    1.401   .     A
C577   C579    1.476   .     S
C578   C584    1.387   .     A
C578   H608    1.082   .     S
C578   C94     1.389   1_565 S
C579   O614    1.293   .     A
C579   O613    1.300   .     A
C580   C581    1.415   .     A
C580   O619    1.386   .     S
C581   C589    1.462   .     S
C581   C582    1.420   .     A
C582   C627    1.487   .     S
C583   C584    1.394   .     A
C583   H599    1.084   .     S
C583   C96     1.395   1_565 S
C585   O630    1.397   .     S
C585   N610    1.377   .     A
C585   C667    1.437   .     S
C586   N609    1.361   .     A
C586   H600    1.079   .     S
C587   H601    1.080   .     S
C587   N609    1.365   .     A
C588   N610    1.365   .     A
C588   H602    1.082   .     S
C588   C668    1.413   .     S
C589   O615    1.294   .     A
C589   O616    1.290   .     A
C590   O617    1.291   .     A
C590   O618    1.293   .     A
C590   C592    1.459   .     S
C591   C1301   1.412   1_554 S
C591   H1332   1.081   1_554 S
C593   C594    1.383   .     A
C593   H605    1.084   .     S
C594   C1324   1.393   .     S
C594   H1335   1.083   .     S
C595   O641    1.381   .     S
C595   C1323   1.393   1_554 S
C595   C1298   1.432   1_554 S
Cu596  N609    2.010   .     S
Cu596  O617    1.962   .     S
Cu596  O615    1.962   .     S
Cu596  Cu597   2.674   .     S
Cu596  O611    1.968   .     S
Cu596  O613    1.971   .     S
Cu597  O618    1.971   .     S
Cu597  O612    1.962   .     S
Cu597  O614    1.962   .     S
Cu597  O616    1.968   .     S
Cu597  N610    2.010   .     S
H603   C1320   1.081   .     S
H606   C1323   1.083   1_554 S
O619   C620    1.418   .     S
C620   H621    1.114   .     S
C620   C623    1.516   .     S
H622   C134    1.113   1_565 S
C623   H624    1.111   .     S
C623   H626    1.104   .     S
C623   H706    1.109   .     S
C627   O629    1.221   .     D
C627   H628    1.084   .     S
O630   C631    1.414   .     S
C631   C634    1.522   .     S
C631   H633    1.113   .     S
C631   H632    1.112   .     S
C634   H635    1.108   .     S
C634   H636    1.111   .     S
C634   H637    1.109   .     S
C638   O640    1.218   .     D
C638   H639    1.084   .     S
O641   C642    1.412   .     S
C642   H643    1.113   .     S
C642   H644    1.116   .     S
C642   C645    1.520   .     S
C645   H647    1.110   .     S
C645   H646    1.111   .     S
C645   H648    1.111   .     S
C649   O692    1.287   .     A
C649   C665    1.443   .     S
C649   O693    1.290   .     A
C650   C651    1.420   .     A
C650   C1381   1.426   .     S
C650   C1405   1.432   .     S
C651   C655    1.414   .     A
C651   C658    1.425   .     A
C652   C656    1.397   .     A
C652   C1379   1.426   1_554 S
C652   C1382   1.421   1_554 S
C653   C654    1.403   .     A
C653   C1381   1.421   .     S
C653   C1401   1.412   .     S
C654   C719    1.481   .     S
C654   C655    1.396   .     A
C655   H688    1.080   .     S
C656   C673    1.395   .     A
C656   H685    1.076   .     S
C657   C673    1.396   .     A
C657   C672    1.388   .     A
C657   H679    1.083   .     S
C658   C674    1.401   .     A
C658   C660    1.476   .     S
C659   C665    1.387   .     A
C659   H689    1.082   .     S
C659   C175    1.389   1_565 S
C660   O695    1.293   .     A
C660   O694    1.300   .     A
C661   C662    1.415   .     A
C661   O700    1.386   .     S
C662   C670    1.462   .     S
C662   C663    1.420   .     A
C663   C708    1.487   .     S
C664   C665    1.394   .     A
C664   H680    1.084   .     S
C664   C177    1.395   1_565 S
C666   O711    1.397   .     S
C666   N691    1.377   .     A
C666   C505    1.437   1_655 S
C667   N690    1.361   .     A
C667   H681    1.079   .     S
C668   H682    1.080   .     S
C668   N690    1.365   .     A
C669   N691    1.365   .     A
C669   H683    1.082   .     S
C669   C506    1.413   1_655 S
C670   O696    1.294   .     A
C670   O697    1.290   .     A
C671   O698    1.291   .     A
C671   O699    1.293   .     A
C671   C673    1.459   .     S
C672   C1382   1.412   1_554 S
C672   H1413   1.081   1_554 S
C674   C675    1.383   .     A
C674   H686    1.084   .     S
C675   C1405   1.393   .     S
C675   H1416   1.083   .     S
C676   O722    1.381   .     S
C676   C1404   1.393   1_554 S
C676   C1379   1.432   1_554 S
Cu677  N690    2.010   .     S
Cu677  O698    1.962   .     S
Cu677  O696    1.962   .     S
Cu677  Cu678   2.674   .     S
Cu677  O692    1.968   .     S
Cu677  O694    1.971   .     S
Cu678  O699    1.971   .     S
Cu678  O693    1.962   .     S
Cu678  O695    1.962   .     S
Cu678  O697    1.968   .     S
Cu678  N691    2.010   .     S
H684   C1401   1.081   .     S
H687   C1404   1.083   1_554 S
O700   C701    1.418   .     S
C701   H702    1.114   .     S
C701   C704    1.516   .     S
H703   C215    1.113   1_565 S
C704   H705    1.111   .     S
C704   H707    1.104   .     S
C704   H544    1.109   1_655 S
C708   O710    1.221   .     D
C708   H709    1.084   .     S
O711   C712    1.414   .     S
C712   C715    1.522   .     S
C712   H714    1.113   .     S
C712   H713    1.112   .     S
C715   H716    1.108   .     S
C715   H717    1.111   .     S
C715   H718    1.109   .     S
C719   O721    1.218   .     D
C719   H720    1.084   .     S
O722   C723    1.412   .     S
C723   H724    1.113   .     S
C723   H725    1.116   .     S
C723   C726    1.520   .     S
C726   H728    1.110   .     S
C726   H727    1.111   .     S
C726   H729    1.111   .     S
C730   O773    1.287   .     A
C730   C746    1.443   .     S
C730   O774    1.290   .     A
C731   C732    1.420   .     A
C731   C4      1.426   1_556 S
C731   C28     1.432   1_556 S
C732   C736    1.414   .     A
C732   C739    1.425   .     A
C733   C737    1.397   .     A
C734   C735    1.403   .     A
C734   C4      1.421   1_556 S
C734   C24     1.412   1_556 S
C735   C800    1.481   .     S
C735   C736    1.396   .     A
C736   H769    1.080   .     S
C737   C754    1.395   .     A
C737   H766    1.076   .     S
C738   C754    1.396   .     A
C738   C753    1.388   .     A
C738   H760    1.083   .     S
C739   C755    1.401   .     A
C739   C741    1.476   .     S
C740   C746    1.387   .     A
C740   H770    1.082   .     S
C740   C985    1.389   .     S
C741   O776    1.293   .     A
C741   O775    1.300   .     A
C742   C743    1.415   .     A
C742   O781    1.386   .     S
C742   C1226   1.389   1_545 S
C743   C751    1.462   .     S
C743   C744    1.420   .     A
C744   C789    1.487   .     S
C744   C1231   1.395   1_545 S
C745   C746    1.394   .     A
C745   H761    1.084   .     S
C745   C987    1.395   .     S
C747   O792    1.397   .     S
C747   N772    1.377   .     A
C747   C829    1.437   .     S
C748   N771    1.361   .     A
C748   H762    1.079   .     S
C748   C909    1.437   1_455 S
C749   H763    1.080   .     S
C749   N771    1.365   .     A
C749   C912    1.413   1_455 S
C750   N772    1.365   .     A
C750   H764    1.082   .     S
C750   C830    1.413   .     S
C751   O777    1.294   .     A
C751   O778    1.290   .     A
C752   O779    1.291   .     A
C752   O780    1.293   .     A
C752   C754    1.459   .     S
C755   C756    1.383   .     A
C755   H767    1.084   .     S
C756   C28     1.393   1_556 S
C756   H39     1.083   1_556 S
C757   O803    1.381   .     S
Cu758  N771    2.010   .     S
Cu758  O779    1.962   .     S
Cu758  O777    1.962   .     S
Cu758  Cu759   2.674   .     S
Cu758  O773    1.968   .     S
Cu758  O775    1.971   .     S
Cu759  O780    1.971   .     S
Cu759  O774    1.962   .     S
Cu759  O776    1.962   .     S
Cu759  O778    1.968   .     S
Cu759  N772    2.010   .     S
H765   C24     1.081   1_556 S
O781   C782    1.418   .     S
C782   H783    1.114   .     S
C782   C785    1.516   .     S
C782   H1270   1.113   1_545 S
H784   C1025   1.113   .     S
C785   H786    1.111   .     S
C785   H788    1.104   .     S
C785   H868    1.109   .     S
H787   C947    1.109   1_455 S
C789   O791    1.221   .     D
C789   H790    1.084   .     S
O792   C793    1.414   .     S
C793   C796    1.522   .     S
C793   H795    1.113   .     S
C793   H794    1.112   .     S
C796   H797    1.108   .     S
C796   H798    1.111   .     S
C796   H799    1.109   .     S
C800   O802    1.218   .     D
C800   H801    1.084   .     S
O803   C804    1.412   .     S
C804   H805    1.113   .     S
C804   H806    1.116   .     S
C804   C807    1.520   .     S
C807   H809    1.110   .     S
C807   H808    1.111   .     S
C807   H810    1.111   .     S
C811   O854    1.287   .     A
C811   C827    1.443   .     S
C811   O855    1.290   .     A
C812   C813    1.420   .     A
C812   C85     1.426   1_556 S
C812   C109    1.432   1_556 S
C813   C817    1.414   .     A
C813   C820    1.425   .     A
C814   C818    1.397   .     A
C815   C816    1.403   .     A
C815   C85     1.421   1_556 S
C815   C105    1.412   1_556 S
C816   C881    1.481   .     S
C816   C817    1.396   .     A
C817   H850    1.080   .     S
C818   C835    1.395   .     A
C818   H847    1.076   .     S
C819   C835    1.396   .     A
C819   C834    1.388   .     A
C819   H841    1.083   .     S
C820   C836    1.401   .     A
C820   C822    1.476   .     S
C821   C827    1.387   .     A
C821   H851    1.082   .     S
C821   C1066   1.389   .     S
C822   O857    1.293   .     A
C822   O856    1.300   .     A
C823   C824    1.415   .     A
C823   O862    1.386   .     S
C823   C1307   1.389   1_545 S
C824   C832    1.462   .     S
C824   C825    1.420   .     A
C825   C870    1.487   .     S
C825   C1312   1.395   1_545 S
C826   C827    1.394   .     A
C826   H842    1.084   .     S
C826   C1068   1.395   .     S
C828   O873    1.397   .     S
C828   N853    1.377   .     A
C828   C910    1.437   .     S
C829   N852    1.361   .     A
C829   H843    1.079   .     S
C830   H844    1.080   .     S
C830   N852    1.365   .     A
C831   N853    1.365   .     A
C831   H845    1.082   .     S
C831   C911    1.413   .     S
C832   O858    1.294   .     A
C832   O859    1.290   .     A
C833   O860    1.291   .     A
C833   O861    1.293   .     A
C833   C835    1.459   .     S
C836   C837    1.383   .     A
C836   H848    1.084   .     S
C837   C109    1.393   1_556 S
C837   H120    1.083   1_556 S
C838   O884    1.381   .     S
Cu839  N852    2.010   .     S
Cu839  O860    1.962   .     S
Cu839  O858    1.962   .     S
Cu839  Cu840   2.674   .     S
Cu839  O854    1.968   .     S
Cu839  O856    1.971   .     S
Cu840  O861    1.971   .     S
Cu840  O855    1.962   .     S
Cu840  O857    1.962   .     S
Cu840  O859    1.968   .     S
Cu840  N853    2.010   .     S
H846   C105    1.081   1_556 S
O862   C863    1.418   .     S
C863   H864    1.114   .     S
C863   C866    1.516   .     S
C863   H1351   1.113   1_545 S
H865   C1106   1.113   .     S
C866   H867    1.111   .     S
C866   H869    1.104   .     S
C866   H949    1.109   .     S
C870   O872    1.221   .     D
C870   H871    1.084   .     S
O873   C874    1.414   .     S
C874   C877    1.522   .     S
C874   H876    1.113   .     S
C874   H875    1.112   .     S
C877   H878    1.108   .     S
C877   H879    1.111   .     S
C877   H880    1.109   .     S
C881   O883    1.218   .     D
C881   H882    1.084   .     S
O884   C885    1.412   .     S
C885   H886    1.113   .     S
C885   H887    1.116   .     S
C885   C888    1.520   .     S
C888   H890    1.110   .     S
C888   H889    1.111   .     S
C888   H891    1.111   .     S
C892   O935    1.287   .     A
C892   C908    1.443   .     S
C892   O936    1.290   .     A
C893   C894    1.420   .     A
C893   C166    1.426   1_556 S
C893   C190    1.432   1_556 S
C894   C898    1.414   .     A
C894   C901    1.425   .     A
C895   C899    1.397   .     A
C896   C897    1.403   .     A
C896   C166    1.421   1_556 S
C896   C186    1.412   1_556 S
C897   C962    1.481   .     S
C897   C898    1.396   .     A
C898   H931    1.080   .     S
C899   C916    1.395   .     A
C899   H928    1.076   .     S
C900   C916    1.396   .     A
C900   C915    1.388   .     A
C900   H922    1.083   .     S
C901   C917    1.401   .     A
C901   C903    1.476   .     S
C902   C908    1.387   .     A
C902   H932    1.082   .     S
C902   C1147   1.389   .     S
C903   O938    1.293   .     A
C903   O937    1.300   .     A
C904   C905    1.415   .     A
C904   O943    1.386   .     S
C904   C1388   1.389   1_545 S
C905   C913    1.462   .     S
C905   C906    1.420   .     A
C906   C951    1.487   .     S
C906   C1393   1.395   1_545 S
C907   C908    1.394   .     A
C907   H923    1.084   .     S
C907   C1149   1.395   .     S
C909   O954    1.397   .     S
C909   N934    1.377   .     A
C909   C748    1.437   1_655 S
C910   N933    1.361   .     A
C910   H924    1.079   .     S
C911   H925    1.080   .     S
C911   N933    1.365   .     A
C912   N934    1.365   .     A
C912   H926    1.082   .     S
C912   C749    1.413   1_655 S
C913   O939    1.294   .     A
C913   O940    1.290   .     A
C914   O941    1.291   .     A
C914   O942    1.293   .     A
C914   C916    1.459   .     S
C917   C918    1.383   .     A
C917   H929    1.084   .     S
C918   C190    1.393   1_556 S
C918   H201    1.083   1_556 S
C919   O965    1.381   .     S
Cu920  N933    2.010   .     S
Cu920  O941    1.962   .     S
Cu920  O939    1.962   .     S
Cu920  Cu921   2.674   .     S
Cu920  O935    1.968   .     S
Cu920  O937    1.971   .     S
Cu921  O942    1.971   .     S
Cu921  O936    1.962   .     S
Cu921  O938    1.962   .     S
Cu921  O940    1.968   .     S
Cu921  N934    2.010   .     S
H927   C186    1.081   1_556 S
O943   C944    1.418   .     S
C944   H945    1.114   .     S
C944   C947    1.516   .     S
C944   H1432   1.113   1_545 S
H946   C1187   1.113   .     S
C947   H948    1.111   .     S
C947   H950    1.104   .     S
C947   H787    1.109   1_655 S
C951   O953    1.221   .     D
C951   H952    1.084   .     S
O954   C955    1.414   .     S
C955   C958    1.522   .     S
C955   H957    1.113   .     S
C955   H956    1.112   .     S
C958   H959    1.108   .     S
C958   H960    1.111   .     S
C958   H961    1.109   .     S
C962   O964    1.218   .     D
C962   H963    1.084   .     S
O965   C966    1.412   .     S
C966   H967    1.113   .     S
C966   H968    1.116   .     S
C966   C969    1.520   .     S
C969   H971    1.110   .     S
C969   H970    1.111   .     S
C969   H972    1.111   .     S
C973   O1016   1.287   .     A
C973   C989    1.443   .     S
C973   O1017   1.290   .     A
C974   C975    1.420   .     A
C974   C247    1.426   1_556 S
C974   C271    1.432   1_556 S
C975   C979    1.414   .     A
C975   C982    1.425   .     A
C976   C980    1.397   .     A
C977   C978    1.403   .     A
C977   C247    1.421   1_556 S
C977   C267    1.412   1_556 S
C978   C1043   1.481   .     S
C978   C979    1.396   .     A
C979   H1012   1.080   .     S
C980   C997    1.395   .     A
C980   H1009   1.076   .     S
C981   C997    1.396   .     A
C981   C996    1.388   .     A
C981   H1003   1.083   .     S
C982   C998    1.401   .     A
C982   C984    1.476   .     S
C983   C989    1.387   .     A
C983   H1013   1.082   .     S
C983   C1228   1.389   .     S
C984   O1019   1.293   .     A
C984   O1018   1.300   .     A
C985   C986    1.415   .     A
C985   O1024   1.386   .     S
C986   C994    1.462   .     S
C986   C987    1.420   .     A
C987   C1032   1.487   .     S
C988   C989    1.394   .     A
C988   H1004   1.084   .     S
C988   C1230   1.395   .     S
C990   O1035   1.397   .     S
C990   N1015   1.377   .     A
C990   C1072   1.437   .     S
C991   N1014   1.361   .     A
C991   H1005   1.079   .     S
C991   C1152   1.437   1_455 S
C992   H1006   1.080   .     S
C992   N1014   1.365   .     A
C992   C1155   1.413   1_455 S
C993   N1015   1.365   .     A
C993   H1007   1.082   .     S
C993   C1073   1.413   .     S
C994   O1020   1.294   .     A
C994   O1021   1.290   .     A
C995   O1022   1.291   .     A
C995   O1023   1.293   .     A
C995   C997    1.459   .     S
C998   C999    1.383   .     A
C998   H1010   1.084   .     S
C999   C271    1.393   1_556 S
C999   H282    1.083   1_556 S
C1000  O1046   1.381   .     S
Cu1001 N1014   2.010   .     S
Cu1001 O1022   1.962   .     S
Cu1001 O1020   1.962   .     S
Cu1001 Cu1002  2.674   .     S
Cu1001 O1016   1.968   .     S
Cu1001 O1018   1.971   .     S
Cu1002 O1023   1.971   .     S
Cu1002 O1017   1.962   .     S
Cu1002 O1019   1.962   .     S
Cu1002 O1021   1.968   .     S
Cu1002 N1015   2.010   .     S
H1008  C267    1.081   1_556 S
O1024  C1025   1.418   .     S
C1025  H1026   1.114   .     S
C1025  C1028   1.516   .     S
H1027  C1268   1.113   .     S
C1028  H1029   1.111   .     S
C1028  H1031   1.104   .     S
C1028  H1111   1.109   .     S
H1030  C1190   1.109   1_455 S
C1032  O1034   1.221   .     D
C1032  H1033   1.084   .     S
O1035  C1036   1.414   .     S
C1036  C1039   1.522   .     S
C1036  H1038   1.113   .     S
C1036  H1037   1.112   .     S
C1039  H1040   1.108   .     S
C1039  H1041   1.111   .     S
C1039  H1042   1.109   .     S
C1043  O1045   1.218   .     D
C1043  H1044   1.084   .     S
O1046  C1047   1.412   .     S
C1047  H1048   1.113   .     S
C1047  H1049   1.116   .     S
C1047  C1050   1.520   .     S
C1050  H1052   1.110   .     S
C1050  H1051   1.111   .     S
C1050  H1053   1.111   .     S
C1054  O1097   1.287   .     A
C1054  C1070   1.443   .     S
C1054  O1098   1.290   .     A
C1055  C1056   1.420   .     A
C1055  C328    1.426   1_556 S
C1055  C352    1.432   1_556 S
C1056  C1060   1.414   .     A
C1056  C1063   1.425   .     A
C1057  C1061   1.397   .     A
C1058  C1059   1.403   .     A
C1058  C328    1.421   1_556 S
C1058  C348    1.412   1_556 S
C1059  C1124   1.481   .     S
C1059  C1060   1.396   .     A
C1060  H1093   1.080   .     S
C1061  C1078   1.395   .     A
C1061  H1090   1.076   .     S
C1062  C1078   1.396   .     A
C1062  C1077   1.388   .     A
C1062  H1084   1.083   .     S
C1063  C1079   1.401   .     A
C1063  C1065   1.476   .     S
C1064  C1070   1.387   .     A
C1064  H1094   1.082   .     S
C1064  C1309   1.389   .     S
C1065  O1100   1.293   .     A
C1065  O1099   1.300   .     A
C1066  C1067   1.415   .     A
C1066  O1105   1.386   .     S
C1067  C1075   1.462   .     S
C1067  C1068   1.420   .     A
C1068  C1113   1.487   .     S
C1069  C1070   1.394   .     A
C1069  H1085   1.084   .     S
C1069  C1311   1.395   .     S
C1071  O1116   1.397   .     S
C1071  N1096   1.377   .     A
C1071  C1153   1.437   .     S
C1072  N1095   1.361   .     A
C1072  H1086   1.079   .     S
C1073  H1087   1.080   .     S
C1073  N1095   1.365   .     A
C1074  N1096   1.365   .     A
C1074  H1088   1.082   .     S
C1074  C1154   1.413   .     S
C1075  O1101   1.294   .     A
C1075  O1102   1.290   .     A
C1076  O1103   1.291   .     A
C1076  O1104   1.293   .     A
C1076  C1078   1.459   .     S
C1079  C1080   1.383   .     A
C1079  H1091   1.084   .     S
C1080  C352    1.393   1_556 S
C1080  H363    1.083   1_556 S
C1081  O1127   1.381   .     S
Cu1082 N1095   2.010   .     S
Cu1082 O1103   1.962   .     S
Cu1082 O1101   1.962   .     S
Cu1082 Cu1083  2.674   .     S
Cu1082 O1097   1.968   .     S
Cu1082 O1099   1.971   .     S
Cu1083 O1104   1.971   .     S
Cu1083 O1098   1.962   .     S
Cu1083 O1100   1.962   .     S
Cu1083 O1102   1.968   .     S
Cu1083 N1096   2.010   .     S
H1089  C348    1.081   1_556 S
O1105  C1106   1.418   .     S
C1106  H1107   1.114   .     S
C1106  C1109   1.516   .     S
H1108  C1349   1.113   .     S
C1109  H1110   1.111   .     S
C1109  H1112   1.104   .     S
C1109  H1192   1.109   .     S
C1113  O1115   1.221   .     D
C1113  H1114   1.084   .     S
O1116  C1117   1.414   .     S
C1117  C1120   1.522   .     S
C1117  H1119   1.113   .     S
C1117  H1118   1.112   .     S
C1120  H1121   1.108   .     S
C1120  H1122   1.111   .     S
C1120  H1123   1.109   .     S
C1124  O1126   1.218   .     D
C1124  H1125   1.084   .     S
O1127  C1128   1.412   .     S
C1128  H1129   1.113   .     S
C1128  H1130   1.116   .     S
C1128  C1131   1.520   .     S
C1131  H1133   1.110   .     S
C1131  H1132   1.111   .     S
C1131  H1134   1.111   .     S
C1135  O1178   1.287   .     A
C1135  C1151   1.443   .     S
C1135  O1179   1.290   .     A
C1136  C1137   1.420   .     A
C1136  C409    1.426   1_556 S
C1136  C433    1.432   1_556 S
C1137  C1141   1.414   .     A
C1137  C1144   1.425   .     A
C1138  C1142   1.397   .     A
C1139  C1140   1.403   .     A
C1139  C409    1.421   1_556 S
C1139  C429    1.412   1_556 S
C1140  C1205   1.481   .     S
C1140  C1141   1.396   .     A
C1141  H1174   1.080   .     S
C1142  C1159   1.395   .     A
C1142  H1171   1.076   .     S
C1143  C1159   1.396   .     A
C1143  C1158   1.388   .     A
C1143  H1165   1.083   .     S
C1144  C1160   1.401   .     A
C1144  C1146   1.476   .     S
C1145  C1151   1.387   .     A
C1145  H1175   1.082   .     S
C1145  C1390   1.389   .     S
C1146  O1181   1.293   .     A
C1146  O1180   1.300   .     A
C1147  C1148   1.415   .     A
C1147  O1186   1.386   .     S
C1148  C1156   1.462   .     S
C1148  C1149   1.420   .     A
C1149  C1194   1.487   .     S
C1150  C1151   1.394   .     A
C1150  H1166   1.084   .     S
C1150  C1392   1.395   .     S
C1152  O1197   1.397   .     S
C1152  N1177   1.377   .     A
C1152  C991    1.437   1_655 S
C1153  N1176   1.361   .     A
C1153  H1167   1.079   .     S
C1154  H1168   1.080   .     S
C1154  N1176   1.365   .     A
C1155  N1177   1.365   .     A
C1155  H1169   1.082   .     S
C1155  C992    1.413   1_655 S
C1156  O1182   1.294   .     A
C1156  O1183   1.290   .     A
C1157  O1184   1.291   .     A
C1157  O1185   1.293   .     A
C1157  C1159   1.459   .     S
C1160  C1161   1.383   .     A
C1160  H1172   1.084   .     S
C1161  C433    1.393   1_556 S
C1161  H444    1.083   1_556 S
C1162  O1208   1.381   .     S
Cu1163 N1176   2.010   .     S
Cu1163 O1184   1.962   .     S
Cu1163 O1182   1.962   .     S
Cu1163 Cu1164  2.674   .     S
Cu1163 O1178   1.968   .     S
Cu1163 O1180   1.971   .     S
Cu1164 O1185   1.971   .     S
Cu1164 O1179   1.962   .     S
Cu1164 O1181   1.962   .     S
Cu1164 O1183   1.968   .     S
Cu1164 N1177   2.010   .     S
H1170  C429    1.081   1_556 S
O1186  C1187   1.418   .     S
C1187  H1188   1.114   .     S
C1187  C1190   1.516   .     S
H1189  C1430   1.113   .     S
C1190  H1191   1.111   .     S
C1190  H1193   1.104   .     S
C1190  H1030   1.109   1_655 S
C1194  O1196   1.221   .     D
C1194  H1195   1.084   .     S
O1197  C1198   1.414   .     S
C1198  C1201   1.522   .     S
C1198  H1200   1.113   .     S
C1198  H1199   1.112   .     S
C1201  H1202   1.108   .     S
C1201  H1203   1.111   .     S
C1201  H1204   1.109   .     S
C1205  O1207   1.218   .     D
C1205  H1206   1.084   .     S
O1208  C1209   1.412   .     S
C1209  H1210   1.113   .     S
C1209  H1211   1.116   .     S
C1209  C1212   1.520   .     S
C1212  H1214   1.110   .     S
C1212  H1213   1.111   .     S
C1212  H1215   1.111   .     S
C1216  O1259   1.287   .     A
C1216  C1232   1.443   .     S
C1216  O1260   1.290   .     A
C1217  C1218   1.420   .     A
C1217  C490    1.426   1_556 S
C1217  C514    1.432   1_556 S
C1218  C1222   1.414   .     A
C1218  C1225   1.425   .     A
C1219  C1223   1.397   .     A
C1220  C1221   1.403   .     A
C1220  C490    1.421   1_556 S
C1220  C510    1.412   1_556 S
C1221  C1286   1.481   .     S
C1221  C1222   1.396   .     A
C1222  H1255   1.080   .     S
C1223  C1240   1.395   .     A
C1223  H1252   1.076   .     S
C1224  C1240   1.396   .     A
C1224  C1239   1.388   .     A
C1224  H1246   1.083   .     S
C1225  C1241   1.401   .     A
C1225  C1227   1.476   .     S
C1226  C1232   1.387   .     A
C1226  H1256   1.082   .     S
C1226  C742    1.389   1_565 S
C1227  O1262   1.293   .     A
C1227  O1261   1.300   .     A
C1228  C1229   1.415   .     A
C1228  O1267   1.386   .     S
C1229  C1237   1.462   .     S
C1229  C1230   1.420   .     A
C1230  C1275   1.487   .     S
C1231  C1232   1.394   .     A
C1231  H1247   1.084   .     S
C1231  C744    1.395   1_565 S
C1233  O1278   1.397   .     S
C1233  N1258   1.377   .     A
C1233  C1315   1.437   .     S
C1234  N1257   1.361   .     A
C1234  H1248   1.079   .     S
C1234  C1395   1.437   1_455 S
C1235  H1249   1.080   .     S
C1235  N1257   1.365   .     A
C1235  C1398   1.413   1_455 S
C1236  N1258   1.365   .     A
C1236  H1250   1.082   .     S
C1236  C1316   1.413   .     S
C1237  O1263   1.294   .     A
C1237  O1264   1.290   .     A
C1238  O1265   1.291   .     A
C1238  O1266   1.293   .     A
C1238  C1240   1.459   .     S
C1241  C1242   1.383   .     A
C1241  H1253   1.084   .     S
C1242  C514    1.393   1_556 S
C1242  H525    1.083   1_556 S
C1243  O1289   1.381   .     S
Cu1244 N1257   2.010   .     S
Cu1244 O1265   1.962   .     S
Cu1244 O1263   1.962   .     S
Cu1244 Cu1245  2.674   .     S
Cu1244 O1259   1.968   .     S
Cu1244 O1261   1.971   .     S
Cu1245 O1266   1.971   .     S
Cu1245 O1260   1.962   .     S
Cu1245 O1262   1.962   .     S
Cu1245 O1264   1.968   .     S
Cu1245 N1258   2.010   .     S
H1251  C510    1.081   1_556 S
O1267  C1268   1.418   .     S
C1268  H1269   1.114   .     S
C1268  C1271   1.516   .     S
H1270  C782    1.113   1_565 S
C1271  H1272   1.111   .     S
C1271  H1274   1.104   .     S
C1271  H1354   1.109   .     S
H1273  C1433   1.109   1_455 S
C1275  O1277   1.221   .     D
C1275  H1276   1.084   .     S
O1278  C1279   1.414   .     S
C1279  C1282   1.522   .     S
C1279  H1281   1.113   .     S
C1279  H1280   1.112   .     S
C1282  H1283   1.108   .     S
C1282  H1284   1.111   .     S
C1282  H1285   1.109   .     S
C1286  O1288   1.218   .     D
C1286  H1287   1.084   .     S
O1289  C1290   1.412   .     S
C1290  H1291   1.113   .     S
C1290  H1292   1.116   .     S
C1290  C1293   1.520   .     S
C1293  H1295   1.110   .     S
C1293  H1294   1.111   .     S
C1293  H1296   1.111   .     S
C1297  O1340   1.287   .     A
C1297  C1313   1.443   .     S
C1297  O1341   1.290   .     A
C1298  C1299   1.420   .     A
C1298  C571    1.426   1_556 S
C1298  C595    1.432   1_556 S
C1299  C1303   1.414   .     A
C1299  C1306   1.425   .     A
C1300  C1304   1.397   .     A
C1301  C1302   1.403   .     A
C1301  C571    1.421   1_556 S
C1301  C591    1.412   1_556 S
C1302  C1367   1.481   .     S
C1302  C1303   1.396   .     A
C1303  H1336   1.080   .     S
C1304  C1321   1.395   .     A
C1304  H1333   1.076   .     S
C1305  C1321   1.396   .     A
C1305  C1320   1.388   .     A
C1305  H1327   1.083   .     S
C1306  C1322   1.401   .     A
C1306  C1308   1.476   .     S
C1307  C1313   1.387   .     A
C1307  H1337   1.082   .     S
C1307  C823    1.389   1_565 S
C1308  O1343   1.293   .     A
C1308  O1342   1.300   .     A
C1309  C1310   1.415   .     A
C1309  O1348   1.386   .     S
C1310  C1318   1.462   .     S
C1310  C1311   1.420   .     A
C1311  C1356   1.487   .     S
C1312  C1313   1.394   .     A
C1312  H1328   1.084   .     S
C1312  C825    1.395   1_565 S
C1314  O1359   1.397   .     S
C1314  N1339   1.377   .     A
C1314  C1396   1.437   .     S
C1315  N1338   1.361   .     A
C1315  H1329   1.079   .     S
C1316  H1330   1.080   .     S
C1316  N1338   1.365   .     A
C1317  N1339   1.365   .     A
C1317  H1331   1.082   .     S
C1317  C1397   1.413   .     S
C1318  O1344   1.294   .     A
C1318  O1345   1.290   .     A
C1319  O1346   1.291   .     A
C1319  O1347   1.293   .     A
C1319  C1321   1.459   .     S
C1322  C1323   1.383   .     A
C1322  H1334   1.084   .     S
C1323  C595    1.393   1_556 S
C1323  H606    1.083   1_556 S
C1324  O1370   1.381   .     S
Cu1325 N1338   2.010   .     S
Cu1325 O1346   1.962   .     S
Cu1325 O1344   1.962   .     S
Cu1325 Cu1326  2.674   .     S
Cu1325 O1340   1.968   .     S
Cu1325 O1342   1.971   .     S
Cu1326 O1347   1.971   .     S
Cu1326 O1341   1.962   .     S
Cu1326 O1343   1.962   .     S
Cu1326 O1345   1.968   .     S
Cu1326 N1339   2.010   .     S
H1332  C591    1.081   1_556 S
O1348  C1349   1.418   .     S
C1349  H1350   1.114   .     S
C1349  C1352   1.516   .     S
H1351  C863    1.113   1_565 S
C1352  H1353   1.111   .     S
C1352  H1355   1.104   .     S
C1352  H1435   1.109   .     S
C1356  O1358   1.221   .     D
C1356  H1357   1.084   .     S
O1359  C1360   1.414   .     S
C1360  C1363   1.522   .     S
C1360  H1362   1.113   .     S
C1360  H1361   1.112   .     S
C1363  H1364   1.108   .     S
C1363  H1365   1.111   .     S
C1363  H1366   1.109   .     S
C1367  O1369   1.218   .     D
C1367  H1368   1.084   .     S
O1370  C1371   1.412   .     S
C1371  H1372   1.113   .     S
C1371  H1373   1.116   .     S
C1371  C1374   1.520   .     S
C1374  H1376   1.110   .     S
C1374  H1375   1.111   .     S
C1374  H1377   1.111   .     S
C1378  O1421   1.287   .     A
C1378  C1394   1.443   .     S
C1378  O1422   1.290   .     A
C1379  C1380   1.420   .     A
C1379  C652    1.426   1_556 S
C1379  C676    1.432   1_556 S
C1380  C1384   1.414   .     A
C1380  C1387   1.425   .     A
C1381  C1385   1.397   .     A
C1382  C1383   1.403   .     A
C1382  C652    1.421   1_556 S
C1382  C672    1.412   1_556 S
C1383  C1448   1.481   .     S
C1383  C1384   1.396   .     A
C1384  H1417   1.080   .     S
C1385  C1402   1.395   .     A
C1385  H1414   1.076   .     S
C1386  C1402   1.396   .     A
C1386  C1401   1.388   .     A
C1386  H1408   1.083   .     S
C1387  C1403   1.401   .     A
C1387  C1389   1.476   .     S
C1388  C1394   1.387   .     A
C1388  H1418   1.082   .     S
C1388  C904    1.389   1_565 S
C1389  O1424   1.293   .     A
C1389  O1423   1.300   .     A
C1390  C1391   1.415   .     A
C1390  O1429   1.386   .     S
C1391  C1399   1.462   .     S
C1391  C1392   1.420   .     A
C1392  C1437   1.487   .     S
C1393  C1394   1.394   .     A
C1393  H1409   1.084   .     S
C1393  C906    1.395   1_565 S
C1395  O1440   1.397   .     S
C1395  N1420   1.377   .     A
C1395  C1234   1.437   1_655 S
C1396  N1419   1.361   .     A
C1396  H1410   1.079   .     S
C1397  H1411   1.080   .     S
C1397  N1419   1.365   .     A
C1398  N1420   1.365   .     A
C1398  H1412   1.082   .     S
C1398  C1235   1.413   1_655 S
C1399  O1425   1.294   .     A
C1399  O1426   1.290   .     A
C1400  O1427   1.291   .     A
C1400  O1428   1.293   .     A
C1400  C1402   1.459   .     S
C1403  C1404   1.383   .     A
C1403  H1415   1.084   .     S
C1404  C676    1.393   1_556 S
C1404  H687    1.083   1_556 S
C1405  O1451   1.381   .     S
Cu1406 N1419   2.010   .     S
Cu1406 O1427   1.962   .     S
Cu1406 O1425   1.962   .     S
Cu1406 Cu1407  2.674   .     S
Cu1406 O1421   1.968   .     S
Cu1406 O1423   1.971   .     S
Cu1407 O1428   1.971   .     S
Cu1407 O1422   1.962   .     S
Cu1407 O1424   1.962   .     S
Cu1407 O1426   1.968   .     S
Cu1407 N1420   2.010   .     S
H1413  C672    1.081   1_556 S
O1429  C1430   1.418   .     S
C1430  H1431   1.114   .     S
C1430  C1433   1.516   .     S
H1432  C944    1.113   1_565 S
C1433  H1434   1.111   .     S
C1433  H1436   1.104   .     S
C1433  H1273   1.109   1_655 S
C1437  O1439   1.221   .     D
C1437  H1438   1.084   .     S
O1440  C1441   1.414   .     S
C1441  C1444   1.522   .     S
C1441  H1443   1.113   .     S
C1441  H1442   1.112   .     S
C1444  H1445   1.108   .     S
C1444  H1446   1.111   .     S
C1444  H1447   1.109   .     S
C1448  O1450   1.218   .     D
C1448  H1449   1.084   .     S
O1451  C1452   1.412   .     S
C1452  H1453   1.113   .     S
C1452  H1454   1.116   .     S
C1452  C1455   1.520   .     S
C1455  H1457   1.110   .     S
C1455  H1456   1.111   .     S
C1455  H1458   1.111   .     S
