data_str_m1_o10_o16_pcu_sym.134
_audit_creation_date              2020-01-03
_audit_creation_method            'Materials Studio'
_symmetry_space_group_name_H-M    'P1'
_symmetry_Int_Tables_number       1
_symmetry_cell_setting            triclinic
loop_
_symmetry_equiv_pos_as_xyz
  x,y,z
_cell_length_a                    32.5588
_cell_length_b                    32.5239
_cell_length_c                    31.1201
_cell_angle_alpha                 96.3565
_cell_angle_beta                  74.3216
_cell_angle_gamma                 98.5183
loop_
_atom_site_label
_atom_site_type_symbol
_atom_site_fract_x
_atom_site_fract_y
_atom_site_fract_z
_atom_site_U_iso_or_equiv
_atom_site_adp_type
_atom_site_occupancy
C1     C     0.05277   0.15985   0.25992   0.00000  Uiso   1.00
C2     C     0.16642   0.16022   0.06057   0.00000  Uiso   1.00
C3     C     0.23157   0.12982   0.05572   0.00000  Uiso   1.00
C4     C     0.28084   0.17387   0.23992   0.00000  Uiso   1.00
C5     C     0.13778   0.18992   0.41983   0.00000  Uiso   1.00
C6     C     0.32680   0.17648   0.23557   0.00000  Uiso   1.00
C7     C     0.00743   0.15769   0.26403   0.00000  Uiso   1.00
C8     C     0.18057   0.32254   0.23635   0.00000  Uiso   1.00
C9     C     0.15197   0.01179   0.26388   0.00000  Uiso   1.00
C10    C     0.15623   0.05591   0.26013   0.00000  Uiso   1.00
C11    C     0.17663   0.27796   0.24012   0.00000  Uiso   1.00
C12    C     0.07802   0.18222   0.48548   0.00000  Uiso   1.00
C13    C     0.18558   0.14830   0.12938   0.00000  Uiso   1.00
C14    C     0.14886   0.18507   0.37073   0.00000  Uiso   1.00
C15    C     0.24603   0.13538   0.01004   0.00000  Uiso   1.00
C16    C     0.19314   0.14359   0.08101   0.00000  Uiso   1.00
C17    C     0.09434   0.19230   0.44155   0.00000  Uiso   1.00
C18    C     0.28960   0.12317   0.48487   0.00000  Uiso   1.00
C19    C     0.23616   0.21185   0.38731   0.00000  Uiso   1.00
C20    C     0.10476   0.16998   0.00833   0.00000  Uiso   1.00
C21    C     0.14973   0.17231   0.48960   0.00000  Uiso   1.00
C22    C     0.16677   0.18335   0.44460   0.00000  Uiso   1.00
C23    C     0.17779   0.16129   0.01336   0.00000  Uiso   1.00
C24    C     0.22001   0.15323   0.48911   0.00000  Uiso   1.00
C25    C     0.23659   0.16647   0.44578   0.00000  Uiso   1.00
C26    C     0.21190   0.18575   0.42569   0.00000  Uiso   1.00
H27    H     0.25186   0.11765   0.07252   0.00000  Uiso   1.00
H28    H     0.31193   0.15131   0.47324   0.00000  Uiso   1.00
H29    H     0.30410   0.10755   0.00615   0.00000  Uiso   1.00
H30    H     0.28648   0.10119   0.45565   0.00000  Uiso   1.00
H31    H     0.11084   0.16152   0.10980   0.00000  Uiso   1.00
H32    H     0.14497   0.20663   0.10705   0.00000  Uiso   1.00
H33    H     0.26362   0.23194   0.39658   0.00000  Uiso   1.00
H34    H     0.24924   0.19148   0.35714   0.00000  Uiso   1.00
H35    H     0.21622   0.23340   0.37956   0.00000  Uiso   1.00
H36    H     0.31883   0.14079   0.29104   0.00000  Uiso   1.00
H37    H     0.20700   0.00376   0.21096   0.00000  Uiso   1.00
H38    H     0.12521   0.33133   0.28940   0.00000  Uiso   1.00
H39    H     0.27011   0.16530   0.42855   0.00000  Uiso   1.00
H40    H     0.07196   0.19792   0.42327   0.00000  Uiso   1.00
H41    H     0.08899   0.15674   0.03974   0.00000  Uiso   1.00
H42    H     0.04387   0.18108   0.00091   0.00000  Uiso   1.00
H43    H     0.01602   0.19364   0.20911   0.00000  Uiso   1.00
N44    N     0.13211   0.18205   0.08806   0.00000  Uiso   1.00
O45    O     0.16667   0.16667   0.25000   0.00000  Uiso   1.00
O46    O     0.15451   0.12637   0.15459   0.00000  Uiso   1.00
O47    O     0.12940   0.20391   0.34968   0.00000  Uiso   1.00
O48    O     0.20824   0.17759   0.14606   0.00000  Uiso   1.00
O49    O     0.17451   0.15880   0.34968   0.00000  Uiso   1.00
O50    O     0.17930   0.08019   0.28214   0.00000  Uiso   1.00
O51    O     0.14632   0.26085   0.27014   0.00000  Uiso   1.00
O52    O     0.07412   0.13291   0.23413   0.00000  Uiso   1.00
O53    O     0.26693   0.19272   0.21361   0.00000  Uiso   1.00
O54    O     0.07071   0.18878   0.28213   0.00000  Uiso   1.00
O55    O     0.25491   0.15226   0.27014   0.00000  Uiso   1.00
O56    O     0.13760   0.06944   0.23413   0.00000  Uiso   1.00
O57    O     0.20345   0.25620   0.21361   0.00000  Uiso   1.00
Zn58   Zn    0.19338   0.13994   0.28734   0.00000  Uiso   1.00
Zn59   Zn    0.13379   0.12458   0.21876   0.00000  Uiso   1.00
Zn60   Zn    0.21056   0.19775   0.20657   0.00000  Uiso   1.00
Zn61   Zn    0.12893   0.20439   0.28734   0.00000  Uiso   1.00
C62    C     0.38610   0.15985   0.25992   0.00000  Uiso   1.00
C63    C     0.49976   0.16022   0.06057   0.00000  Uiso   1.00
C64    C     0.56490   0.12982   0.05572   0.00000  Uiso   1.00
C65    C     0.61417   0.17387   0.23992   0.00000  Uiso   1.00
C66    C     0.47111   0.18992   0.41983   0.00000  Uiso   1.00
C67    C     0.66013   0.17648   0.23557   0.00000  Uiso   1.00
C68    C     0.34076   0.15769   0.26403   0.00000  Uiso   1.00
C69    C     0.51390   0.32254   0.23635   0.00000  Uiso   1.00
C70    C     0.48530   0.01179   0.26388   0.00000  Uiso   1.00
C71    C     0.48956   0.05591   0.26013   0.00000  Uiso   1.00
C72    C     0.50996   0.27796   0.24012   0.00000  Uiso   1.00
C73    C     0.41135   0.18222   0.48548   0.00000  Uiso   1.00
C74    C     0.51892   0.14830   0.12938   0.00000  Uiso   1.00
C75    C     0.48219   0.18507   0.37073   0.00000  Uiso   1.00
C76    C     0.57936   0.13538   0.01004   0.00000  Uiso   1.00
C77    C     0.52647   0.14359   0.08101   0.00000  Uiso   1.00
C78    C     0.42767   0.19230   0.44155   0.00000  Uiso   1.00
C79    C     0.62293   0.12317   0.48487   0.00000  Uiso   1.00
C80    C     0.56949   0.21185   0.38731   0.00000  Uiso   1.00
C81    C     0.43809   0.16998   0.00833   0.00000  Uiso   1.00
C82    C     0.48307   0.17231   0.48960   0.00000  Uiso   1.00
C83    C     0.50011   0.18335   0.44460   0.00000  Uiso   1.00
C84    C     0.51113   0.16129   0.01336   0.00000  Uiso   1.00
C85    C     0.55334   0.15323   0.48911   0.00000  Uiso   1.00
C86    C     0.56992   0.16647   0.44578   0.00000  Uiso   1.00
C87    C     0.54524   0.18575   0.42569   0.00000  Uiso   1.00
H88    H     0.58520   0.11765   0.07252   0.00000  Uiso   1.00
H89    H     0.64527   0.15131   0.47324   0.00000  Uiso   1.00
H90    H     0.63744   0.10755   0.00615   0.00000  Uiso   1.00
H91    H     0.61981   0.10119   0.45565   0.00000  Uiso   1.00
H92    H     0.44417   0.16152   0.10980   0.00000  Uiso   1.00
H93    H     0.47830   0.20663   0.10705   0.00000  Uiso   1.00
H94    H     0.59696   0.23194   0.39658   0.00000  Uiso   1.00
H95    H     0.58257   0.19148   0.35714   0.00000  Uiso   1.00
H96    H     0.54955   0.23340   0.37956   0.00000  Uiso   1.00
H97    H     0.65216   0.14079   0.29104   0.00000  Uiso   1.00
H98    H     0.54033   0.00376   0.21096   0.00000  Uiso   1.00
H99    H     0.45854   0.33133   0.28940   0.00000  Uiso   1.00
H100   H     0.60345   0.16530   0.42855   0.00000  Uiso   1.00
H101   H     0.40529   0.19792   0.42327   0.00000  Uiso   1.00
H102   H     0.42232   0.15674   0.03974   0.00000  Uiso   1.00
H103   H     0.37720   0.18108   0.00091   0.00000  Uiso   1.00
H104   H     0.34935   0.19364   0.20911   0.00000  Uiso   1.00
N105   N     0.46544   0.18205   0.08806   0.00000  Uiso   1.00
O106   O     0.50000   0.16667   0.25000   0.00000  Uiso   1.00
O107   O     0.48784   0.12637   0.15459   0.00000  Uiso   1.00
O108   O     0.46274   0.20391   0.34968   0.00000  Uiso   1.00
O109   O     0.54157   0.17759   0.14606   0.00000  Uiso   1.00
O110   O     0.50785   0.15880   0.34968   0.00000  Uiso   1.00
O111   O     0.51264   0.08019   0.28214   0.00000  Uiso   1.00
O112   O     0.47965   0.26085   0.27014   0.00000  Uiso   1.00
O113   O     0.40745   0.13291   0.23413   0.00000  Uiso   1.00
O114   O     0.60026   0.19272   0.21361   0.00000  Uiso   1.00
O115   O     0.40405   0.18878   0.28213   0.00000  Uiso   1.00
O116   O     0.58824   0.15226   0.27014   0.00000  Uiso   1.00
O117   O     0.47093   0.06944   0.23413   0.00000  Uiso   1.00
O118   O     0.53678   0.25620   0.21361   0.00000  Uiso   1.00
Zn119  Zn    0.52672   0.13994   0.28734   0.00000  Uiso   1.00
Zn120  Zn    0.46713   0.12458   0.21876   0.00000  Uiso   1.00
Zn121  Zn    0.54389   0.19775   0.20657   0.00000  Uiso   1.00
Zn122  Zn    0.46226   0.20439   0.28734   0.00000  Uiso   1.00
C123   C     0.71943   0.15985   0.25992   0.00000  Uiso   1.00
C124   C     0.83309   0.16022   0.06057   0.00000  Uiso   1.00
C125   C     0.89823   0.12982   0.05572   0.00000  Uiso   1.00
C126   C     0.94750   0.17387   0.23992   0.00000  Uiso   1.00
C127   C     0.80444   0.18992   0.41983   0.00000  Uiso   1.00
C128   C     0.99346   0.17648   0.23557   0.00000  Uiso   1.00
C129   C     0.67409   0.15769   0.26403   0.00000  Uiso   1.00
C130   C     0.84724   0.32254   0.23635   0.00000  Uiso   1.00
C131   C     0.81864   0.01179   0.26388   0.00000  Uiso   1.00
C132   C     0.82289   0.05591   0.26013   0.00000  Uiso   1.00
C133   C     0.84329   0.27796   0.24012   0.00000  Uiso   1.00
C134   C     0.74469   0.18222   0.48548   0.00000  Uiso   1.00
C135   C     0.85225   0.14830   0.12938   0.00000  Uiso   1.00
C136   C     0.81553   0.18507   0.37073   0.00000  Uiso   1.00
C137   C     0.91270   0.13538   0.01004   0.00000  Uiso   1.00
C138   C     0.85980   0.14359   0.08101   0.00000  Uiso   1.00
C139   C     0.76101   0.19230   0.44155   0.00000  Uiso   1.00
C140   C     0.95626   0.12317   0.48487   0.00000  Uiso   1.00
C141   C     0.90282   0.21185   0.38731   0.00000  Uiso   1.00
C142   C     0.77142   0.16998   0.00833   0.00000  Uiso   1.00
C143   C     0.81640   0.17231   0.48960   0.00000  Uiso   1.00
C144   C     0.83344   0.18335   0.44460   0.00000  Uiso   1.00
C145   C     0.84446   0.16129   0.01336   0.00000  Uiso   1.00
C146   C     0.88667   0.15323   0.48911   0.00000  Uiso   1.00
C147   C     0.90326   0.16647   0.44578   0.00000  Uiso   1.00
C148   C     0.87857   0.18575   0.42569   0.00000  Uiso   1.00
H149   H     0.91853   0.11765   0.07252   0.00000  Uiso   1.00
H150   H     0.97860   0.15131   0.47324   0.00000  Uiso   1.00
H151   H     0.97077   0.10755   0.00615   0.00000  Uiso   1.00
H152   H     0.95314   0.10119   0.45565   0.00000  Uiso   1.00
H153   H     0.77751   0.16152   0.10980   0.00000  Uiso   1.00
H154   H     0.81163   0.20663   0.10705   0.00000  Uiso   1.00
H155   H     0.93029   0.23194   0.39658   0.00000  Uiso   1.00
H156   H     0.91591   0.19148   0.35714   0.00000  Uiso   1.00
H157   H     0.88288   0.23340   0.37956   0.00000  Uiso   1.00
H158   H     0.98550   0.14079   0.29104   0.00000  Uiso   1.00
H159   H     0.87367   0.00376   0.21096   0.00000  Uiso   1.00
H160   H     0.79188   0.33133   0.28940   0.00000  Uiso   1.00
H161   H     0.93678   0.16530   0.42855   0.00000  Uiso   1.00
H162   H     0.73863   0.19792   0.42327   0.00000  Uiso   1.00
H163   H     0.75566   0.15674   0.03974   0.00000  Uiso   1.00
H164   H     0.71053   0.18108   0.00091   0.00000  Uiso   1.00
H165   H     0.68269   0.19364   0.20911   0.00000  Uiso   1.00
N166   N     0.79878   0.18205   0.08806   0.00000  Uiso   1.00
O167   O     0.83333   0.16667   0.25000   0.00000  Uiso   1.00
O168   O     0.82118   0.12637   0.15459   0.00000  Uiso   1.00
O169   O     0.79607   0.20391   0.34968   0.00000  Uiso   1.00
O170   O     0.87491   0.17759   0.14606   0.00000  Uiso   1.00
O171   O     0.84118   0.15880   0.34968   0.00000  Uiso   1.00
O172   O     0.84597   0.08019   0.28214   0.00000  Uiso   1.00
O173   O     0.81298   0.26085   0.27014   0.00000  Uiso   1.00
O174   O     0.74078   0.13291   0.23413   0.00000  Uiso   1.00
O175   O     0.93360   0.19272   0.21361   0.00000  Uiso   1.00
O176   O     0.73738   0.18878   0.28213   0.00000  Uiso   1.00
O177   O     0.92158   0.15226   0.27014   0.00000  Uiso   1.00
O178   O     0.80426   0.06944   0.23413   0.00000  Uiso   1.00
O179   O     0.87012   0.25620   0.21361   0.00000  Uiso   1.00
Zn180  Zn    0.86005   0.13994   0.28734   0.00000  Uiso   1.00
Zn181  Zn    0.80046   0.12458   0.21876   0.00000  Uiso   1.00
Zn182  Zn    0.87723   0.19775   0.20657   0.00000  Uiso   1.00
Zn183  Zn    0.79560   0.20439   0.28734   0.00000  Uiso   1.00
C184   C     0.05277   0.49319   0.25992   0.00000  Uiso   1.00
C185   C     0.16642   0.49356   0.06057   0.00000  Uiso   1.00
C186   C     0.23157   0.46315   0.05572   0.00000  Uiso   1.00
C187   C     0.28084   0.50721   0.23992   0.00000  Uiso   1.00
C188   C     0.13778   0.52325   0.41983   0.00000  Uiso   1.00
C189   C     0.32680   0.50981   0.23557   0.00000  Uiso   1.00
C190   C     0.00743   0.49102   0.26403   0.00000  Uiso   1.00
C191   C     0.18057   0.65587   0.23635   0.00000  Uiso   1.00
C192   C     0.15197   0.34512   0.26388   0.00000  Uiso   1.00
C193   C     0.15623   0.38924   0.26013   0.00000  Uiso   1.00
C194   C     0.17663   0.61129   0.24012   0.00000  Uiso   1.00
C195   C     0.07802   0.51556   0.48548   0.00000  Uiso   1.00
C196   C     0.18558   0.48163   0.12938   0.00000  Uiso   1.00
C197   C     0.14886   0.51841   0.37073   0.00000  Uiso   1.00
C198   C     0.24603   0.46872   0.01004   0.00000  Uiso   1.00
C199   C     0.19314   0.47692   0.08101   0.00000  Uiso   1.00
C200   C     0.09434   0.52563   0.44155   0.00000  Uiso   1.00
C201   C     0.28960   0.45651   0.48487   0.00000  Uiso   1.00
C202   C     0.23616   0.54518   0.38731   0.00000  Uiso   1.00
C203   C     0.10476   0.50331   0.00833   0.00000  Uiso   1.00
C204   C     0.14973   0.50564   0.48960   0.00000  Uiso   1.00
C205   C     0.16677   0.51668   0.44460   0.00000  Uiso   1.00
C206   C     0.17779   0.49463   0.01336   0.00000  Uiso   1.00
C207   C     0.22001   0.48657   0.48911   0.00000  Uiso   1.00
C208   C     0.23659   0.49981   0.44578   0.00000  Uiso   1.00
C209   C     0.21190   0.51909   0.42569   0.00000  Uiso   1.00
H210   H     0.25186   0.45098   0.07252   0.00000  Uiso   1.00
H211   H     0.31193   0.48465   0.47324   0.00000  Uiso   1.00
H212   H     0.30410   0.44089   0.00615   0.00000  Uiso   1.00
H213   H     0.28648   0.43452   0.45565   0.00000  Uiso   1.00
H214   H     0.11084   0.49485   0.10980   0.00000  Uiso   1.00
H215   H     0.14497   0.53997   0.10705   0.00000  Uiso   1.00
H216   H     0.26362   0.56527   0.39658   0.00000  Uiso   1.00
H217   H     0.24924   0.52481   0.35714   0.00000  Uiso   1.00
H218   H     0.21622   0.56674   0.37956   0.00000  Uiso   1.00
H219   H     0.31883   0.47412   0.29104   0.00000  Uiso   1.00
H220   H     0.20700   0.33710   0.21096   0.00000  Uiso   1.00
H221   H     0.12521   0.66466   0.28940   0.00000  Uiso   1.00
H222   H     0.27011   0.49863   0.42855   0.00000  Uiso   1.00
H223   H     0.07196   0.53125   0.42327   0.00000  Uiso   1.00
H224   H     0.08899   0.49008   0.03974   0.00000  Uiso   1.00
H225   H     0.04387   0.51442   0.00091   0.00000  Uiso   1.00
H226   H     0.01602   0.52698   0.20911   0.00000  Uiso   1.00
N227   N     0.13211   0.51539   0.08806   0.00000  Uiso   1.00
O228   O     0.16667   0.50000   0.25000   0.00000  Uiso   1.00
O229   O     0.15451   0.45970   0.15459   0.00000  Uiso   1.00
O230   O     0.12940   0.53724   0.34968   0.00000  Uiso   1.00
O231   O     0.20824   0.51092   0.14606   0.00000  Uiso   1.00
O232   O     0.17451   0.49213   0.34968   0.00000  Uiso   1.00
O233   O     0.17930   0.41352   0.28214   0.00000  Uiso   1.00
O234   O     0.14632   0.59418   0.27014   0.00000  Uiso   1.00
O235   O     0.07412   0.46625   0.23413   0.00000  Uiso   1.00
O236   O     0.26693   0.52605   0.21361   0.00000  Uiso   1.00
O237   O     0.07071   0.52211   0.28213   0.00000  Uiso   1.00
O238   O     0.25491   0.48559   0.27014   0.00000  Uiso   1.00
O239   O     0.13760   0.40277   0.23413   0.00000  Uiso   1.00
O240   O     0.20345   0.58953   0.21361   0.00000  Uiso   1.00
Zn241  Zn    0.19338   0.47327   0.28734   0.00000  Uiso   1.00
Zn242  Zn    0.13379   0.45791   0.21876   0.00000  Uiso   1.00
Zn243  Zn    0.21056   0.53109   0.20657   0.00000  Uiso   1.00
Zn244  Zn    0.12893   0.53773   0.28734   0.00000  Uiso   1.00
C245   C     0.38610   0.49319   0.25992   0.00000  Uiso   1.00
C246   C     0.49976   0.49356   0.06057   0.00000  Uiso   1.00
C247   C     0.56490   0.46315   0.05572   0.00000  Uiso   1.00
C248   C     0.61417   0.50721   0.23992   0.00000  Uiso   1.00
C249   C     0.47111   0.52325   0.41983   0.00000  Uiso   1.00
C250   C     0.66013   0.50981   0.23557   0.00000  Uiso   1.00
C251   C     0.34076   0.49102   0.26403   0.00000  Uiso   1.00
C252   C     0.51390   0.65587   0.23635   0.00000  Uiso   1.00
C253   C     0.48530   0.34512   0.26388   0.00000  Uiso   1.00
C254   C     0.48956   0.38924   0.26013   0.00000  Uiso   1.00
C255   C     0.50996   0.61129   0.24012   0.00000  Uiso   1.00
C256   C     0.41135   0.51556   0.48548   0.00000  Uiso   1.00
C257   C     0.51892   0.48163   0.12938   0.00000  Uiso   1.00
C258   C     0.48219   0.51841   0.37073   0.00000  Uiso   1.00
C259   C     0.57936   0.46872   0.01004   0.00000  Uiso   1.00
C260   C     0.52647   0.47692   0.08101   0.00000  Uiso   1.00
C261   C     0.42767   0.52563   0.44155   0.00000  Uiso   1.00
C262   C     0.62293   0.45651   0.48487   0.00000  Uiso   1.00
C263   C     0.56949   0.54518   0.38731   0.00000  Uiso   1.00
C264   C     0.43809   0.50331   0.00833   0.00000  Uiso   1.00
C265   C     0.48307   0.50564   0.48960   0.00000  Uiso   1.00
C266   C     0.50011   0.51668   0.44460   0.00000  Uiso   1.00
C267   C     0.51113   0.49463   0.01336   0.00000  Uiso   1.00
C268   C     0.55334   0.48657   0.48911   0.00000  Uiso   1.00
C269   C     0.56992   0.49981   0.44578   0.00000  Uiso   1.00
C270   C     0.54524   0.51909   0.42569   0.00000  Uiso   1.00
H271   H     0.58520   0.45098   0.07252   0.00000  Uiso   1.00
H272   H     0.64527   0.48465   0.47324   0.00000  Uiso   1.00
H273   H     0.63744   0.44089   0.00615   0.00000  Uiso   1.00
H274   H     0.61981   0.43452   0.45565   0.00000  Uiso   1.00
H275   H     0.44417   0.49485   0.10980   0.00000  Uiso   1.00
H276   H     0.47830   0.53997   0.10705   0.00000  Uiso   1.00
H277   H     0.59696   0.56527   0.39658   0.00000  Uiso   1.00
H278   H     0.58257   0.52481   0.35714   0.00000  Uiso   1.00
H279   H     0.54955   0.56674   0.37956   0.00000  Uiso   1.00
H280   H     0.65216   0.47412   0.29104   0.00000  Uiso   1.00
H281   H     0.54033   0.33710   0.21096   0.00000  Uiso   1.00
H282   H     0.45854   0.66466   0.28940   0.00000  Uiso   1.00
H283   H     0.60345   0.49863   0.42855   0.00000  Uiso   1.00
H284   H     0.40529   0.53125   0.42327   0.00000  Uiso   1.00
H285   H     0.42232   0.49008   0.03974   0.00000  Uiso   1.00
H286   H     0.37720   0.51442   0.00091   0.00000  Uiso   1.00
H287   H     0.34935   0.52698   0.20911   0.00000  Uiso   1.00
N288   N     0.46544   0.51539   0.08806   0.00000  Uiso   1.00
O289   O     0.50000   0.50000   0.25000   0.00000  Uiso   1.00
O290   O     0.48784   0.45970   0.15459   0.00000  Uiso   1.00
O291   O     0.46274   0.53724   0.34968   0.00000  Uiso   1.00
O292   O     0.54157   0.51092   0.14606   0.00000  Uiso   1.00
O293   O     0.50785   0.49213   0.34968   0.00000  Uiso   1.00
O294   O     0.51264   0.41352   0.28214   0.00000  Uiso   1.00
O295   O     0.47965   0.59418   0.27014   0.00000  Uiso   1.00
O296   O     0.40745   0.46625   0.23413   0.00000  Uiso   1.00
O297   O     0.60026   0.52605   0.21361   0.00000  Uiso   1.00
O298   O     0.40405   0.52211   0.28213   0.00000  Uiso   1.00
O299   O     0.58824   0.48559   0.27014   0.00000  Uiso   1.00
O300   O     0.47093   0.40277   0.23413   0.00000  Uiso   1.00
O301   O     0.53678   0.58953   0.21361   0.00000  Uiso   1.00
Zn302  Zn    0.52672   0.47327   0.28734   0.00000  Uiso   1.00
Zn303  Zn    0.46713   0.45791   0.21876   0.00000  Uiso   1.00
Zn304  Zn    0.54389   0.53109   0.20657   0.00000  Uiso   1.00
Zn305  Zn    0.46226   0.53773   0.28734   0.00000  Uiso   1.00
C306   C     0.71943   0.49319   0.25992   0.00000  Uiso   1.00
C307   C     0.83309   0.49356   0.06057   0.00000  Uiso   1.00
C308   C     0.89823   0.46315   0.05572   0.00000  Uiso   1.00
C309   C     0.94750   0.50721   0.23992   0.00000  Uiso   1.00
C310   C     0.80444   0.52325   0.41983   0.00000  Uiso   1.00
C311   C     0.99346   0.50981   0.23557   0.00000  Uiso   1.00
C312   C     0.67409   0.49102   0.26403   0.00000  Uiso   1.00
C313   C     0.84724   0.65587   0.23635   0.00000  Uiso   1.00
C314   C     0.81864   0.34512   0.26388   0.00000  Uiso   1.00
C315   C     0.82289   0.38924   0.26013   0.00000  Uiso   1.00
C316   C     0.84329   0.61129   0.24012   0.00000  Uiso   1.00
C317   C     0.74469   0.51556   0.48548   0.00000  Uiso   1.00
C318   C     0.85225   0.48163   0.12938   0.00000  Uiso   1.00
C319   C     0.81553   0.51841   0.37073   0.00000  Uiso   1.00
C320   C     0.91270   0.46872   0.01004   0.00000  Uiso   1.00
C321   C     0.85980   0.47692   0.08101   0.00000  Uiso   1.00
C322   C     0.76101   0.52563   0.44155   0.00000  Uiso   1.00
C323   C     0.95626   0.45651   0.48487   0.00000  Uiso   1.00
C324   C     0.90282   0.54518   0.38731   0.00000  Uiso   1.00
C325   C     0.77142   0.50331   0.00833   0.00000  Uiso   1.00
C326   C     0.81640   0.50564   0.48960   0.00000  Uiso   1.00
C327   C     0.83344   0.51668   0.44460   0.00000  Uiso   1.00
C328   C     0.84446   0.49463   0.01336   0.00000  Uiso   1.00
C329   C     0.88667   0.48657   0.48911   0.00000  Uiso   1.00
C330   C     0.90326   0.49981   0.44578   0.00000  Uiso   1.00
C331   C     0.87857   0.51909   0.42569   0.00000  Uiso   1.00
H332   H     0.91853   0.45098   0.07252   0.00000  Uiso   1.00
H333   H     0.97860   0.48465   0.47324   0.00000  Uiso   1.00
H334   H     0.97077   0.44089   0.00615   0.00000  Uiso   1.00
H335   H     0.95314   0.43452   0.45565   0.00000  Uiso   1.00
H336   H     0.77751   0.49485   0.10980   0.00000  Uiso   1.00
H337   H     0.81163   0.53997   0.10705   0.00000  Uiso   1.00
H338   H     0.93029   0.56527   0.39658   0.00000  Uiso   1.00
H339   H     0.91591   0.52481   0.35714   0.00000  Uiso   1.00
H340   H     0.88288   0.56674   0.37956   0.00000  Uiso   1.00
H341   H     0.98550   0.47412   0.29104   0.00000  Uiso   1.00
H342   H     0.87367   0.33710   0.21096   0.00000  Uiso   1.00
H343   H     0.79188   0.66466   0.28940   0.00000  Uiso   1.00
H344   H     0.93678   0.49863   0.42855   0.00000  Uiso   1.00
H345   H     0.73863   0.53125   0.42327   0.00000  Uiso   1.00
H346   H     0.75566   0.49008   0.03974   0.00000  Uiso   1.00
H347   H     0.71053   0.51442   0.00091   0.00000  Uiso   1.00
H348   H     0.68269   0.52698   0.20911   0.00000  Uiso   1.00
N349   N     0.79878   0.51539   0.08806   0.00000  Uiso   1.00
O350   O     0.83333   0.50000   0.25000   0.00000  Uiso   1.00
O351   O     0.82118   0.45970   0.15459   0.00000  Uiso   1.00
O352   O     0.79607   0.53724   0.34968   0.00000  Uiso   1.00
O353   O     0.87491   0.51092   0.14606   0.00000  Uiso   1.00
O354   O     0.84118   0.49213   0.34968   0.00000  Uiso   1.00
O355   O     0.84597   0.41352   0.28214   0.00000  Uiso   1.00
O356   O     0.81298   0.59418   0.27014   0.00000  Uiso   1.00
O357   O     0.74078   0.46625   0.23413   0.00000  Uiso   1.00
O358   O     0.93360   0.52605   0.21361   0.00000  Uiso   1.00
O359   O     0.73738   0.52211   0.28213   0.00000  Uiso   1.00
O360   O     0.92158   0.48559   0.27014   0.00000  Uiso   1.00
O361   O     0.80426   0.40277   0.23413   0.00000  Uiso   1.00
O362   O     0.87012   0.58953   0.21361   0.00000  Uiso   1.00
Zn363  Zn    0.86005   0.47327   0.28734   0.00000  Uiso   1.00
Zn364  Zn    0.80046   0.45791   0.21876   0.00000  Uiso   1.00
Zn365  Zn    0.87723   0.53109   0.20657   0.00000  Uiso   1.00
Zn366  Zn    0.79560   0.53773   0.28734   0.00000  Uiso   1.00
C367   C     0.05277   0.82652   0.25992   0.00000  Uiso   1.00
C368   C     0.16642   0.82689   0.06057   0.00000  Uiso   1.00
C369   C     0.23157   0.79648   0.05572   0.00000  Uiso   1.00
C370   C     0.28084   0.84054   0.23992   0.00000  Uiso   1.00
C371   C     0.13778   0.85658   0.41983   0.00000  Uiso   1.00
C372   C     0.32680   0.84314   0.23557   0.00000  Uiso   1.00
C373   C     0.00743   0.82436   0.26403   0.00000  Uiso   1.00
C374   C     0.18057   0.98920   0.23635   0.00000  Uiso   1.00
C375   C     0.15197   0.67846   0.26388   0.00000  Uiso   1.00
C376   C     0.15623   0.72258   0.26013   0.00000  Uiso   1.00
C377   C     0.17663   0.94463   0.24012   0.00000  Uiso   1.00
C378   C     0.07802   0.84889   0.48548   0.00000  Uiso   1.00
C379   C     0.18558   0.81496   0.12938   0.00000  Uiso   1.00
C380   C     0.14886   0.85174   0.37073   0.00000  Uiso   1.00
C381   C     0.24603   0.80205   0.01004   0.00000  Uiso   1.00
C382   C     0.19314   0.81026   0.08101   0.00000  Uiso   1.00
C383   C     0.09434   0.85896   0.44155   0.00000  Uiso   1.00
C384   C     0.28960   0.78984   0.48487   0.00000  Uiso   1.00
C385   C     0.23616   0.87852   0.38731   0.00000  Uiso   1.00
C386   C     0.10476   0.83664   0.00833   0.00000  Uiso   1.00
C387   C     0.14973   0.83898   0.48960   0.00000  Uiso   1.00
C388   C     0.16677   0.85002   0.44460   0.00000  Uiso   1.00
C389   C     0.17779   0.82796   0.01336   0.00000  Uiso   1.00
C390   C     0.22001   0.81990   0.48911   0.00000  Uiso   1.00
C391   C     0.23659   0.83314   0.44578   0.00000  Uiso   1.00
C392   C     0.21190   0.85242   0.42569   0.00000  Uiso   1.00
H393   H     0.25186   0.78432   0.07252   0.00000  Uiso   1.00
H394   H     0.31193   0.81798   0.47324   0.00000  Uiso   1.00
H395   H     0.30410   0.77422   0.00615   0.00000  Uiso   1.00
H396   H     0.28648   0.76785   0.45565   0.00000  Uiso   1.00
H397   H     0.11084   0.82819   0.10980   0.00000  Uiso   1.00
H398   H     0.14497   0.87330   0.10705   0.00000  Uiso   1.00
H399   H     0.26362   0.89861   0.39658   0.00000  Uiso   1.00
H400   H     0.24924   0.85815   0.35714   0.00000  Uiso   1.00
H401   H     0.21622   0.90007   0.37956   0.00000  Uiso   1.00
H402   H     0.31883   0.80746   0.29104   0.00000  Uiso   1.00
H403   H     0.20700   0.67043   0.21096   0.00000  Uiso   1.00
H404   H     0.12521   0.99799   0.28940   0.00000  Uiso   1.00
H405   H     0.27011   0.83196   0.42855   0.00000  Uiso   1.00
H406   H     0.07196   0.86459   0.42327   0.00000  Uiso   1.00
H407   H     0.08899   0.82341   0.03974   0.00000  Uiso   1.00
H408   H     0.04387   0.84775   0.00091   0.00000  Uiso   1.00
H409   H     0.01602   0.86031   0.20911   0.00000  Uiso   1.00
N410   N     0.13211   0.84872   0.08806   0.00000  Uiso   1.00
O411   O     0.16667   0.83333   0.25000   0.00000  Uiso   1.00
O412   O     0.15451   0.79304   0.15459   0.00000  Uiso   1.00
O413   O     0.12940   0.87058   0.34968   0.00000  Uiso   1.00
O414   O     0.20824   0.84425   0.14606   0.00000  Uiso   1.00
O415   O     0.17451   0.82546   0.34968   0.00000  Uiso   1.00
O416   O     0.17930   0.74686   0.28214   0.00000  Uiso   1.00
O417   O     0.14632   0.92751   0.27014   0.00000  Uiso   1.00
O418   O     0.07412   0.79958   0.23413   0.00000  Uiso   1.00
O419   O     0.26693   0.85939   0.21361   0.00000  Uiso   1.00
O420   O     0.07071   0.85544   0.28213   0.00000  Uiso   1.00
O421   O     0.25491   0.81892   0.27014   0.00000  Uiso   1.00
O422   O     0.13760   0.73610   0.23413   0.00000  Uiso   1.00
O423   O     0.20345   0.92286   0.21361   0.00000  Uiso   1.00
Zn424  Zn    0.19338   0.80661   0.28734   0.00000  Uiso   1.00
Zn425  Zn    0.13379   0.79124   0.21876   0.00000  Uiso   1.00
Zn426  Zn    0.21056   0.86442   0.20657   0.00000  Uiso   1.00
Zn427  Zn    0.12893   0.87106   0.28734   0.00000  Uiso   1.00
C428   C     0.38610   0.82652   0.25992   0.00000  Uiso   1.00
C429   C     0.49976   0.82689   0.06057   0.00000  Uiso   1.00
C430   C     0.56490   0.79648   0.05572   0.00000  Uiso   1.00
C431   C     0.61417   0.84054   0.23992   0.00000  Uiso   1.00
C432   C     0.47111   0.85658   0.41983   0.00000  Uiso   1.00
C433   C     0.66013   0.84314   0.23557   0.00000  Uiso   1.00
C434   C     0.34076   0.82436   0.26403   0.00000  Uiso   1.00
C435   C     0.51390   0.98920   0.23635   0.00000  Uiso   1.00
C436   C     0.48530   0.67846   0.26388   0.00000  Uiso   1.00
C437   C     0.48956   0.72258   0.26013   0.00000  Uiso   1.00
C438   C     0.50996   0.94463   0.24012   0.00000  Uiso   1.00
C439   C     0.41135   0.84889   0.48548   0.00000  Uiso   1.00
C440   C     0.51892   0.81496   0.12938   0.00000  Uiso   1.00
C441   C     0.48219   0.85174   0.37073   0.00000  Uiso   1.00
C442   C     0.57936   0.80205   0.01004   0.00000  Uiso   1.00
C443   C     0.52647   0.81026   0.08101   0.00000  Uiso   1.00
C444   C     0.42767   0.85896   0.44155   0.00000  Uiso   1.00
C445   C     0.62293   0.78984   0.48487   0.00000  Uiso   1.00
C446   C     0.56949   0.87852   0.38731   0.00000  Uiso   1.00
C447   C     0.43809   0.83664   0.00833   0.00000  Uiso   1.00
C448   C     0.48307   0.83898   0.48960   0.00000  Uiso   1.00
C449   C     0.50011   0.85002   0.44460   0.00000  Uiso   1.00
C450   C     0.51113   0.82796   0.01336   0.00000  Uiso   1.00
C451   C     0.55334   0.81990   0.48911   0.00000  Uiso   1.00
C452   C     0.56992   0.83314   0.44578   0.00000  Uiso   1.00
C453   C     0.54524   0.85242   0.42569   0.00000  Uiso   1.00
H454   H     0.58520   0.78432   0.07252   0.00000  Uiso   1.00
H455   H     0.64527   0.81798   0.47324   0.00000  Uiso   1.00
H456   H     0.63744   0.77422   0.00615   0.00000  Uiso   1.00
H457   H     0.61981   0.76785   0.45565   0.00000  Uiso   1.00
H458   H     0.44417   0.82819   0.10980   0.00000  Uiso   1.00
H459   H     0.47830   0.87330   0.10705   0.00000  Uiso   1.00
H460   H     0.59696   0.89861   0.39658   0.00000  Uiso   1.00
H461   H     0.58257   0.85815   0.35714   0.00000  Uiso   1.00
H462   H     0.54955   0.90007   0.37956   0.00000  Uiso   1.00
H463   H     0.65216   0.80746   0.29104   0.00000  Uiso   1.00
H464   H     0.54033   0.67043   0.21096   0.00000  Uiso   1.00
H465   H     0.45854   0.99799   0.28940   0.00000  Uiso   1.00
H466   H     0.60345   0.83196   0.42855   0.00000  Uiso   1.00
H467   H     0.40529   0.86459   0.42327   0.00000  Uiso   1.00
H468   H     0.42232   0.82341   0.03974   0.00000  Uiso   1.00
H469   H     0.37720   0.84775   0.00091   0.00000  Uiso   1.00
H470   H     0.34935   0.86031   0.20911   0.00000  Uiso   1.00
N471   N     0.46544   0.84872   0.08806   0.00000  Uiso   1.00
O472   O     0.50000   0.83333   0.25000   0.00000  Uiso   1.00
O473   O     0.48784   0.79304   0.15459   0.00000  Uiso   1.00
O474   O     0.46274   0.87058   0.34968   0.00000  Uiso   1.00
O475   O     0.54157   0.84425   0.14606   0.00000  Uiso   1.00
O476   O     0.50785   0.82546   0.34968   0.00000  Uiso   1.00
O477   O     0.51264   0.74686   0.28214   0.00000  Uiso   1.00
O478   O     0.47965   0.92751   0.27014   0.00000  Uiso   1.00
O479   O     0.40745   0.79958   0.23413   0.00000  Uiso   1.00
O480   O     0.60026   0.85939   0.21361   0.00000  Uiso   1.00
O481   O     0.40405   0.85544   0.28213   0.00000  Uiso   1.00
O482   O     0.58824   0.81892   0.27014   0.00000  Uiso   1.00
O483   O     0.47093   0.73610   0.23413   0.00000  Uiso   1.00
O484   O     0.53678   0.92286   0.21361   0.00000  Uiso   1.00
Zn485  Zn    0.52672   0.80661   0.28734   0.00000  Uiso   1.00
Zn486  Zn    0.46713   0.79124   0.21876   0.00000  Uiso   1.00
Zn487  Zn    0.54389   0.86442   0.20657   0.00000  Uiso   1.00
Zn488  Zn    0.46226   0.87106   0.28734   0.00000  Uiso   1.00
C489   C     0.71943   0.82652   0.25992   0.00000  Uiso   1.00
C490   C     0.83309   0.82689   0.06057   0.00000  Uiso   1.00
C491   C     0.89823   0.79648   0.05572   0.00000  Uiso   1.00
C492   C     0.94750   0.84054   0.23992   0.00000  Uiso   1.00
C493   C     0.80444   0.85658   0.41983   0.00000  Uiso   1.00
C494   C     0.99346   0.84314   0.23557   0.00000  Uiso   1.00
C495   C     0.67409   0.82436   0.26403   0.00000  Uiso   1.00
C496   C     0.84724   0.98920   0.23635   0.00000  Uiso   1.00
C497   C     0.81864   0.67846   0.26388   0.00000  Uiso   1.00
C498   C     0.82289   0.72258   0.26013   0.00000  Uiso   1.00
C499   C     0.84329   0.94463   0.24012   0.00000  Uiso   1.00
C500   C     0.74469   0.84889   0.48548   0.00000  Uiso   1.00
C501   C     0.85225   0.81496   0.12938   0.00000  Uiso   1.00
C502   C     0.81553   0.85174   0.37073   0.00000  Uiso   1.00
C503   C     0.91270   0.80205   0.01004   0.00000  Uiso   1.00
C504   C     0.85980   0.81026   0.08101   0.00000  Uiso   1.00
C505   C     0.76101   0.85896   0.44155   0.00000  Uiso   1.00
C506   C     0.95626   0.78984   0.48487   0.00000  Uiso   1.00
C507   C     0.90282   0.87852   0.38731   0.00000  Uiso   1.00
C508   C     0.77142   0.83664   0.00833   0.00000  Uiso   1.00
C509   C     0.81640   0.83898   0.48960   0.00000  Uiso   1.00
C510   C     0.83344   0.85002   0.44460   0.00000  Uiso   1.00
C511   C     0.84446   0.82796   0.01336   0.00000  Uiso   1.00
C512   C     0.88667   0.81990   0.48911   0.00000  Uiso   1.00
C513   C     0.90326   0.83314   0.44578   0.00000  Uiso   1.00
C514   C     0.87857   0.85242   0.42569   0.00000  Uiso   1.00
H515   H     0.91853   0.78432   0.07252   0.00000  Uiso   1.00
H516   H     0.97860   0.81798   0.47324   0.00000  Uiso   1.00
H517   H     0.97077   0.77422   0.00615   0.00000  Uiso   1.00
H518   H     0.95314   0.76785   0.45565   0.00000  Uiso   1.00
H519   H     0.77751   0.82819   0.10980   0.00000  Uiso   1.00
H520   H     0.81163   0.87330   0.10705   0.00000  Uiso   1.00
H521   H     0.93029   0.89861   0.39658   0.00000  Uiso   1.00
H522   H     0.91591   0.85815   0.35714   0.00000  Uiso   1.00
H523   H     0.88288   0.90007   0.37956   0.00000  Uiso   1.00
H524   H     0.98550   0.80746   0.29104   0.00000  Uiso   1.00
H525   H     0.87367   0.67043   0.21096   0.00000  Uiso   1.00
H526   H     0.79188   0.99799   0.28940   0.00000  Uiso   1.00
H527   H     0.93678   0.83196   0.42855   0.00000  Uiso   1.00
H528   H     0.73863   0.86459   0.42327   0.00000  Uiso   1.00
H529   H     0.75566   0.82341   0.03974   0.00000  Uiso   1.00
H530   H     0.71053   0.84775   0.00091   0.00000  Uiso   1.00
H531   H     0.68269   0.86031   0.20911   0.00000  Uiso   1.00
N532   N     0.79878   0.84872   0.08806   0.00000  Uiso   1.00
O533   O     0.83333   0.83333   0.25000   0.00000  Uiso   1.00
O534   O     0.82118   0.79304   0.15459   0.00000  Uiso   1.00
O535   O     0.79607   0.87058   0.34968   0.00000  Uiso   1.00
O536   O     0.87491   0.84425   0.14606   0.00000  Uiso   1.00
O537   O     0.84118   0.82546   0.34968   0.00000  Uiso   1.00
O538   O     0.84597   0.74686   0.28214   0.00000  Uiso   1.00
O539   O     0.81298   0.92751   0.27014   0.00000  Uiso   1.00
O540   O     0.74078   0.79958   0.23413   0.00000  Uiso   1.00
O541   O     0.93360   0.85939   0.21361   0.00000  Uiso   1.00
O542   O     0.73738   0.85544   0.28213   0.00000  Uiso   1.00
O543   O     0.92158   0.81892   0.27014   0.00000  Uiso   1.00
O544   O     0.80426   0.73610   0.23413   0.00000  Uiso   1.00
O545   O     0.87012   0.92286   0.21361   0.00000  Uiso   1.00
Zn546  Zn    0.86005   0.80661   0.28734   0.00000  Uiso   1.00
Zn547  Zn    0.80046   0.79124   0.21876   0.00000  Uiso   1.00
Zn548  Zn    0.87723   0.86442   0.20657   0.00000  Uiso   1.00
Zn549  Zn    0.79560   0.87106   0.28734   0.00000  Uiso   1.00
C550   C     0.05277   0.15985   0.75992   0.00000  Uiso   1.00
C551   C     0.16642   0.16022   0.56057   0.00000  Uiso   1.00
C552   C     0.23157   0.12982   0.55572   0.00000  Uiso   1.00
C553   C     0.28084   0.17387   0.73992   0.00000  Uiso   1.00
C554   C     0.13778   0.18992   0.91983   0.00000  Uiso   1.00
C555   C     0.32680   0.17648   0.73557   0.00000  Uiso   1.00
C556   C     0.00743   0.15769   0.76403   0.00000  Uiso   1.00
C557   C     0.18057   0.32254   0.73635   0.00000  Uiso   1.00
C558   C     0.15197   0.01179   0.76388   0.00000  Uiso   1.00
C559   C     0.15623   0.05591   0.76013   0.00000  Uiso   1.00
C560   C     0.17663   0.27796   0.74012   0.00000  Uiso   1.00
C561   C     0.07802   0.18222   0.98548   0.00000  Uiso   1.00
C562   C     0.18558   0.14830   0.62938   0.00000  Uiso   1.00
C563   C     0.14886   0.18507   0.87073   0.00000  Uiso   1.00
C564   C     0.24603   0.13538   0.51004   0.00000  Uiso   1.00
C565   C     0.19314   0.14359   0.58101   0.00000  Uiso   1.00
C566   C     0.09434   0.19230   0.94155   0.00000  Uiso   1.00
C567   C     0.28960   0.12317   0.98487   0.00000  Uiso   1.00
C568   C     0.23616   0.21185   0.88731   0.00000  Uiso   1.00
C569   C     0.10476   0.16998   0.50833   0.00000  Uiso   1.00
C570   C     0.14973   0.17231   0.98960   0.00000  Uiso   1.00
C571   C     0.16677   0.18335   0.94460   0.00000  Uiso   1.00
C572   C     0.17779   0.16129   0.51336   0.00000  Uiso   1.00
C573   C     0.22001   0.15323   0.98911   0.00000  Uiso   1.00
C574   C     0.23659   0.16647   0.94578   0.00000  Uiso   1.00
C575   C     0.21190   0.18575   0.92569   0.00000  Uiso   1.00
H576   H     0.25186   0.11765   0.57252   0.00000  Uiso   1.00
H577   H     0.31193   0.15131   0.97324   0.00000  Uiso   1.00
H578   H     0.30410   0.10755   0.50615   0.00000  Uiso   1.00
H579   H     0.28648   0.10119   0.95565   0.00000  Uiso   1.00
H580   H     0.11084   0.16152   0.60980   0.00000  Uiso   1.00
H581   H     0.14497   0.20663   0.60705   0.00000  Uiso   1.00
H582   H     0.26362   0.23194   0.89658   0.00000  Uiso   1.00
H583   H     0.24924   0.19148   0.85714   0.00000  Uiso   1.00
H584   H     0.21622   0.23340   0.87956   0.00000  Uiso   1.00
H585   H     0.31883   0.14079   0.79104   0.00000  Uiso   1.00
H586   H     0.20700   0.00376   0.71096   0.00000  Uiso   1.00
H587   H     0.12521   0.33133   0.78940   0.00000  Uiso   1.00
H588   H     0.27011   0.16530   0.92855   0.00000  Uiso   1.00
H589   H     0.07196   0.19792   0.92327   0.00000  Uiso   1.00
H590   H     0.08899   0.15674   0.53974   0.00000  Uiso   1.00
H591   H     0.04387   0.18108   0.50091   0.00000  Uiso   1.00
H592   H     0.01602   0.19364   0.70911   0.00000  Uiso   1.00
N593   N     0.13211   0.18205   0.58806   0.00000  Uiso   1.00
O594   O     0.16667   0.16667   0.75000   0.00000  Uiso   1.00
O595   O     0.15451   0.12637   0.65459   0.00000  Uiso   1.00
O596   O     0.12940   0.20391   0.84968   0.00000  Uiso   1.00
O597   O     0.20824   0.17759   0.64606   0.00000  Uiso   1.00
O598   O     0.17451   0.15880   0.84968   0.00000  Uiso   1.00
O599   O     0.17930   0.08019   0.78214   0.00000  Uiso   1.00
O600   O     0.14632   0.26085   0.77014   0.00000  Uiso   1.00
O601   O     0.07412   0.13291   0.73413   0.00000  Uiso   1.00
O602   O     0.26693   0.19272   0.71361   0.00000  Uiso   1.00
O603   O     0.07071   0.18878   0.78213   0.00000  Uiso   1.00
O604   O     0.25491   0.15226   0.77014   0.00000  Uiso   1.00
O605   O     0.13760   0.06944   0.73413   0.00000  Uiso   1.00
O606   O     0.20345   0.25620   0.71361   0.00000  Uiso   1.00
Zn607  Zn    0.19338   0.13994   0.78734   0.00000  Uiso   1.00
Zn608  Zn    0.13379   0.12458   0.71876   0.00000  Uiso   1.00
Zn609  Zn    0.21056   0.19775   0.70657   0.00000  Uiso   1.00
Zn610  Zn    0.12893   0.20439   0.78734   0.00000  Uiso   1.00
C611   C     0.38610   0.15985   0.75992   0.00000  Uiso   1.00
C612   C     0.49976   0.16022   0.56057   0.00000  Uiso   1.00
C613   C     0.56490   0.12982   0.55572   0.00000  Uiso   1.00
C614   C     0.61417   0.17387   0.73992   0.00000  Uiso   1.00
C615   C     0.47111   0.18992   0.91983   0.00000  Uiso   1.00
C616   C     0.66013   0.17648   0.73557   0.00000  Uiso   1.00
C617   C     0.34076   0.15769   0.76403   0.00000  Uiso   1.00
C618   C     0.51390   0.32254   0.73635   0.00000  Uiso   1.00
C619   C     0.48530   0.01179   0.76388   0.00000  Uiso   1.00
C620   C     0.48956   0.05591   0.76013   0.00000  Uiso   1.00
C621   C     0.50996   0.27796   0.74012   0.00000  Uiso   1.00
C622   C     0.41135   0.18222   0.98548   0.00000  Uiso   1.00
C623   C     0.51892   0.14830   0.62938   0.00000  Uiso   1.00
C624   C     0.48219   0.18507   0.87073   0.00000  Uiso   1.00
C625   C     0.57936   0.13538   0.51004   0.00000  Uiso   1.00
C626   C     0.52647   0.14359   0.58101   0.00000  Uiso   1.00
C627   C     0.42767   0.19230   0.94155   0.00000  Uiso   1.00
C628   C     0.62293   0.12317   0.98487   0.00000  Uiso   1.00
C629   C     0.56949   0.21185   0.88731   0.00000  Uiso   1.00
C630   C     0.43809   0.16998   0.50833   0.00000  Uiso   1.00
C631   C     0.48307   0.17231   0.98960   0.00000  Uiso   1.00
C632   C     0.50011   0.18335   0.94460   0.00000  Uiso   1.00
C633   C     0.51113   0.16129   0.51336   0.00000  Uiso   1.00
C634   C     0.55334   0.15323   0.98911   0.00000  Uiso   1.00
C635   C     0.56992   0.16647   0.94578   0.00000  Uiso   1.00
C636   C     0.54524   0.18575   0.92569   0.00000  Uiso   1.00
H637   H     0.58520   0.11765   0.57252   0.00000  Uiso   1.00
H638   H     0.64527   0.15131   0.97324   0.00000  Uiso   1.00
H639   H     0.63744   0.10755   0.50615   0.00000  Uiso   1.00
H640   H     0.61981   0.10119   0.95565   0.00000  Uiso   1.00
H641   H     0.44417   0.16152   0.60980   0.00000  Uiso   1.00
H642   H     0.47830   0.20663   0.60705   0.00000  Uiso   1.00
H643   H     0.59696   0.23194   0.89658   0.00000  Uiso   1.00
H644   H     0.58257   0.19148   0.85714   0.00000  Uiso   1.00
H645   H     0.54955   0.23340   0.87956   0.00000  Uiso   1.00
H646   H     0.65216   0.14079   0.79104   0.00000  Uiso   1.00
H647   H     0.54033   0.00376   0.71096   0.00000  Uiso   1.00
H648   H     0.45854   0.33133   0.78940   0.00000  Uiso   1.00
H649   H     0.60345   0.16530   0.92855   0.00000  Uiso   1.00
H650   H     0.40529   0.19792   0.92327   0.00000  Uiso   1.00
H651   H     0.42232   0.15674   0.53974   0.00000  Uiso   1.00
H652   H     0.37720   0.18108   0.50091   0.00000  Uiso   1.00
H653   H     0.34935   0.19364   0.70911   0.00000  Uiso   1.00
N654   N     0.46544   0.18205   0.58806   0.00000  Uiso   1.00
O655   O     0.50000   0.16667   0.75000   0.00000  Uiso   1.00
O656   O     0.48784   0.12637   0.65459   0.00000  Uiso   1.00
O657   O     0.46274   0.20391   0.84968   0.00000  Uiso   1.00
O658   O     0.54157   0.17759   0.64606   0.00000  Uiso   1.00
O659   O     0.50785   0.15880   0.84968   0.00000  Uiso   1.00
O660   O     0.51264   0.08019   0.78214   0.00000  Uiso   1.00
O661   O     0.47965   0.26085   0.77014   0.00000  Uiso   1.00
O662   O     0.40745   0.13291   0.73413   0.00000  Uiso   1.00
O663   O     0.60026   0.19272   0.71361   0.00000  Uiso   1.00
O664   O     0.40405   0.18878   0.78213   0.00000  Uiso   1.00
O665   O     0.58824   0.15226   0.77014   0.00000  Uiso   1.00
O666   O     0.47093   0.06944   0.73413   0.00000  Uiso   1.00
O667   O     0.53678   0.25620   0.71361   0.00000  Uiso   1.00
Zn668  Zn    0.52672   0.13994   0.78734   0.00000  Uiso   1.00
Zn669  Zn    0.46713   0.12458   0.71876   0.00000  Uiso   1.00
Zn670  Zn    0.54389   0.19775   0.70657   0.00000  Uiso   1.00
Zn671  Zn    0.46226   0.20439   0.78734   0.00000  Uiso   1.00
C672   C     0.71943   0.15985   0.75992   0.00000  Uiso   1.00
C673   C     0.83309   0.16022   0.56057   0.00000  Uiso   1.00
C674   C     0.89823   0.12982   0.55572   0.00000  Uiso   1.00
C675   C     0.94750   0.17387   0.73992   0.00000  Uiso   1.00
C676   C     0.80444   0.18992   0.91983   0.00000  Uiso   1.00
C677   C     0.99346   0.17648   0.73557   0.00000  Uiso   1.00
C678   C     0.67409   0.15769   0.76403   0.00000  Uiso   1.00
C679   C     0.84724   0.32254   0.73635   0.00000  Uiso   1.00
C680   C     0.81864   0.01179   0.76388   0.00000  Uiso   1.00
C681   C     0.82289   0.05591   0.76013   0.00000  Uiso   1.00
C682   C     0.84329   0.27796   0.74012   0.00000  Uiso   1.00
C683   C     0.74469   0.18222   0.98548   0.00000  Uiso   1.00
C684   C     0.85225   0.14830   0.62938   0.00000  Uiso   1.00
C685   C     0.81553   0.18507   0.87073   0.00000  Uiso   1.00
C686   C     0.91270   0.13538   0.51004   0.00000  Uiso   1.00
C687   C     0.85980   0.14359   0.58101   0.00000  Uiso   1.00
C688   C     0.76101   0.19230   0.94155   0.00000  Uiso   1.00
C689   C     0.95626   0.12317   0.98487   0.00000  Uiso   1.00
C690   C     0.90282   0.21185   0.88731   0.00000  Uiso   1.00
C691   C     0.77142   0.16998   0.50833   0.00000  Uiso   1.00
C692   C     0.81640   0.17231   0.98960   0.00000  Uiso   1.00
C693   C     0.83344   0.18335   0.94460   0.00000  Uiso   1.00
C694   C     0.84446   0.16129   0.51336   0.00000  Uiso   1.00
C695   C     0.88667   0.15323   0.98911   0.00000  Uiso   1.00
C696   C     0.90326   0.16647   0.94578   0.00000  Uiso   1.00
C697   C     0.87857   0.18575   0.92569   0.00000  Uiso   1.00
H698   H     0.91853   0.11765   0.57252   0.00000  Uiso   1.00
H699   H     0.97860   0.15131   0.97324   0.00000  Uiso   1.00
H700   H     0.97077   0.10755   0.50615   0.00000  Uiso   1.00
H701   H     0.95314   0.10119   0.95565   0.00000  Uiso   1.00
H702   H     0.77751   0.16152   0.60980   0.00000  Uiso   1.00
H703   H     0.81163   0.20663   0.60705   0.00000  Uiso   1.00
H704   H     0.93029   0.23194   0.89658   0.00000  Uiso   1.00
H705   H     0.91591   0.19148   0.85714   0.00000  Uiso   1.00
H706   H     0.88288   0.23340   0.87956   0.00000  Uiso   1.00
H707   H     0.98550   0.14079   0.79104   0.00000  Uiso   1.00
H708   H     0.87367   0.00376   0.71096   0.00000  Uiso   1.00
H709   H     0.79188   0.33133   0.78940   0.00000  Uiso   1.00
H710   H     0.93678   0.16530   0.92855   0.00000  Uiso   1.00
H711   H     0.73863   0.19792   0.92327   0.00000  Uiso   1.00
H712   H     0.75566   0.15674   0.53974   0.00000  Uiso   1.00
H713   H     0.71053   0.18108   0.50091   0.00000  Uiso   1.00
H714   H     0.68269   0.19364   0.70911   0.00000  Uiso   1.00
N715   N     0.79878   0.18205   0.58806   0.00000  Uiso   1.00
O716   O     0.83333   0.16667   0.75000   0.00000  Uiso   1.00
O717   O     0.82118   0.12637   0.65459   0.00000  Uiso   1.00
O718   O     0.79607   0.20391   0.84968   0.00000  Uiso   1.00
O719   O     0.87491   0.17759   0.64606   0.00000  Uiso   1.00
O720   O     0.84118   0.15880   0.84968   0.00000  Uiso   1.00
O721   O     0.84597   0.08019   0.78214   0.00000  Uiso   1.00
O722   O     0.81298   0.26085   0.77014   0.00000  Uiso   1.00
O723   O     0.74078   0.13291   0.73413   0.00000  Uiso   1.00
O724   O     0.93360   0.19272   0.71361   0.00000  Uiso   1.00
O725   O     0.73738   0.18878   0.78213   0.00000  Uiso   1.00
O726   O     0.92158   0.15226   0.77014   0.00000  Uiso   1.00
O727   O     0.80426   0.06944   0.73413   0.00000  Uiso   1.00
O728   O     0.87012   0.25620   0.71361   0.00000  Uiso   1.00
Zn729  Zn    0.86005   0.13994   0.78734   0.00000  Uiso   1.00
Zn730  Zn    0.80046   0.12458   0.71876   0.00000  Uiso   1.00
Zn731  Zn    0.87723   0.19775   0.70657   0.00000  Uiso   1.00
Zn732  Zn    0.79560   0.20439   0.78734   0.00000  Uiso   1.00
C733   C     0.05277   0.49319   0.75992   0.00000  Uiso   1.00
C734   C     0.16642   0.49356   0.56057   0.00000  Uiso   1.00
C735   C     0.23157   0.46315   0.55572   0.00000  Uiso   1.00
C736   C     0.28084   0.50721   0.73992   0.00000  Uiso   1.00
C737   C     0.13778   0.52325   0.91983   0.00000  Uiso   1.00
C738   C     0.32680   0.50981   0.73557   0.00000  Uiso   1.00
C739   C     0.00743   0.49102   0.76403   0.00000  Uiso   1.00
C740   C     0.18057   0.65587   0.73635   0.00000  Uiso   1.00
C741   C     0.15197   0.34512   0.76388   0.00000  Uiso   1.00
C742   C     0.15623   0.38924   0.76013   0.00000  Uiso   1.00
C743   C     0.17663   0.61129   0.74012   0.00000  Uiso   1.00
C744   C     0.07802   0.51556   0.98548   0.00000  Uiso   1.00
C745   C     0.18558   0.48163   0.62938   0.00000  Uiso   1.00
C746   C     0.14886   0.51841   0.87073   0.00000  Uiso   1.00
C747   C     0.24603   0.46872   0.51004   0.00000  Uiso   1.00
C748   C     0.19314   0.47692   0.58101   0.00000  Uiso   1.00
C749   C     0.09434   0.52563   0.94155   0.00000  Uiso   1.00
C750   C     0.28960   0.45651   0.98487   0.00000  Uiso   1.00
C751   C     0.23616   0.54518   0.88731   0.00000  Uiso   1.00
C752   C     0.10476   0.50331   0.50833   0.00000  Uiso   1.00
C753   C     0.14973   0.50564   0.98960   0.00000  Uiso   1.00
C754   C     0.16677   0.51668   0.94460   0.00000  Uiso   1.00
C755   C     0.17779   0.49463   0.51336   0.00000  Uiso   1.00
C756   C     0.22001   0.48657   0.98911   0.00000  Uiso   1.00
C757   C     0.23659   0.49981   0.94578   0.00000  Uiso   1.00
C758   C     0.21190   0.51909   0.92569   0.00000  Uiso   1.00
H759   H     0.25186   0.45098   0.57252   0.00000  Uiso   1.00
H760   H     0.31193   0.48465   0.97324   0.00000  Uiso   1.00
H761   H     0.30410   0.44089   0.50615   0.00000  Uiso   1.00
H762   H     0.28648   0.43452   0.95565   0.00000  Uiso   1.00
H763   H     0.11084   0.49485   0.60980   0.00000  Uiso   1.00
H764   H     0.14497   0.53997   0.60705   0.00000  Uiso   1.00
H765   H     0.26362   0.56527   0.89658   0.00000  Uiso   1.00
H766   H     0.24924   0.52481   0.85714   0.00000  Uiso   1.00
H767   H     0.21622   0.56674   0.87956   0.00000  Uiso   1.00
H768   H     0.31883   0.47412   0.79104   0.00000  Uiso   1.00
H769   H     0.20700   0.33710   0.71096   0.00000  Uiso   1.00
H770   H     0.12521   0.66466   0.78940   0.00000  Uiso   1.00
H771   H     0.27011   0.49863   0.92855   0.00000  Uiso   1.00
H772   H     0.07196   0.53125   0.92327   0.00000  Uiso   1.00
H773   H     0.08899   0.49008   0.53974   0.00000  Uiso   1.00
H774   H     0.04387   0.51442   0.50091   0.00000  Uiso   1.00
H775   H     0.01602   0.52698   0.70911   0.00000  Uiso   1.00
N776   N     0.13211   0.51539   0.58806   0.00000  Uiso   1.00
O777   O     0.16667   0.50000   0.75000   0.00000  Uiso   1.00
O778   O     0.15451   0.45970   0.65459   0.00000  Uiso   1.00
O779   O     0.12940   0.53724   0.84968   0.00000  Uiso   1.00
O780   O     0.20824   0.51092   0.64606   0.00000  Uiso   1.00
O781   O     0.17451   0.49213   0.84968   0.00000  Uiso   1.00
O782   O     0.17930   0.41352   0.78214   0.00000  Uiso   1.00
O783   O     0.14632   0.59418   0.77014   0.00000  Uiso   1.00
O784   O     0.07412   0.46625   0.73413   0.00000  Uiso   1.00
O785   O     0.26693   0.52605   0.71361   0.00000  Uiso   1.00
O786   O     0.07071   0.52211   0.78213   0.00000  Uiso   1.00
O787   O     0.25491   0.48559   0.77014   0.00000  Uiso   1.00
O788   O     0.13760   0.40277   0.73413   0.00000  Uiso   1.00
O789   O     0.20345   0.58953   0.71361   0.00000  Uiso   1.00
Zn790  Zn    0.19338   0.47327   0.78734   0.00000  Uiso   1.00
Zn791  Zn    0.13379   0.45791   0.71876   0.00000  Uiso   1.00
Zn792  Zn    0.21056   0.53109   0.70657   0.00000  Uiso   1.00
Zn793  Zn    0.12893   0.53773   0.78734   0.00000  Uiso   1.00
C794   C     0.38610   0.49319   0.75992   0.00000  Uiso   1.00
C795   C     0.49976   0.49356   0.56057   0.00000  Uiso   1.00
C796   C     0.56490   0.46315   0.55572   0.00000  Uiso   1.00
C797   C     0.61417   0.50721   0.73992   0.00000  Uiso   1.00
C798   C     0.47111   0.52325   0.91983   0.00000  Uiso   1.00
C799   C     0.66013   0.50981   0.73557   0.00000  Uiso   1.00
C800   C     0.34076   0.49102   0.76403   0.00000  Uiso   1.00
C801   C     0.51390   0.65587   0.73635   0.00000  Uiso   1.00
C802   C     0.48530   0.34512   0.76388   0.00000  Uiso   1.00
C803   C     0.48956   0.38924   0.76013   0.00000  Uiso   1.00
C804   C     0.50996   0.61129   0.74012   0.00000  Uiso   1.00
C805   C     0.41135   0.51556   0.98548   0.00000  Uiso   1.00
C806   C     0.51892   0.48163   0.62938   0.00000  Uiso   1.00
C807   C     0.48219   0.51841   0.87073   0.00000  Uiso   1.00
C808   C     0.57936   0.46872   0.51004   0.00000  Uiso   1.00
C809   C     0.52647   0.47692   0.58101   0.00000  Uiso   1.00
C810   C     0.42767   0.52563   0.94155   0.00000  Uiso   1.00
C811   C     0.62293   0.45651   0.98487   0.00000  Uiso   1.00
C812   C     0.56949   0.54518   0.88731   0.00000  Uiso   1.00
C813   C     0.43809   0.50331   0.50833   0.00000  Uiso   1.00
C814   C     0.48307   0.50564   0.98960   0.00000  Uiso   1.00
C815   C     0.50011   0.51668   0.94460   0.00000  Uiso   1.00
C816   C     0.51113   0.49463   0.51336   0.00000  Uiso   1.00
C817   C     0.55334   0.48657   0.98911   0.00000  Uiso   1.00
C818   C     0.56992   0.49981   0.94578   0.00000  Uiso   1.00
C819   C     0.54524   0.51909   0.92569   0.00000  Uiso   1.00
H820   H     0.58520   0.45098   0.57252   0.00000  Uiso   1.00
H821   H     0.64527   0.48465   0.97324   0.00000  Uiso   1.00
H822   H     0.63744   0.44089   0.50615   0.00000  Uiso   1.00
H823   H     0.61981   0.43452   0.95565   0.00000  Uiso   1.00
H824   H     0.44417   0.49485   0.60980   0.00000  Uiso   1.00
H825   H     0.47830   0.53997   0.60705   0.00000  Uiso   1.00
H826   H     0.59696   0.56527   0.89658   0.00000  Uiso   1.00
H827   H     0.58257   0.52481   0.85714   0.00000  Uiso   1.00
H828   H     0.54955   0.56674   0.87956   0.00000  Uiso   1.00
H829   H     0.65216   0.47412   0.79104   0.00000  Uiso   1.00
H830   H     0.54033   0.33710   0.71096   0.00000  Uiso   1.00
H831   H     0.45854   0.66466   0.78940   0.00000  Uiso   1.00
H832   H     0.60345   0.49863   0.92855   0.00000  Uiso   1.00
H833   H     0.40529   0.53125   0.92327   0.00000  Uiso   1.00
H834   H     0.42232   0.49008   0.53974   0.00000  Uiso   1.00
H835   H     0.37720   0.51442   0.50091   0.00000  Uiso   1.00
H836   H     0.34935   0.52698   0.70911   0.00000  Uiso   1.00
N837   N     0.46544   0.51539   0.58806   0.00000  Uiso   1.00
O838   O     0.50000   0.50000   0.75000   0.00000  Uiso   1.00
O839   O     0.48784   0.45970   0.65459   0.00000  Uiso   1.00
O840   O     0.46274   0.53724   0.84968   0.00000  Uiso   1.00
O841   O     0.54157   0.51092   0.64606   0.00000  Uiso   1.00
O842   O     0.50785   0.49213   0.84968   0.00000  Uiso   1.00
O843   O     0.51264   0.41352   0.78214   0.00000  Uiso   1.00
O844   O     0.47965   0.59418   0.77014   0.00000  Uiso   1.00
O845   O     0.40745   0.46625   0.73413   0.00000  Uiso   1.00
O846   O     0.60026   0.52605   0.71361   0.00000  Uiso   1.00
O847   O     0.40405   0.52211   0.78213   0.00000  Uiso   1.00
O848   O     0.58824   0.48559   0.77014   0.00000  Uiso   1.00
O849   O     0.47093   0.40277   0.73413   0.00000  Uiso   1.00
O850   O     0.53678   0.58953   0.71361   0.00000  Uiso   1.00
Zn851  Zn    0.52672   0.47327   0.78734   0.00000  Uiso   1.00
Zn852  Zn    0.46713   0.45791   0.71876   0.00000  Uiso   1.00
Zn853  Zn    0.54389   0.53109   0.70657   0.00000  Uiso   1.00
Zn854  Zn    0.46226   0.53773   0.78734   0.00000  Uiso   1.00
C855   C     0.71943   0.49319   0.75992   0.00000  Uiso   1.00
C856   C     0.83309   0.49356   0.56057   0.00000  Uiso   1.00
C857   C     0.89823   0.46315   0.55572   0.00000  Uiso   1.00
C858   C     0.94750   0.50721   0.73992   0.00000  Uiso   1.00
C859   C     0.80444   0.52325   0.91983   0.00000  Uiso   1.00
C860   C     0.99346   0.50981   0.73557   0.00000  Uiso   1.00
C861   C     0.67409   0.49102   0.76403   0.00000  Uiso   1.00
C862   C     0.84724   0.65587   0.73635   0.00000  Uiso   1.00
C863   C     0.81864   0.34512   0.76388   0.00000  Uiso   1.00
C864   C     0.82289   0.38924   0.76013   0.00000  Uiso   1.00
C865   C     0.84329   0.61129   0.74012   0.00000  Uiso   1.00
C866   C     0.74469   0.51556   0.98548   0.00000  Uiso   1.00
C867   C     0.85225   0.48163   0.62938   0.00000  Uiso   1.00
C868   C     0.81553   0.51841   0.87073   0.00000  Uiso   1.00
C869   C     0.91270   0.46872   0.51004   0.00000  Uiso   1.00
C870   C     0.85980   0.47692   0.58101   0.00000  Uiso   1.00
C871   C     0.76101   0.52563   0.94155   0.00000  Uiso   1.00
C872   C     0.95626   0.45651   0.98487   0.00000  Uiso   1.00
C873   C     0.90282   0.54518   0.88731   0.00000  Uiso   1.00
C874   C     0.77142   0.50331   0.50833   0.00000  Uiso   1.00
C875   C     0.81640   0.50564   0.98960   0.00000  Uiso   1.00
C876   C     0.83344   0.51668   0.94460   0.00000  Uiso   1.00
C877   C     0.84446   0.49463   0.51336   0.00000  Uiso   1.00
C878   C     0.88667   0.48657   0.98911   0.00000  Uiso   1.00
C879   C     0.90326   0.49981   0.94578   0.00000  Uiso   1.00
C880   C     0.87857   0.51909   0.92569   0.00000  Uiso   1.00
H881   H     0.91853   0.45098   0.57252   0.00000  Uiso   1.00
H882   H     0.97860   0.48465   0.97324   0.00000  Uiso   1.00
H883   H     0.97077   0.44089   0.50615   0.00000  Uiso   1.00
H884   H     0.95314   0.43452   0.95565   0.00000  Uiso   1.00
H885   H     0.77751   0.49485   0.60980   0.00000  Uiso   1.00
H886   H     0.81163   0.53997   0.60705   0.00000  Uiso   1.00
H887   H     0.93029   0.56527   0.89658   0.00000  Uiso   1.00
H888   H     0.91591   0.52481   0.85714   0.00000  Uiso   1.00
H889   H     0.88288   0.56674   0.87956   0.00000  Uiso   1.00
H890   H     0.98550   0.47412   0.79104   0.00000  Uiso   1.00
H891   H     0.87367   0.33710   0.71096   0.00000  Uiso   1.00
H892   H     0.79188   0.66466   0.78940   0.00000  Uiso   1.00
H893   H     0.93678   0.49863   0.92855   0.00000  Uiso   1.00
H894   H     0.73863   0.53125   0.92327   0.00000  Uiso   1.00
H895   H     0.75566   0.49008   0.53974   0.00000  Uiso   1.00
H896   H     0.71053   0.51442   0.50091   0.00000  Uiso   1.00
H897   H     0.68269   0.52698   0.70911   0.00000  Uiso   1.00
N898   N     0.79878   0.51539   0.58806   0.00000  Uiso   1.00
O899   O     0.83333   0.50000   0.75000   0.00000  Uiso   1.00
O900   O     0.82118   0.45970   0.65459   0.00000  Uiso   1.00
O901   O     0.79607   0.53724   0.84968   0.00000  Uiso   1.00
O902   O     0.87491   0.51092   0.64606   0.00000  Uiso   1.00
O903   O     0.84118   0.49213   0.84968   0.00000  Uiso   1.00
O904   O     0.84597   0.41352   0.78214   0.00000  Uiso   1.00
O905   O     0.81298   0.59418   0.77014   0.00000  Uiso   1.00
O906   O     0.74078   0.46625   0.73413   0.00000  Uiso   1.00
O907   O     0.93360   0.52605   0.71361   0.00000  Uiso   1.00
O908   O     0.73738   0.52211   0.78213   0.00000  Uiso   1.00
O909   O     0.92158   0.48559   0.77014   0.00000  Uiso   1.00
O910   O     0.80426   0.40277   0.73413   0.00000  Uiso   1.00
O911   O     0.87012   0.58953   0.71361   0.00000  Uiso   1.00
Zn912  Zn    0.86005   0.47327   0.78734   0.00000  Uiso   1.00
Zn913  Zn    0.80046   0.45791   0.71876   0.00000  Uiso   1.00
Zn914  Zn    0.87723   0.53109   0.70657   0.00000  Uiso   1.00
Zn915  Zn    0.79560   0.53773   0.78734   0.00000  Uiso   1.00
C916   C     0.05277   0.82652   0.75992   0.00000  Uiso   1.00
C917   C     0.16642   0.82689   0.56057   0.00000  Uiso   1.00
C918   C     0.23157   0.79648   0.55572   0.00000  Uiso   1.00
C919   C     0.28084   0.84054   0.73992   0.00000  Uiso   1.00
C920   C     0.13778   0.85658   0.91983   0.00000  Uiso   1.00
C921   C     0.32680   0.84314   0.73557   0.00000  Uiso   1.00
C922   C     0.00743   0.82436   0.76403   0.00000  Uiso   1.00
C923   C     0.18057   0.98920   0.73635   0.00000  Uiso   1.00
C924   C     0.15197   0.67846   0.76388   0.00000  Uiso   1.00
C925   C     0.15623   0.72258   0.76013   0.00000  Uiso   1.00
C926   C     0.17663   0.94463   0.74012   0.00000  Uiso   1.00
C927   C     0.07802   0.84889   0.98548   0.00000  Uiso   1.00
C928   C     0.18558   0.81496   0.62938   0.00000  Uiso   1.00
C929   C     0.14886   0.85174   0.87073   0.00000  Uiso   1.00
C930   C     0.24603   0.80205   0.51004   0.00000  Uiso   1.00
C931   C     0.19314   0.81026   0.58101   0.00000  Uiso   1.00
C932   C     0.09434   0.85896   0.94155   0.00000  Uiso   1.00
C933   C     0.28960   0.78984   0.98487   0.00000  Uiso   1.00
C934   C     0.23616   0.87852   0.88731   0.00000  Uiso   1.00
C935   C     0.10476   0.83664   0.50833   0.00000  Uiso   1.00
C936   C     0.14973   0.83898   0.98960   0.00000  Uiso   1.00
C937   C     0.16677   0.85002   0.94460   0.00000  Uiso   1.00
C938   C     0.17779   0.82796   0.51336   0.00000  Uiso   1.00
C939   C     0.22001   0.81990   0.98911   0.00000  Uiso   1.00
C940   C     0.23659   0.83314   0.94578   0.00000  Uiso   1.00
C941   C     0.21190   0.85242   0.92569   0.00000  Uiso   1.00
H942   H     0.25186   0.78432   0.57252   0.00000  Uiso   1.00
H943   H     0.31193   0.81798   0.97324   0.00000  Uiso   1.00
H944   H     0.30410   0.77422   0.50615   0.00000  Uiso   1.00
H945   H     0.28648   0.76785   0.95565   0.00000  Uiso   1.00
H946   H     0.11084   0.82819   0.60980   0.00000  Uiso   1.00
H947   H     0.14497   0.87330   0.60705   0.00000  Uiso   1.00
H948   H     0.26362   0.89861   0.89658   0.00000  Uiso   1.00
H949   H     0.24924   0.85815   0.85714   0.00000  Uiso   1.00
H950   H     0.21622   0.90007   0.87956   0.00000  Uiso   1.00
H951   H     0.31883   0.80746   0.79104   0.00000  Uiso   1.00
H952   H     0.20700   0.67043   0.71096   0.00000  Uiso   1.00
H953   H     0.12521   0.99799   0.78940   0.00000  Uiso   1.00
H954   H     0.27011   0.83196   0.92855   0.00000  Uiso   1.00
H955   H     0.07196   0.86459   0.92327   0.00000  Uiso   1.00
H956   H     0.08899   0.82341   0.53974   0.00000  Uiso   1.00
H957   H     0.04387   0.84775   0.50091   0.00000  Uiso   1.00
H958   H     0.01602   0.86031   0.70911   0.00000  Uiso   1.00
N959   N     0.13211   0.84872   0.58806   0.00000  Uiso   1.00
O960   O     0.16667   0.83333   0.75000   0.00000  Uiso   1.00
O961   O     0.15451   0.79304   0.65459   0.00000  Uiso   1.00
O962   O     0.12940   0.87058   0.84968   0.00000  Uiso   1.00
O963   O     0.20824   0.84425   0.64606   0.00000  Uiso   1.00
O964   O     0.17451   0.82546   0.84968   0.00000  Uiso   1.00
O965   O     0.17930   0.74686   0.78214   0.00000  Uiso   1.00
O966   O     0.14632   0.92751   0.77014   0.00000  Uiso   1.00
O967   O     0.07412   0.79958   0.73413   0.00000  Uiso   1.00
O968   O     0.26693   0.85939   0.71361   0.00000  Uiso   1.00
O969   O     0.07071   0.85544   0.78213   0.00000  Uiso   1.00
O970   O     0.25491   0.81892   0.77014   0.00000  Uiso   1.00
O971   O     0.13760   0.73610   0.73413   0.00000  Uiso   1.00
O972   O     0.20345   0.92286   0.71361   0.00000  Uiso   1.00
Zn973  Zn    0.19338   0.80661   0.78734   0.00000  Uiso   1.00
Zn974  Zn    0.13379   0.79124   0.71876   0.00000  Uiso   1.00
Zn975  Zn    0.21056   0.86442   0.70657   0.00000  Uiso   1.00
Zn976  Zn    0.12893   0.87106   0.78734   0.00000  Uiso   1.00
C977   C     0.38610   0.82652   0.75992   0.00000  Uiso   1.00
C978   C     0.49976   0.82689   0.56057   0.00000  Uiso   1.00
C979   C     0.56490   0.79648   0.55572   0.00000  Uiso   1.00
C980   C     0.61417   0.84054   0.73992   0.00000  Uiso   1.00
C981   C     0.47111   0.85658   0.91983   0.00000  Uiso   1.00
C982   C     0.66013   0.84314   0.73557   0.00000  Uiso   1.00
C983   C     0.34076   0.82436   0.76403   0.00000  Uiso   1.00
C984   C     0.51390   0.98920   0.73635   0.00000  Uiso   1.00
C985   C     0.48530   0.67846   0.76388   0.00000  Uiso   1.00
C986   C     0.48956   0.72258   0.76013   0.00000  Uiso   1.00
C987   C     0.50996   0.94463   0.74012   0.00000  Uiso   1.00
C988   C     0.41135   0.84889   0.98548   0.00000  Uiso   1.00
C989   C     0.51892   0.81496   0.62938   0.00000  Uiso   1.00
C990   C     0.48219   0.85174   0.87073   0.00000  Uiso   1.00
C991   C     0.57936   0.80205   0.51004   0.00000  Uiso   1.00
C992   C     0.52647   0.81026   0.58101   0.00000  Uiso   1.00
C993   C     0.42767   0.85896   0.94155   0.00000  Uiso   1.00
C994   C     0.62293   0.78984   0.98487   0.00000  Uiso   1.00
C995   C     0.56949   0.87852   0.88731   0.00000  Uiso   1.00
C996   C     0.43809   0.83664   0.50833   0.00000  Uiso   1.00
C997   C     0.48307   0.83898   0.98960   0.00000  Uiso   1.00
C998   C     0.50011   0.85002   0.94460   0.00000  Uiso   1.00
C999   C     0.51113   0.82796   0.51336   0.00000  Uiso   1.00
C1000  C     0.55334   0.81990   0.98911   0.00000  Uiso   1.00
C1001  C     0.56992   0.83314   0.94578   0.00000  Uiso   1.00
C1002  C     0.54524   0.85242   0.92569   0.00000  Uiso   1.00
H1003  H     0.58520   0.78432   0.57252   0.00000  Uiso   1.00
H1004  H     0.64527   0.81798   0.97324   0.00000  Uiso   1.00
H1005  H     0.63744   0.77422   0.50615   0.00000  Uiso   1.00
H1006  H     0.61981   0.76785   0.95565   0.00000  Uiso   1.00
H1007  H     0.44417   0.82819   0.60980   0.00000  Uiso   1.00
H1008  H     0.47830   0.87330   0.60705   0.00000  Uiso   1.00
H1009  H     0.59696   0.89861   0.89658   0.00000  Uiso   1.00
H1010  H     0.58257   0.85815   0.85714   0.00000  Uiso   1.00
H1011  H     0.54955   0.90007   0.87956   0.00000  Uiso   1.00
H1012  H     0.65216   0.80746   0.79104   0.00000  Uiso   1.00
H1013  H     0.54033   0.67043   0.71096   0.00000  Uiso   1.00
H1014  H     0.45854   0.99799   0.78940   0.00000  Uiso   1.00
H1015  H     0.60345   0.83196   0.92855   0.00000  Uiso   1.00
H1016  H     0.40529   0.86459   0.92327   0.00000  Uiso   1.00
H1017  H     0.42232   0.82341   0.53974   0.00000  Uiso   1.00
H1018  H     0.37720   0.84775   0.50091   0.00000  Uiso   1.00
H1019  H     0.34935   0.86031   0.70911   0.00000  Uiso   1.00
N1020  N     0.46544   0.84872   0.58806   0.00000  Uiso   1.00
O1021  O     0.50000   0.83333   0.75000   0.00000  Uiso   1.00
O1022  O     0.48784   0.79304   0.65459   0.00000  Uiso   1.00
O1023  O     0.46274   0.87058   0.84968   0.00000  Uiso   1.00
O1024  O     0.54157   0.84425   0.64606   0.00000  Uiso   1.00
O1025  O     0.50785   0.82546   0.84968   0.00000  Uiso   1.00
O1026  O     0.51264   0.74686   0.78214   0.00000  Uiso   1.00
O1027  O     0.47965   0.92751   0.77014   0.00000  Uiso   1.00
O1028  O     0.40745   0.79958   0.73413   0.00000  Uiso   1.00
O1029  O     0.60026   0.85939   0.71361   0.00000  Uiso   1.00
O1030  O     0.40405   0.85544   0.78213   0.00000  Uiso   1.00
O1031  O     0.58824   0.81892   0.77014   0.00000  Uiso   1.00
O1032  O     0.47093   0.73610   0.73413   0.00000  Uiso   1.00
O1033  O     0.53678   0.92286   0.71361   0.00000  Uiso   1.00
Zn1034 Zn    0.52672   0.80661   0.78734   0.00000  Uiso   1.00
Zn1035 Zn    0.46713   0.79124   0.71876   0.00000  Uiso   1.00
Zn1036 Zn    0.54389   0.86442   0.70657   0.00000  Uiso   1.00
Zn1037 Zn    0.46226   0.87106   0.78734   0.00000  Uiso   1.00
C1038  C     0.71943   0.82652   0.75992   0.00000  Uiso   1.00
C1039  C     0.83309   0.82689   0.56057   0.00000  Uiso   1.00
C1040  C     0.89823   0.79648   0.55572   0.00000  Uiso   1.00
C1041  C     0.94750   0.84054   0.73992   0.00000  Uiso   1.00
C1042  C     0.80444   0.85658   0.91983   0.00000  Uiso   1.00
C1043  C     0.99346   0.84314   0.73557   0.00000  Uiso   1.00
C1044  C     0.67409   0.82436   0.76403   0.00000  Uiso   1.00
C1045  C     0.84724   0.98920   0.73635   0.00000  Uiso   1.00
C1046  C     0.81864   0.67846   0.76388   0.00000  Uiso   1.00
C1047  C     0.82289   0.72258   0.76013   0.00000  Uiso   1.00
C1048  C     0.84329   0.94463   0.74012   0.00000  Uiso   1.00
C1049  C     0.74469   0.84889   0.98548   0.00000  Uiso   1.00
C1050  C     0.85225   0.81496   0.62938   0.00000  Uiso   1.00
C1051  C     0.81553   0.85174   0.87073   0.00000  Uiso   1.00
C1052  C     0.91270   0.80205   0.51004   0.00000  Uiso   1.00
C1053  C     0.85980   0.81026   0.58101   0.00000  Uiso   1.00
C1054  C     0.76101   0.85896   0.94155   0.00000  Uiso   1.00
C1055  C     0.95626   0.78984   0.98487   0.00000  Uiso   1.00
C1056  C     0.90282   0.87852   0.88731   0.00000  Uiso   1.00
C1057  C     0.77142   0.83664   0.50833   0.00000  Uiso   1.00
C1058  C     0.81640   0.83898   0.98960   0.00000  Uiso   1.00
C1059  C     0.83344   0.85002   0.94460   0.00000  Uiso   1.00
C1060  C     0.84446   0.82796   0.51336   0.00000  Uiso   1.00
C1061  C     0.88667   0.81990   0.98911   0.00000  Uiso   1.00
C1062  C     0.90326   0.83314   0.94578   0.00000  Uiso   1.00
C1063  C     0.87857   0.85242   0.92569   0.00000  Uiso   1.00
H1064  H     0.91853   0.78432   0.57252   0.00000  Uiso   1.00
H1065  H     0.97860   0.81798   0.97324   0.00000  Uiso   1.00
H1066  H     0.97077   0.77422   0.50615   0.00000  Uiso   1.00
H1067  H     0.95314   0.76785   0.95565   0.00000  Uiso   1.00
H1068  H     0.77751   0.82819   0.60980   0.00000  Uiso   1.00
H1069  H     0.81163   0.87330   0.60705   0.00000  Uiso   1.00
H1070  H     0.93029   0.89861   0.89658   0.00000  Uiso   1.00
H1071  H     0.91591   0.85815   0.85714   0.00000  Uiso   1.00
H1072  H     0.88288   0.90007   0.87956   0.00000  Uiso   1.00
H1073  H     0.98550   0.80746   0.79104   0.00000  Uiso   1.00
H1074  H     0.87367   0.67043   0.71096   0.00000  Uiso   1.00
H1075  H     0.79188   0.99799   0.78940   0.00000  Uiso   1.00
H1076  H     0.93678   0.83196   0.92855   0.00000  Uiso   1.00
H1077  H     0.73863   0.86459   0.92327   0.00000  Uiso   1.00
H1078  H     0.75566   0.82341   0.53974   0.00000  Uiso   1.00
H1079  H     0.71053   0.84775   0.50091   0.00000  Uiso   1.00
H1080  H     0.68269   0.86031   0.70911   0.00000  Uiso   1.00
N1081  N     0.79878   0.84872   0.58806   0.00000  Uiso   1.00
O1082  O     0.83333   0.83333   0.75000   0.00000  Uiso   1.00
O1083  O     0.82118   0.79304   0.65459   0.00000  Uiso   1.00
O1084  O     0.79607   0.87058   0.84968   0.00000  Uiso   1.00
O1085  O     0.87491   0.84425   0.64606   0.00000  Uiso   1.00
O1086  O     0.84118   0.82546   0.84968   0.00000  Uiso   1.00
O1087  O     0.84597   0.74686   0.78214   0.00000  Uiso   1.00
O1088  O     0.81298   0.92751   0.77014   0.00000  Uiso   1.00
O1089  O     0.74078   0.79958   0.73413   0.00000  Uiso   1.00
O1090  O     0.93360   0.85939   0.71361   0.00000  Uiso   1.00
O1091  O     0.73738   0.85544   0.78213   0.00000  Uiso   1.00
O1092  O     0.92158   0.81892   0.77014   0.00000  Uiso   1.00
O1093  O     0.80426   0.73610   0.73413   0.00000  Uiso   1.00
O1094  O     0.87012   0.92286   0.71361   0.00000  Uiso   1.00
Zn1095 Zn    0.86005   0.80661   0.78734   0.00000  Uiso   1.00
Zn1096 Zn    0.80046   0.79124   0.71876   0.00000  Uiso   1.00
Zn1097 Zn    0.87723   0.86442   0.70657   0.00000  Uiso   1.00
Zn1098 Zn    0.79560   0.87106   0.78734   0.00000  Uiso   1.00
loop_
_geom_bond_atom_site_label_1
_geom_bond_atom_site_label_2
_geom_bond_distance
_geom_bond_site_symmetry_2
_ccdc_geom_bond_type
C1     O54     1.271   .     A
C1     O52     1.272   .     A
C1     C7      1.439   .     S
C2     C16     1.403   .     A
C2     N44     1.438   .     S
C2     C23     1.418   .     A
C3     H27     1.085   .     S
C3     C15     1.395   .     A
C3     C16     1.393   .     A
C4     O55     1.278   .     A
C4     O53     1.283   .     A
C4     C6      1.456   .     S
C5     C17     1.403   .     A
C5     C14     1.468   .     S
C5     C22     1.422   .     A
C6     C68     1.336   .     S
C6     H104    1.088   .     S
C7     C128    1.336   1_455 S
C7     H158    1.086   1_455 S
C8     C11     1.451   .     S
C8     C192    1.332   .     S
C8     H220    1.088   .     S
C9     C10     1.436   .     S
C9     C374    1.332   1_545 S
C9     H404    1.086   1_545 S
C10    O56     1.280   .     A
C10    O50     1.280   .     A
C11    O57     1.268   .     A
C11    O51     1.269   .     A
C12    C17     1.383   .     A
C12    C569    1.387   .     S
C12    H591    1.082   .     S
C13    O48     1.269   .     A
C13    O46     1.276   .     A
C13    C16     1.452   .     S
C14    O47     1.278   .     A
C14    O49     1.284   .     A
C15    C567    1.510   1_554 S
C15    C573    1.417   1_554 S
C17    H40     1.084   .     S
C18    H30     1.110   .     S
C18    H28     1.110   .     S
C18    C564    1.510   .     S
C18    H578    1.111   .     S
C19    H35     1.108   .     S
C19    C26     1.512   .     S
C19    H33     1.111   .     S
C19    H34     1.110   .     S
C20    H41     1.077   .     S
C20    C561    1.387   1_554 S
C20    C570    1.416   1_554 S
C21    C22     1.425   .     A
C21    C569    1.416   .     S
C21    C572    1.425   .     S
C22    C26     1.421   .     A
C23    C570    1.425   1_554 S
C23    C573    1.425   1_554 S
C24    C25     1.401   .     A
C24    C564    1.417   .     S
C24    C572    1.425   .     S
C25    C26     1.392   .     A
C25    H39     1.082   .     S
H29    C567    1.111   1_554 S
H31    N44     1.046   .     S
H32    N44     1.046   .     S
H36    C68     1.086   .     S
H37    C374    1.088   1_545 S
H38    C192    1.086   .     S
H42    C561    1.082   1_554 S
H43    C128    1.088   1_455 S
O45    Zn60    1.929   .     S
O45    Zn61    1.930   .     S
O45    Zn58    1.964   .     S
O45    Zn59    1.949   .     S
O46    Zn59    1.932   .     S
O47    Zn61    1.946   .     S
O48    Zn60    1.942   .     S
O49    Zn58    1.929   .     S
O50    Zn58    1.929   .     S
O51    Zn61    1.930   .     S
O52    Zn59    1.924   .     S
O53    Zn60    1.938   .     S
O54    Zn61    1.934   .     S
O55    Zn58    1.921   .     S
O56    Zn59    1.936   .     S
O57    Zn60    1.930   .     S
C62    O115    1.271   .     A
C62    O113    1.272   .     A
C62    C68     1.439   .     S
C63    C77     1.403   .     A
C63    N105    1.438   .     S
C63    C84     1.418   .     A
C64    H88     1.085   .     S
C64    C76     1.395   .     A
C64    C77     1.393   .     A
C65    O116    1.278   .     A
C65    O114    1.283   .     A
C65    C67     1.456   .     S
C66    C78     1.403   .     A
C66    C75     1.468   .     S
C66    C83     1.422   .     A
C67    C129    1.336   .     S
C67    H165    1.088   .     S
C69    C72     1.451   .     S
C69    C253    1.332   .     S
C69    H281    1.088   .     S
C70    C71     1.436   .     S
C70    C435    1.332   1_545 S
C70    H465    1.086   1_545 S
C71    O117    1.280   .     A
C71    O111    1.280   .     A
C72    O118    1.268   .     A
C72    O112    1.269   .     A
C73    C78     1.383   .     A
C73    C630    1.387   .     S
C73    H652    1.082   .     S
C74    O109    1.269   .     A
C74    O107    1.276   .     A
C74    C77     1.452   .     S
C75    O108    1.278   .     A
C75    O110    1.284   .     A
C76    C628    1.510   1_554 S
C76    C634    1.417   1_554 S
C78    H101    1.084   .     S
C79    H91     1.110   .     S
C79    H89     1.110   .     S
C79    C625    1.510   .     S
C79    H639    1.111   .     S
C80    H96     1.108   .     S
C80    C87     1.512   .     S
C80    H94     1.111   .     S
C80    H95     1.110   .     S
C81    H102    1.077   .     S
C81    C622    1.387   1_554 S
C81    C631    1.416   1_554 S
C82    C83     1.425   .     A
C82    C630    1.416   .     S
C82    C633    1.425   .     S
C83    C87     1.421   .     A
C84    C631    1.425   1_554 S
C84    C634    1.425   1_554 S
C85    C86     1.401   .     A
C85    C625    1.417   .     S
C85    C633    1.425   .     S
C86    C87     1.392   .     A
C86    H100    1.082   .     S
H90    C628    1.111   1_554 S
H92    N105    1.046   .     S
H93    N105    1.046   .     S
H97    C129    1.086   .     S
H98    C435    1.088   1_545 S
H99    C253    1.086   .     S
H103   C622    1.082   1_554 S
O106   Zn121   1.929   .     S
O106   Zn122   1.930   .     S
O106   Zn119   1.964   .     S
O106   Zn120   1.949   .     S
O107   Zn120   1.932   .     S
O108   Zn122   1.946   .     S
O109   Zn121   1.942   .     S
O110   Zn119   1.929   .     S
O111   Zn119   1.929   .     S
O112   Zn122   1.930   .     S
O113   Zn120   1.924   .     S
O114   Zn121   1.938   .     S
O115   Zn122   1.934   .     S
O116   Zn119   1.921   .     S
O117   Zn120   1.936   .     S
O118   Zn121   1.930   .     S
C123   O176    1.271   .     A
C123   O174    1.272   .     A
C123   C129    1.439   .     S
C124   C138    1.403   .     A
C124   N166    1.438   .     S
C124   C145    1.418   .     A
C125   H149    1.085   .     S
C125   C137    1.395   .     A
C125   C138    1.393   .     A
C126   O177    1.278   .     A
C126   O175    1.283   .     A
C126   C128    1.456   .     S
C127   C139    1.403   .     A
C127   C136    1.468   .     S
C127   C144    1.422   .     A
C128   C7      1.336   1_655 S
C128   H43     1.088   1_655 S
C130   C133    1.451   .     S
C130   C314    1.332   .     S
C130   H342    1.088   .     S
C131   C132    1.436   .     S
C131   C496    1.332   1_545 S
C131   H526    1.086   1_545 S
C132   O178    1.280   .     A
C132   O172    1.280   .     A
C133   O179    1.268   .     A
C133   O173    1.269   .     A
C134   C139    1.383   .     A
C134   C691    1.387   .     S
C134   H713    1.082   .     S
C135   O170    1.269   .     A
C135   O168    1.276   .     A
C135   C138    1.452   .     S
C136   O169    1.278   .     A
C136   O171    1.284   .     A
C137   C689    1.510   1_554 S
C137   C695    1.417   1_554 S
C139   H162    1.084   .     S
C140   H152    1.110   .     S
C140   H150    1.110   .     S
C140   C686    1.510   .     S
C140   H700    1.111   .     S
C141   H157    1.108   .     S
C141   C148    1.512   .     S
C141   H155    1.111   .     S
C141   H156    1.110   .     S
C142   H163    1.077   .     S
C142   C683    1.387   1_554 S
C142   C692    1.416   1_554 S
C143   C144    1.425   .     A
C143   C691    1.416   .     S
C143   C694    1.425   .     S
C144   C148    1.421   .     A
C145   C692    1.425   1_554 S
C145   C695    1.425   1_554 S
C146   C147    1.401   .     A
C146   C686    1.417   .     S
C146   C694    1.425   .     S
C147   C148    1.392   .     A
C147   H161    1.082   .     S
H151   C689    1.111   1_554 S
H153   N166    1.046   .     S
H154   N166    1.046   .     S
H158   C7      1.086   1_655 S
H159   C496    1.088   1_545 S
H160   C314    1.086   .     S
H164   C683    1.082   1_554 S
O167   Zn182   1.929   .     S
O167   Zn183   1.930   .     S
O167   Zn180   1.964   .     S
O167   Zn181   1.949   .     S
O168   Zn181   1.932   .     S
O169   Zn183   1.946   .     S
O170   Zn182   1.942   .     S
O171   Zn180   1.929   .     S
O172   Zn180   1.929   .     S
O173   Zn183   1.930   .     S
O174   Zn181   1.924   .     S
O175   Zn182   1.938   .     S
O176   Zn183   1.934   .     S
O177   Zn180   1.921   .     S
O178   Zn181   1.936   .     S
O179   Zn182   1.930   .     S
C184   O237    1.271   .     A
C184   O235    1.272   .     A
C184   C190    1.439   .     S
C185   C199    1.403   .     A
C185   N227    1.438   .     S
C185   C206    1.418   .     A
C186   H210    1.085   .     S
C186   C198    1.395   .     A
C186   C199    1.393   .     A
C187   O238    1.278   .     A
C187   O236    1.283   .     A
C187   C189    1.456   .     S
C188   C200    1.403   .     A
C188   C197    1.468   .     S
C188   C205    1.422   .     A
C189   C251    1.336   .     S
C189   H287    1.088   .     S
C190   C311    1.336   1_455 S
C190   H341    1.086   1_455 S
C191   C194    1.451   .     S
C191   C375    1.332   .     S
C191   H403    1.088   .     S
C192   C193    1.436   .     S
C193   O239    1.280   .     A
C193   O233    1.280   .     A
C194   O240    1.268   .     A
C194   O234    1.269   .     A
C195   C200    1.383   .     A
C195   C752    1.387   .     S
C195   H774    1.082   .     S
C196   O231    1.269   .     A
C196   O229    1.276   .     A
C196   C199    1.452   .     S
C197   O230    1.278   .     A
C197   O232    1.284   .     A
C198   C750    1.510   1_554 S
C198   C756    1.417   1_554 S
C200   H223    1.084   .     S
C201   H213    1.110   .     S
C201   H211    1.110   .     S
C201   C747    1.510   .     S
C201   H761    1.111   .     S
C202   H218    1.108   .     S
C202   C209    1.512   .     S
C202   H216    1.111   .     S
C202   H217    1.110   .     S
C203   H224    1.077   .     S
C203   C744    1.387   1_554 S
C203   C753    1.416   1_554 S
C204   C205    1.425   .     A
C204   C752    1.416   .     S
C204   C755    1.425   .     S
C205   C209    1.421   .     A
C206   C753    1.425   1_554 S
C206   C756    1.425   1_554 S
C207   C208    1.401   .     A
C207   C747    1.417   .     S
C207   C755    1.425   .     S
C208   C209    1.392   .     A
C208   H222    1.082   .     S
H212   C750    1.111   1_554 S
H214   N227    1.046   .     S
H215   N227    1.046   .     S
H219   C251    1.086   .     S
H221   C375    1.086   .     S
H225   C744    1.082   1_554 S
H226   C311    1.088   1_455 S
O228   Zn243   1.929   .     S
O228   Zn244   1.930   .     S
O228   Zn241   1.964   .     S
O228   Zn242   1.949   .     S
O229   Zn242   1.932   .     S
O230   Zn244   1.946   .     S
O231   Zn243   1.942   .     S
O232   Zn241   1.929   .     S
O233   Zn241   1.929   .     S
O234   Zn244   1.930   .     S
O235   Zn242   1.924   .     S
O236   Zn243   1.938   .     S
O237   Zn244   1.934   .     S
O238   Zn241   1.921   .     S
O239   Zn242   1.936   .     S
O240   Zn243   1.930   .     S
C245   O298    1.271   .     A
C245   O296    1.272   .     A
C245   C251    1.439   .     S
C246   C260    1.403   .     A
C246   N288    1.438   .     S
C246   C267    1.418   .     A
C247   H271    1.085   .     S
C247   C259    1.395   .     A
C247   C260    1.393   .     A
C248   O299    1.278   .     A
C248   O297    1.283   .     A
C248   C250    1.456   .     S
C249   C261    1.403   .     A
C249   C258    1.468   .     S
C249   C266    1.422   .     A
C250   C312    1.336   .     S
C250   H348    1.088   .     S
C252   C255    1.451   .     S
C252   C436    1.332   .     S
C252   H464    1.088   .     S
C253   C254    1.436   .     S
C254   O300    1.280   .     A
C254   O294    1.280   .     A
C255   O301    1.268   .     A
C255   O295    1.269   .     A
C256   C261    1.383   .     A
C256   C813    1.387   .     S
C256   H835    1.082   .     S
C257   O292    1.269   .     A
C257   O290    1.276   .     A
C257   C260    1.452   .     S
C258   O291    1.278   .     A
C258   O293    1.284   .     A
C259   C811    1.510   1_554 S
C259   C817    1.417   1_554 S
C261   H284    1.084   .     S
C262   H274    1.110   .     S
C262   H272    1.110   .     S
C262   C808    1.510   .     S
C262   H822    1.111   .     S
C263   H279    1.108   .     S
C263   C270    1.512   .     S
C263   H277    1.111   .     S
C263   H278    1.110   .     S
C264   H285    1.077   .     S
C264   C805    1.387   1_554 S
C264   C814    1.416   1_554 S
C265   C266    1.425   .     A
C265   C813    1.416   .     S
C265   C816    1.425   .     S
C266   C270    1.421   .     A
C267   C814    1.425   1_554 S
C267   C817    1.425   1_554 S
C268   C269    1.401   .     A
C268   C808    1.417   .     S
C268   C816    1.425   .     S
C269   C270    1.392   .     A
C269   H283    1.082   .     S
H273   C811    1.111   1_554 S
H275   N288    1.046   .     S
H276   N288    1.046   .     S
H280   C312    1.086   .     S
H282   C436    1.086   .     S
H286   C805    1.082   1_554 S
O289   Zn304   1.929   .     S
O289   Zn305   1.930   .     S
O289   Zn302   1.964   .     S
O289   Zn303   1.949   .     S
O290   Zn303   1.932   .     S
O291   Zn305   1.946   .     S
O292   Zn304   1.942   .     S
O293   Zn302   1.929   .     S
O294   Zn302   1.929   .     S
O295   Zn305   1.930   .     S
O296   Zn303   1.924   .     S
O297   Zn304   1.938   .     S
O298   Zn305   1.934   .     S
O299   Zn302   1.921   .     S
O300   Zn303   1.936   .     S
O301   Zn304   1.930   .     S
C306   O359    1.271   .     A
C306   O357    1.272   .     A
C306   C312    1.439   .     S
C307   C321    1.403   .     A
C307   N349    1.438   .     S
C307   C328    1.418   .     A
C308   H332    1.085   .     S
C308   C320    1.395   .     A
C308   C321    1.393   .     A
C309   O360    1.278   .     A
C309   O358    1.283   .     A
C309   C311    1.456   .     S
C310   C322    1.403   .     A
C310   C319    1.468   .     S
C310   C327    1.422   .     A
C311   C190    1.336   1_655 S
C311   H226    1.088   1_655 S
C313   C316    1.451   .     S
C313   C497    1.332   .     S
C313   H525    1.088   .     S
C314   C315    1.436   .     S
C315   O361    1.280   .     A
C315   O355    1.280   .     A
C316   O362    1.268   .     A
C316   O356    1.269   .     A
C317   C322    1.383   .     A
C317   C874    1.387   .     S
C317   H896    1.082   .     S
C318   O353    1.269   .     A
C318   O351    1.276   .     A
C318   C321    1.452   .     S
C319   O352    1.278   .     A
C319   O354    1.284   .     A
C320   C872    1.510   1_554 S
C320   C878    1.417   1_554 S
C322   H345    1.084   .     S
C323   H335    1.110   .     S
C323   H333    1.110   .     S
C323   C869    1.510   .     S
C323   H883    1.111   .     S
C324   H340    1.108   .     S
C324   C331    1.512   .     S
C324   H338    1.111   .     S
C324   H339    1.110   .     S
C325   H346    1.077   .     S
C325   C866    1.387   1_554 S
C325   C875    1.416   1_554 S
C326   C327    1.425   .     A
C326   C874    1.416   .     S
C326   C877    1.425   .     S
C327   C331    1.421   .     A
C328   C875    1.425   1_554 S
C328   C878    1.425   1_554 S
C329   C330    1.401   .     A
C329   C869    1.417   .     S
C329   C877    1.425   .     S
C330   C331    1.392   .     A
C330   H344    1.082   .     S
H334   C872    1.111   1_554 S
H336   N349    1.046   .     S
H337   N349    1.046   .     S
H341   C190    1.086   1_655 S
H343   C497    1.086   .     S
H347   C866    1.082   1_554 S
O350   Zn365   1.929   .     S
O350   Zn366   1.930   .     S
O350   Zn363   1.964   .     S
O350   Zn364   1.949   .     S
O351   Zn364   1.932   .     S
O352   Zn366   1.946   .     S
O353   Zn365   1.942   .     S
O354   Zn363   1.929   .     S
O355   Zn363   1.929   .     S
O356   Zn366   1.930   .     S
O357   Zn364   1.924   .     S
O358   Zn365   1.938   .     S
O359   Zn366   1.934   .     S
O360   Zn363   1.921   .     S
O361   Zn364   1.936   .     S
O362   Zn365   1.930   .     S
C367   O420    1.271   .     A
C367   O418    1.272   .     A
C367   C373    1.439   .     S
C368   C382    1.403   .     A
C368   N410    1.438   .     S
C368   C389    1.418   .     A
C369   H393    1.085   .     S
C369   C381    1.395   .     A
C369   C382    1.393   .     A
C370   O421    1.278   .     A
C370   O419    1.283   .     A
C370   C372    1.456   .     S
C371   C383    1.403   .     A
C371   C380    1.468   .     S
C371   C388    1.422   .     A
C372   C434    1.336   .     S
C372   H470    1.088   .     S
C373   C494    1.336   1_455 S
C373   H524    1.086   1_455 S
C374   C377    1.451   .     S
C374   C9      1.332   1_565 S
C374   H37     1.088   1_565 S
C375   C376    1.436   .     S
C376   O422    1.280   .     A
C376   O416    1.280   .     A
C377   O423    1.268   .     A
C377   O417    1.269   .     A
C378   C383    1.383   .     A
C378   C935    1.387   .     S
C378   H957    1.082   .     S
C379   O414    1.269   .     A
C379   O412    1.276   .     A
C379   C382    1.452   .     S
C380   O413    1.278   .     A
C380   O415    1.284   .     A
C381   C933    1.510   1_554 S
C381   C939    1.417   1_554 S
C383   H406    1.084   .     S
C384   H396    1.110   .     S
C384   H394    1.110   .     S
C384   C930    1.510   .     S
C384   H944    1.111   .     S
C385   H401    1.108   .     S
C385   C392    1.512   .     S
C385   H399    1.111   .     S
C385   H400    1.110   .     S
C386   H407    1.077   .     S
C386   C927    1.387   1_554 S
C386   C936    1.416   1_554 S
C387   C388    1.425   .     A
C387   C935    1.416   .     S
C387   C938    1.425   .     S
C388   C392    1.421   .     A
C389   C936    1.425   1_554 S
C389   C939    1.425   1_554 S
C390   C391    1.401   .     A
C390   C930    1.417   .     S
C390   C938    1.425   .     S
C391   C392    1.392   .     A
C391   H405    1.082   .     S
H395   C933    1.111   1_554 S
H397   N410    1.046   .     S
H398   N410    1.046   .     S
H402   C434    1.086   .     S
H404   C9      1.086   1_565 S
H408   C927    1.082   1_554 S
H409   C494    1.088   1_455 S
O411   Zn426   1.929   .     S
O411   Zn427   1.930   .     S
O411   Zn424   1.964   .     S
O411   Zn425   1.949   .     S
O412   Zn425   1.932   .     S
O413   Zn427   1.946   .     S
O414   Zn426   1.942   .     S
O415   Zn424   1.929   .     S
O416   Zn424   1.929   .     S
O417   Zn427   1.930   .     S
O418   Zn425   1.924   .     S
O419   Zn426   1.938   .     S
O420   Zn427   1.934   .     S
O421   Zn424   1.921   .     S
O422   Zn425   1.936   .     S
O423   Zn426   1.930   .     S
C428   O481    1.271   .     A
C428   O479    1.272   .     A
C428   C434    1.439   .     S
C429   C443    1.403   .     A
C429   N471    1.438   .     S
C429   C450    1.418   .     A
C430   H454    1.085   .     S
C430   C442    1.395   .     A
C430   C443    1.393   .     A
C431   O482    1.278   .     A
C431   O480    1.283   .     A
C431   C433    1.456   .     S
C432   C444    1.403   .     A
C432   C441    1.468   .     S
C432   C449    1.422   .     A
C433   C495    1.336   .     S
C433   H531    1.088   .     S
C435   C438    1.451   .     S
C435   C70     1.332   1_565 S
C435   H98     1.088   1_565 S
C436   C437    1.436   .     S
C437   O483    1.280   .     A
C437   O477    1.280   .     A
C438   O484    1.268   .     A
C438   O478    1.269   .     A
C439   C444    1.383   .     A
C439   C996    1.387   .     S
C439   H1018   1.082   .     S
C440   O475    1.269   .     A
C440   O473    1.276   .     A
C440   C443    1.452   .     S
C441   O474    1.278   .     A
C441   O476    1.284   .     A
C442   C994    1.510   1_554 S
C442   C1000   1.417   1_554 S
C444   H467    1.084   .     S
C445   H457    1.110   .     S
C445   H455    1.110   .     S
C445   C991    1.510   .     S
C445   H1005   1.111   .     S
C446   H462    1.108   .     S
C446   C453    1.512   .     S
C446   H460    1.111   .     S
C446   H461    1.110   .     S
C447   H468    1.077   .     S
C447   C988    1.387   1_554 S
C447   C997    1.416   1_554 S
C448   C449    1.425   .     A
C448   C996    1.416   .     S
C448   C999    1.425   .     S
C449   C453    1.421   .     A
C450   C997    1.425   1_554 S
C450   C1000   1.425   1_554 S
C451   C452    1.401   .     A
C451   C991    1.417   .     S
C451   C999    1.425   .     S
C452   C453    1.392   .     A
C452   H466    1.082   .     S
H456   C994    1.111   1_554 S
H458   N471    1.046   .     S
H459   N471    1.046   .     S
H463   C495    1.086   .     S
H465   C70     1.086   1_565 S
H469   C988    1.082   1_554 S
O472   Zn487   1.929   .     S
O472   Zn488   1.930   .     S
O472   Zn485   1.964   .     S
O472   Zn486   1.949   .     S
O473   Zn486   1.932   .     S
O474   Zn488   1.946   .     S
O475   Zn487   1.942   .     S
O476   Zn485   1.929   .     S
O477   Zn485   1.929   .     S
O478   Zn488   1.930   .     S
O479   Zn486   1.924   .     S
O480   Zn487   1.938   .     S
O481   Zn488   1.934   .     S
O482   Zn485   1.921   .     S
O483   Zn486   1.936   .     S
O484   Zn487   1.930   .     S
C489   O542    1.271   .     A
C489   O540    1.272   .     A
C489   C495    1.439   .     S
C490   C504    1.403   .     A
C490   N532    1.438   .     S
C490   C511    1.418   .     A
C491   H515    1.085   .     S
C491   C503    1.395   .     A
C491   C504    1.393   .     A
C492   O543    1.278   .     A
C492   O541    1.283   .     A
C492   C494    1.456   .     S
C493   C505    1.403   .     A
C493   C502    1.468   .     S
C493   C510    1.422   .     A
C494   C373    1.336   1_655 S
C494   H409    1.088   1_655 S
C496   C499    1.451   .     S
C496   C131    1.332   1_565 S
C496   H159    1.088   1_565 S
C497   C498    1.436   .     S
C498   O544    1.280   .     A
C498   O538    1.280   .     A
C499   O545    1.268   .     A
C499   O539    1.269   .     A
C500   C505    1.383   .     A
C500   C1057   1.387   .     S
C500   H1079   1.082   .     S
C501   O536    1.269   .     A
C501   O534    1.276   .     A
C501   C504    1.452   .     S
C502   O535    1.278   .     A
C502   O537    1.284   .     A
C503   C1055   1.510   1_554 S
C503   C1061   1.417   1_554 S
C505   H528    1.084   .     S
C506   H518    1.110   .     S
C506   H516    1.110   .     S
C506   C1052   1.510   .     S
C506   H1066   1.111   .     S
C507   H523    1.108   .     S
C507   C514    1.512   .     S
C507   H521    1.111   .     S
C507   H522    1.110   .     S
C508   H529    1.077   .     S
C508   C1049   1.387   1_554 S
C508   C1058   1.416   1_554 S
C509   C510    1.425   .     A
C509   C1057   1.416   .     S
C509   C1060   1.425   .     S
C510   C514    1.421   .     A
C511   C1058   1.425   1_554 S
C511   C1061   1.425   1_554 S
C512   C513    1.401   .     A
C512   C1052   1.417   .     S
C512   C1060   1.425   .     S
C513   C514    1.392   .     A
C513   H527    1.082   .     S
H517   C1055   1.111   1_554 S
H519   N532    1.046   .     S
H520   N532    1.046   .     S
H524   C373    1.086   1_655 S
H526   C131    1.086   1_565 S
H530   C1049   1.082   1_554 S
O533   Zn548   1.929   .     S
O533   Zn549   1.930   .     S
O533   Zn546   1.964   .     S
O533   Zn547   1.949   .     S
O534   Zn547   1.932   .     S
O535   Zn549   1.946   .     S
O536   Zn548   1.942   .     S
O537   Zn546   1.929   .     S
O538   Zn546   1.929   .     S
O539   Zn549   1.930   .     S
O540   Zn547   1.924   .     S
O541   Zn548   1.938   .     S
O542   Zn549   1.934   .     S
O543   Zn546   1.921   .     S
O544   Zn547   1.936   .     S
O545   Zn548   1.930   .     S
C550   O603    1.271   .     A
C550   O601    1.272   .     A
C550   C556    1.439   .     S
C551   C565    1.403   .     A
C551   N593    1.438   .     S
C551   C572    1.418   .     A
C552   H576    1.085   .     S
C552   C564    1.395   .     A
C552   C565    1.393   .     A
C553   O604    1.278   .     A
C553   O602    1.283   .     A
C553   C555    1.456   .     S
C554   C566    1.403   .     A
C554   C563    1.468   .     S
C554   C571    1.422   .     A
C555   C617    1.336   .     S
C555   H653    1.088   .     S
C556   C677    1.336   1_455 S
C556   H707    1.086   1_455 S
C557   C560    1.451   .     S
C557   C741    1.332   .     S
C557   H769    1.088   .     S
C558   C559    1.436   .     S
C558   C923    1.332   1_545 S
C558   H953    1.086   1_545 S
C559   O605    1.280   .     A
C559   O599    1.280   .     A
C560   O606    1.268   .     A
C560   O600    1.269   .     A
C561   C566    1.383   .     A
C561   C20     1.387   1_556 S
C561   H42     1.082   1_556 S
C562   O597    1.269   .     A
C562   O595    1.276   .     A
C562   C565    1.452   .     S
C563   O596    1.278   .     A
C563   O598    1.284   .     A
C566   H589    1.084   .     S
C567   H579    1.110   .     S
C567   H577    1.110   .     S
C567   C15     1.510   1_556 S
C567   H29     1.111   1_556 S
C568   H584    1.108   .     S
C568   C575    1.512   .     S
C568   H582    1.111   .     S
C568   H583    1.110   .     S
C569   H590    1.077   .     S
C570   C571    1.425   .     A
C570   C20     1.416   1_556 S
C570   C23     1.425   1_556 S
C571   C575    1.421   .     A
C573   C574    1.401   .     A
C573   C15     1.417   1_556 S
C573   C23     1.425   1_556 S
C574   C575    1.392   .     A
C574   H588    1.082   .     S
H580   N593    1.046   .     S
H581   N593    1.046   .     S
H585   C617    1.086   .     S
H586   C923    1.088   1_545 S
H587   C741    1.086   .     S
H592   C677    1.088   1_455 S
O594   Zn609   1.929   .     S
O594   Zn610   1.930   .     S
O594   Zn607   1.964   .     S
O594   Zn608   1.949   .     S
O595   Zn608   1.932   .     S
O596   Zn610   1.946   .     S
O597   Zn609   1.942   .     S
O598   Zn607   1.929   .     S
O599   Zn607   1.929   .     S
O600   Zn610   1.930   .     S
O601   Zn608   1.924   .     S
O602   Zn609   1.938   .     S
O603   Zn610   1.934   .     S
O604   Zn607   1.921   .     S
O605   Zn608   1.936   .     S
O606   Zn609   1.930   .     S
C611   O664    1.271   .     A
C611   O662    1.272   .     A
C611   C617    1.439   .     S
C612   C626    1.403   .     A
C612   N654    1.438   .     S
C612   C633    1.418   .     A
C613   H637    1.085   .     S
C613   C625    1.395   .     A
C613   C626    1.393   .     A
C614   O665    1.278   .     A
C614   O663    1.283   .     A
C614   C616    1.456   .     S
C615   C627    1.403   .     A
C615   C624    1.468   .     S
C615   C632    1.422   .     A
C616   C678    1.336   .     S
C616   H714    1.088   .     S
C618   C621    1.451   .     S
C618   C802    1.332   .     S
C618   H830    1.088   .     S
C619   C620    1.436   .     S
C619   C984    1.332   1_545 S
C619   H1014   1.086   1_545 S
C620   O666    1.280   .     A
C620   O660    1.280   .     A
C621   O667    1.268   .     A
C621   O661    1.269   .     A
C622   C627    1.383   .     A
C622   C81     1.387   1_556 S
C622   H103    1.082   1_556 S
C623   O658    1.269   .     A
C623   O656    1.276   .     A
C623   C626    1.452   .     S
C624   O657    1.278   .     A
C624   O659    1.284   .     A
C627   H650    1.084   .     S
C628   H640    1.110   .     S
C628   H638    1.110   .     S
C628   C76     1.510   1_556 S
C628   H90     1.111   1_556 S
C629   H645    1.108   .     S
C629   C636    1.512   .     S
C629   H643    1.111   .     S
C629   H644    1.110   .     S
C630   H651    1.077   .     S
C631   C632    1.425   .     A
C631   C81     1.416   1_556 S
C631   C84     1.425   1_556 S
C632   C636    1.421   .     A
C634   C635    1.401   .     A
C634   C76     1.417   1_556 S
C634   C84     1.425   1_556 S
C635   C636    1.392   .     A
C635   H649    1.082   .     S
H641   N654    1.046   .     S
H642   N654    1.046   .     S
H646   C678    1.086   .     S
H647   C984    1.088   1_545 S
H648   C802    1.086   .     S
O655   Zn670   1.929   .     S
O655   Zn671   1.930   .     S
O655   Zn668   1.964   .     S
O655   Zn669   1.949   .     S
O656   Zn669   1.932   .     S
O657   Zn671   1.946   .     S
O658   Zn670   1.942   .     S
O659   Zn668   1.929   .     S
O660   Zn668   1.929   .     S
O661   Zn671   1.930   .     S
O662   Zn669   1.924   .     S
O663   Zn670   1.938   .     S
O664   Zn671   1.934   .     S
O665   Zn668   1.921   .     S
O666   Zn669   1.936   .     S
O667   Zn670   1.930   .     S
C672   O725    1.271   .     A
C672   O723    1.272   .     A
C672   C678    1.439   .     S
C673   C687    1.403   .     A
C673   N715    1.438   .     S
C673   C694    1.418   .     A
C674   H698    1.085   .     S
C674   C686    1.395   .     A
C674   C687    1.393   .     A
C675   O726    1.278   .     A
C675   O724    1.283   .     A
C675   C677    1.456   .     S
C676   C688    1.403   .     A
C676   C685    1.468   .     S
C676   C693    1.422   .     A
C677   C556    1.336   1_655 S
C677   H592    1.088   1_655 S
C679   C682    1.451   .     S
C679   C863    1.332   .     S
C679   H891    1.088   .     S
C680   C681    1.436   .     S
C680   C1045   1.332   1_545 S
C680   H1075   1.086   1_545 S
C681   O727    1.280   .     A
C681   O721    1.280   .     A
C682   O728    1.268   .     A
C682   O722    1.269   .     A
C683   C688    1.383   .     A
C683   C142    1.387   1_556 S
C683   H164    1.082   1_556 S
C684   O719    1.269   .     A
C684   O717    1.276   .     A
C684   C687    1.452   .     S
C685   O718    1.278   .     A
C685   O720    1.284   .     A
C688   H711    1.084   .     S
C689   H701    1.110   .     S
C689   H699    1.110   .     S
C689   C137    1.510   1_556 S
C689   H151    1.111   1_556 S
C690   H706    1.108   .     S
C690   C697    1.512   .     S
C690   H704    1.111   .     S
C690   H705    1.110   .     S
C691   H712    1.077   .     S
C692   C693    1.425   .     A
C692   C142    1.416   1_556 S
C692   C145    1.425   1_556 S
C693   C697    1.421   .     A
C695   C696    1.401   .     A
C695   C137    1.417   1_556 S
C695   C145    1.425   1_556 S
C696   C697    1.392   .     A
C696   H710    1.082   .     S
H702   N715    1.046   .     S
H703   N715    1.046   .     S
H707   C556    1.086   1_655 S
H708   C1045   1.088   1_545 S
H709   C863    1.086   .     S
O716   Zn731   1.929   .     S
O716   Zn732   1.930   .     S
O716   Zn729   1.964   .     S
O716   Zn730   1.949   .     S
O717   Zn730   1.932   .     S
O718   Zn732   1.946   .     S
O719   Zn731   1.942   .     S
O720   Zn729   1.929   .     S
O721   Zn729   1.929   .     S
O722   Zn732   1.930   .     S
O723   Zn730   1.924   .     S
O724   Zn731   1.938   .     S
O725   Zn732   1.934   .     S
O726   Zn729   1.921   .     S
O727   Zn730   1.936   .     S
O728   Zn731   1.930   .     S
C733   O786    1.271   .     A
C733   O784    1.272   .     A
C733   C739    1.439   .     S
C734   C748    1.403   .     A
C734   N776    1.438   .     S
C734   C755    1.418   .     A
C735   H759    1.085   .     S
C735   C747    1.395   .     A
C735   C748    1.393   .     A
C736   O787    1.278   .     A
C736   O785    1.283   .     A
C736   C738    1.456   .     S
C737   C749    1.403   .     A
C737   C746    1.468   .     S
C737   C754    1.422   .     A
C738   C800    1.336   .     S
C738   H836    1.088   .     S
C739   C860    1.336   1_455 S
C739   H890    1.086   1_455 S
C740   C743    1.451   .     S
C740   C924    1.332   .     S
C740   H952    1.088   .     S
C741   C742    1.436   .     S
C742   O788    1.280   .     A
C742   O782    1.280   .     A
C743   O789    1.268   .     A
C743   O783    1.269   .     A
C744   C749    1.383   .     A
C744   C203    1.387   1_556 S
C744   H225    1.082   1_556 S
C745   O780    1.269   .     A
C745   O778    1.276   .     A
C745   C748    1.452   .     S
C746   O779    1.278   .     A
C746   O781    1.284   .     A
C749   H772    1.084   .     S
C750   H762    1.110   .     S
C750   H760    1.110   .     S
C750   C198    1.510   1_556 S
C750   H212    1.111   1_556 S
C751   H767    1.108   .     S
C751   C758    1.512   .     S
C751   H765    1.111   .     S
C751   H766    1.110   .     S
C752   H773    1.077   .     S
C753   C754    1.425   .     A
C753   C203    1.416   1_556 S
C753   C206    1.425   1_556 S
C754   C758    1.421   .     A
C756   C757    1.401   .     A
C756   C198    1.417   1_556 S
C756   C206    1.425   1_556 S
C757   C758    1.392   .     A
C757   H771    1.082   .     S
H763   N776    1.046   .     S
H764   N776    1.046   .     S
H768   C800    1.086   .     S
H770   C924    1.086   .     S
H775   C860    1.088   1_455 S
O777   Zn792   1.929   .     S
O777   Zn793   1.930   .     S
O777   Zn790   1.964   .     S
O777   Zn791   1.949   .     S
O778   Zn791   1.932   .     S
O779   Zn793   1.946   .     S
O780   Zn792   1.942   .     S
O781   Zn790   1.929   .     S
O782   Zn790   1.929   .     S
O783   Zn793   1.930   .     S
O784   Zn791   1.924   .     S
O785   Zn792   1.938   .     S
O786   Zn793   1.934   .     S
O787   Zn790   1.921   .     S
O788   Zn791   1.936   .     S
O789   Zn792   1.930   .     S
C794   O847    1.271   .     A
C794   O845    1.272   .     A
C794   C800    1.439   .     S
C795   C809    1.403   .     A
C795   N837    1.438   .     S
C795   C816    1.418   .     A
C796   H820    1.085   .     S
C796   C808    1.395   .     A
C796   C809    1.393   .     A
C797   O848    1.278   .     A
C797   O846    1.283   .     A
C797   C799    1.456   .     S
C798   C810    1.403   .     A
C798   C807    1.468   .     S
C798   C815    1.422   .     A
C799   C861    1.336   .     S
C799   H897    1.088   .     S
C801   C804    1.451   .     S
C801   C985    1.332   .     S
C801   H1013   1.088   .     S
C802   C803    1.436   .     S
C803   O849    1.280   .     A
C803   O843    1.280   .     A
C804   O850    1.268   .     A
C804   O844    1.269   .     A
C805   C810    1.383   .     A
C805   C264    1.387   1_556 S
C805   H286    1.082   1_556 S
C806   O841    1.269   .     A
C806   O839    1.276   .     A
C806   C809    1.452   .     S
C807   O840    1.278   .     A
C807   O842    1.284   .     A
C810   H833    1.084   .     S
C811   H823    1.110   .     S
C811   H821    1.110   .     S
C811   C259    1.510   1_556 S
C811   H273    1.111   1_556 S
C812   H828    1.108   .     S
C812   C819    1.512   .     S
C812   H826    1.111   .     S
C812   H827    1.110   .     S
C813   H834    1.077   .     S
C814   C815    1.425   .     A
C814   C264    1.416   1_556 S
C814   C267    1.425   1_556 S
C815   C819    1.421   .     A
C817   C818    1.401   .     A
C817   C259    1.417   1_556 S
C817   C267    1.425   1_556 S
C818   C819    1.392   .     A
C818   H832    1.082   .     S
H824   N837    1.046   .     S
H825   N837    1.046   .     S
H829   C861    1.086   .     S
H831   C985    1.086   .     S
O838   Zn853   1.929   .     S
O838   Zn854   1.930   .     S
O838   Zn851   1.964   .     S
O838   Zn852   1.949   .     S
O839   Zn852   1.932   .     S
O840   Zn854   1.946   .     S
O841   Zn853   1.942   .     S
O842   Zn851   1.929   .     S
O843   Zn851   1.929   .     S
O844   Zn854   1.930   .     S
O845   Zn852   1.924   .     S
O846   Zn853   1.938   .     S
O847   Zn854   1.934   .     S
O848   Zn851   1.921   .     S
O849   Zn852   1.936   .     S
O850   Zn853   1.930   .     S
C855   O908    1.271   .     A
C855   O906    1.272   .     A
C855   C861    1.439   .     S
C856   C870    1.403   .     A
C856   N898    1.438   .     S
C856   C877    1.418   .     A
C857   H881    1.085   .     S
C857   C869    1.395   .     A
C857   C870    1.393   .     A
C858   O909    1.278   .     A
C858   O907    1.283   .     A
C858   C860    1.456   .     S
C859   C871    1.403   .     A
C859   C868    1.468   .     S
C859   C876    1.422   .     A
C860   C739    1.336   1_655 S
C860   H775    1.088   1_655 S
C862   C865    1.451   .     S
C862   C1046   1.332   .     S
C862   H1074   1.088   .     S
C863   C864    1.436   .     S
C864   O910    1.280   .     A
C864   O904    1.280   .     A
C865   O911    1.268   .     A
C865   O905    1.269   .     A
C866   C871    1.383   .     A
C866   C325    1.387   1_556 S
C866   H347    1.082   1_556 S
C867   O902    1.269   .     A
C867   O900    1.276   .     A
C867   C870    1.452   .     S
C868   O901    1.278   .     A
C868   O903    1.284   .     A
C871   H894    1.084   .     S
C872   H884    1.110   .     S
C872   H882    1.110   .     S
C872   C320    1.510   1_556 S
C872   H334    1.111   1_556 S
C873   H889    1.108   .     S
C873   C880    1.512   .     S
C873   H887    1.111   .     S
C873   H888    1.110   .     S
C874   H895    1.077   .     S
C875   C876    1.425   .     A
C875   C325    1.416   1_556 S
C875   C328    1.425   1_556 S
C876   C880    1.421   .     A
C878   C879    1.401   .     A
C878   C320    1.417   1_556 S
C878   C328    1.425   1_556 S
C879   C880    1.392   .     A
C879   H893    1.082   .     S
H885   N898    1.046   .     S
H886   N898    1.046   .     S
H890   C739    1.086   1_655 S
H892   C1046   1.086   .     S
O899   Zn914   1.929   .     S
O899   Zn915   1.930   .     S
O899   Zn912   1.964   .     S
O899   Zn913   1.949   .     S
O900   Zn913   1.932   .     S
O901   Zn915   1.946   .     S
O902   Zn914   1.942   .     S
O903   Zn912   1.929   .     S
O904   Zn912   1.929   .     S
O905   Zn915   1.930   .     S
O906   Zn913   1.924   .     S
O907   Zn914   1.938   .     S
O908   Zn915   1.934   .     S
O909   Zn912   1.921   .     S
O910   Zn913   1.936   .     S
O911   Zn914   1.930   .     S
C916   O969    1.271   .     A
C916   O967    1.272   .     A
C916   C922    1.439   .     S
C917   C931    1.403   .     A
C917   N959    1.438   .     S
C917   C938    1.418   .     A
C918   H942    1.085   .     S
C918   C930    1.395   .     A
C918   C931    1.393   .     A
C919   O970    1.278   .     A
C919   O968    1.283   .     A
C919   C921    1.456   .     S
C920   C932    1.403   .     A
C920   C929    1.468   .     S
C920   C937    1.422   .     A
C921   C983    1.336   .     S
C921   H1019   1.088   .     S
C922   C1043   1.336   1_455 S
C922   H1073   1.086   1_455 S
C923   C926    1.451   .     S
C923   C558    1.332   1_565 S
C923   H586    1.088   1_565 S
C924   C925    1.436   .     S
C925   O971    1.280   .     A
C925   O965    1.280   .     A
C926   O972    1.268   .     A
C926   O966    1.269   .     A
C927   C932    1.383   .     A
C927   C386    1.387   1_556 S
C927   H408    1.082   1_556 S
C928   O963    1.269   .     A
C928   O961    1.276   .     A
C928   C931    1.452   .     S
C929   O962    1.278   .     A
C929   O964    1.284   .     A
C932   H955    1.084   .     S
C933   H945    1.110   .     S
C933   H943    1.110   .     S
C933   C381    1.510   1_556 S
C933   H395    1.111   1_556 S
C934   H950    1.108   .     S
C934   C941    1.512   .     S
C934   H948    1.111   .     S
C934   H949    1.110   .     S
C935   H956    1.077   .     S
C936   C937    1.425   .     A
C936   C386    1.416   1_556 S
C936   C389    1.425   1_556 S
C937   C941    1.421   .     A
C939   C940    1.401   .     A
C939   C381    1.417   1_556 S
C939   C389    1.425   1_556 S
C940   C941    1.392   .     A
C940   H954    1.082   .     S
H946   N959    1.046   .     S
H947   N959    1.046   .     S
H951   C983    1.086   .     S
H953   C558    1.086   1_565 S
H958   C1043   1.088   1_455 S
O960   Zn975   1.929   .     S
O960   Zn976   1.930   .     S
O960   Zn973   1.964   .     S
O960   Zn974   1.949   .     S
O961   Zn974   1.932   .     S
O962   Zn976   1.946   .     S
O963   Zn975   1.942   .     S
O964   Zn973   1.929   .     S
O965   Zn973   1.929   .     S
O966   Zn976   1.930   .     S
O967   Zn974   1.924   .     S
O968   Zn975   1.938   .     S
O969   Zn976   1.934   .     S
O970   Zn973   1.921   .     S
O971   Zn974   1.936   .     S
O972   Zn975   1.930   .     S
C977   O1030   1.271   .     A
C977   O1028   1.272   .     A
C977   C983    1.439   .     S
C978   C992    1.403   .     A
C978   N1020   1.438   .     S
C978   C999    1.418   .     A
C979   H1003   1.085   .     S
C979   C991    1.395   .     A
C979   C992    1.393   .     A
C980   O1031   1.278   .     A
C980   O1029   1.283   .     A
C980   C982    1.456   .     S
C981   C993    1.403   .     A
C981   C990    1.468   .     S
C981   C998    1.422   .     A
C982   C1044   1.336   .     S
C982   H1080   1.088   .     S
C984   C987    1.451   .     S
C984   C619    1.332   1_565 S
C984   H647    1.088   1_565 S
C985   C986    1.436   .     S
C986   O1032   1.280   .     A
C986   O1026   1.280   .     A
C987   O1033   1.268   .     A
C987   O1027   1.269   .     A
C988   C993    1.383   .     A
C988   C447    1.387   1_556 S
C988   H469    1.082   1_556 S
C989   O1024   1.269   .     A
C989   O1022   1.276   .     A
C989   C992    1.452   .     S
C990   O1023   1.278   .     A
C990   O1025   1.284   .     A
C993   H1016   1.084   .     S
C994   H1006   1.110   .     S
C994   H1004   1.110   .     S
C994   C442    1.510   1_556 S
C994   H456    1.111   1_556 S
C995   H1011   1.108   .     S
C995   C1002   1.512   .     S
C995   H1009   1.111   .     S
C995   H1010   1.110   .     S
C996   H1017   1.077   .     S
C997   C998    1.425   .     A
C997   C447    1.416   1_556 S
C997   C450    1.425   1_556 S
C998   C1002   1.421   .     A
C1000  C1001   1.401   .     A
C1000  C442    1.417   1_556 S
C1000  C450    1.425   1_556 S
C1001  C1002   1.392   .     A
C1001  H1015   1.082   .     S
H1007  N1020   1.046   .     S
H1008  N1020   1.046   .     S
H1012  C1044   1.086   .     S
H1014  C619    1.086   1_565 S
O1021  Zn1036  1.929   .     S
O1021  Zn1037  1.930   .     S
O1021  Zn1034  1.964   .     S
O1021  Zn1035  1.949   .     S
O1022  Zn1035  1.932   .     S
O1023  Zn1037  1.946   .     S
O1024  Zn1036  1.942   .     S
O1025  Zn1034  1.929   .     S
O1026  Zn1034  1.929   .     S
O1027  Zn1037  1.930   .     S
O1028  Zn1035  1.924   .     S
O1029  Zn1036  1.938   .     S
O1030  Zn1037  1.934   .     S
O1031  Zn1034  1.921   .     S
O1032  Zn1035  1.936   .     S
O1033  Zn1036  1.930   .     S
C1038  O1091   1.271   .     A
C1038  O1089   1.272   .     A
C1038  C1044   1.439   .     S
C1039  C1053   1.403   .     A
C1039  N1081   1.438   .     S
C1039  C1060   1.418   .     A
C1040  H1064   1.085   .     S
C1040  C1052   1.395   .     A
C1040  C1053   1.393   .     A
C1041  O1092   1.278   .     A
C1041  O1090   1.283   .     A
C1041  C1043   1.456   .     S
C1042  C1054   1.403   .     A
C1042  C1051   1.468   .     S
C1042  C1059   1.422   .     A
C1043  C922    1.336   1_655 S
C1043  H958    1.088   1_655 S
C1045  C1048   1.451   .     S
C1045  C680    1.332   1_565 S
C1045  H708    1.088   1_565 S
C1046  C1047   1.436   .     S
C1047  O1093   1.280   .     A
C1047  O1087   1.280   .     A
C1048  O1094   1.268   .     A
C1048  O1088   1.269   .     A
C1049  C1054   1.383   .     A
C1049  C508    1.387   1_556 S
C1049  H530    1.082   1_556 S
C1050  O1085   1.269   .     A
C1050  O1083   1.276   .     A
C1050  C1053   1.452   .     S
C1051  O1084   1.278   .     A
C1051  O1086   1.284   .     A
C1054  H1077   1.084   .     S
C1055  H1067   1.110   .     S
C1055  H1065   1.110   .     S
C1055  C503    1.510   1_556 S
C1055  H517    1.111   1_556 S
C1056  H1072   1.108   .     S
C1056  C1063   1.512   .     S
C1056  H1070   1.111   .     S
C1056  H1071   1.110   .     S
C1057  H1078   1.077   .     S
C1058  C1059   1.425   .     A
C1058  C508    1.416   1_556 S
C1058  C511    1.425   1_556 S
C1059  C1063   1.421   .     A
C1061  C1062   1.401   .     A
C1061  C503    1.417   1_556 S
C1061  C511    1.425   1_556 S
C1062  C1063   1.392   .     A
C1062  H1076   1.082   .     S
H1068  N1081   1.046   .     S
H1069  N1081   1.046   .     S
H1073  C922    1.086   1_655 S
H1075  C680    1.086   1_565 S
O1082  Zn1097  1.929   .     S
O1082  Zn1098  1.930   .     S
O1082  Zn1095  1.964   .     S
O1082  Zn1096  1.949   .     S
O1083  Zn1096  1.932   .     S
O1084  Zn1098  1.946   .     S
O1085  Zn1097  1.942   .     S
O1086  Zn1095  1.929   .     S
O1087  Zn1095  1.929   .     S
O1088  Zn1098  1.930   .     S
O1089  Zn1096  1.924   .     S
O1090  Zn1097  1.938   .     S
O1091  Zn1098  1.934   .     S
O1092  Zn1095  1.921   .     S
O1093  Zn1096  1.936   .     S
O1094  Zn1097  1.930   .     S
